# generated using pymatgen
data_K2LiAlF6
_symmetry_space_group_name_H-M   'P 1'
_cell_length_a   5.71543784
_cell_length_b   5.71543784
_cell_length_c   28.02725950
_cell_angle_alpha   90.00000000
_cell_angle_beta   90.00000000
_cell_angle_gamma   120.00000000
_symmetry_Int_Tables_number   1
_chemical_formula_structural   K2LiAlF6
_chemical_formula_sum   'K12 Li6 Al6 F36'
_cell_volume   792.88513809
_cell_formula_units_Z   6
loop_
 _symmetry_equiv_pos_site_id
 _symmetry_equiv_pos_as_xyz
  1  'x, y, z'
loop_
 _atom_site_type_symbol
 _atom_site_label
 _atom_site_symmetry_multiplicity
 _atom_site_fract_x
 _atom_site_fract_y
 _atom_site_fract_z
 _atom_site_occupancy
  K  K0  1  0.66666667  0.33333333  0.05283533  1
  K  K1  1  0.00000000  0.00000000  0.28049800  1
  K  K2  1  0.66666667  0.33333333  0.20545633  1
  K  K3  1  0.00000000  0.00000000  0.12787700  1
  K  K4  1  0.33333333  0.66666667  0.38616867  1
  K  K5  1  0.66666667  0.33333333  0.61383133  1
  K  K6  1  0.33333333  0.66666667  0.53878967  1
  K  K7  1  0.66666667  0.33333333  0.46121033  1
  K  K8  1  0.00000000  0.00000000  0.71950200  1
  K  K9  1  0.33333333  0.66666667  0.94716467  1
  K  K10  1  0.00000000  0.00000000  0.87212300  1
  K  K11  1  0.33333333  0.66666667  0.79454367  1
  Li  Li12  1  0.33333333  0.66666667  0.26366567  1
  Li  Li13  1  0.33333333  0.66666667  0.06966767  1
  Li  Li14  1  0.00000000  0.00000000  0.59699900  1
  Li  Li15  1  0.00000000  0.00000000  0.40300100  1
  Li  Li16  1  0.66666667  0.33333333  0.93033233  1
  Li  Li17  1  0.66666667  0.33333333  0.73633433  1
  Al  Al18  1  0.33333333  0.66666667  0.16666667  1
  Al  Al19  1  0.00000000  0.00000000  0.00000000  1
  Al  Al20  1  1.00000000  1.00000000  0.50000000  1
  Al  Al21  1  0.66666667  0.33333333  0.33333333  1
  Al  Al22  1  0.66666667  0.33333333  0.83333333  1
  Al  Al23  1  0.33333333  0.66666667  0.66666667  1
  F  F24  1  0.15284900  0.30569800  0.03763400  1
  F  F25  1  0.69430200  0.84715100  0.03763400  1
  F  F26  1  0.15284900  0.84715100  0.03763400  1
  F  F27  1  0.51381767  0.48618233  0.29569933  1
  F  F28  1  0.03742200  0.51871100  0.12756300  1
  F  F29  1  0.48128900  0.96257800  0.12756300  1
  F  F30  1  0.48128900  0.51871100  0.12756300  1
  F  F31  1  0.18537767  0.81462233  0.20577033  1
  F  F32  1  0.62924467  0.81462233  0.20577033  1
  F  F33  1  0.18537767  0.37075533  0.20577033  1
  F  F34  1  0.97236467  0.48618233  0.29569933  1
  F  F35  1  0.51381767  0.02763533  0.29569933  1
  F  F36  1  0.81951567  0.63903133  0.37096733  1
  F  F37  1  0.36096867  0.18048433  0.37096733  1
  F  F38  1  0.81951567  0.18048433  0.37096733  1
  F  F39  1  0.18048433  0.81951567  0.62903267  1
  F  F40  1  0.70408867  0.85204433  0.46089633  1
  F  F41  1  0.14795567  0.29591133  0.46089633  1
  F  F42  1  0.14795567  0.85204433  0.46089633  1
  F  F43  1  0.85204433  0.14795567  0.53910367  1
  F  F44  1  0.29591133  0.14795567  0.53910367  1
  F  F45  1  0.85204433  0.70408867  0.53910367  1
  F  F46  1  0.63903133  0.81951567  0.62903267  1
  F  F47  1  0.18048433  0.36096867  0.62903267  1
  F  F48  1  0.48618233  0.97236467  0.70430067  1
  F  F49  1  0.02763533  0.51381767  0.70430067  1
  F  F50  1  0.48618233  0.51381767  0.70430067  1
  F  F51  1  0.84715100  0.15284900  0.96236600  1
  F  F52  1  0.37075533  0.18537767  0.79422967  1
  F  F53  1  0.81462233  0.62924467  0.79422967  1
  F  F54  1  0.81462233  0.18537767  0.79422967  1
  F  F55  1  0.51871100  0.48128900  0.87243700  1
  F  F56  1  0.96257800  0.48128900  0.87243700  1
  F  F57  1  0.51871100  0.03742200  0.87243700  1
  F  F58  1  0.30569800  0.15284900  0.96236600  1
  F  F59  1  0.84715100  0.69430200  0.96236600  1
