# generated using pymatgen
data_Na2CrO4
_symmetry_space_group_name_H-M   'P 1'
_cell_length_a   5.98859130
_cell_length_b   9.37054285
_cell_length_c   7.18884950
_cell_angle_alpha   90.00000000
_cell_angle_beta   90.00000000
_cell_angle_gamma   90.00000000
_symmetry_Int_Tables_number   1
_chemical_formula_structural   Na2CrO4
_chemical_formula_sum   'Na8 Cr4 O16'
_cell_volume   403.41200497
_cell_formula_units_Z   4
loop_
 _symmetry_equiv_pos_site_id
 _symmetry_equiv_pos_as_xyz
  1  'x, y, z'
loop_
 _atom_site_type_symbol
 _atom_site_label
 _atom_site_symmetry_multiplicity
 _atom_site_fract_x
 _atom_site_fract_y
 _atom_site_fract_z
 _atom_site_occupancy
  Na  Na0  1  0.50000000  0.31698100  0.75000000  1
  Na  Na1  1  0.50000000  0.68301900  0.25000000  1
  Na  Na2  1  0.50000000  0.00000000  0.50000000  1
  Na  Na3  1  0.50000000  0.00000000  0.00000000  1
  Na  Na4  1  0.00000000  0.81698100  0.75000000  1
  Na  Na5  1  0.00000000  0.18301900  0.25000000  1
  Na  Na6  1  0.00000000  0.50000000  0.50000000  1
  Na  Na7  1  0.00000000  0.50000000  0.00000000  1
  Cr  Cr8  1  0.50000000  0.64630900  0.75000000  1
  Cr  Cr9  1  0.50000000  0.35369100  0.25000000  1
  Cr  Cr10  1  0.00000000  0.14630900  0.75000000  1
  Cr  Cr11  1  0.00000000  0.85369100  0.25000000  1
  O  O12  1  0.50000000  0.25072475  0.06263550  1
  O  O13  1  0.50000000  0.74927525  0.56263550  1
  O  O14  1  0.50000000  0.74927525  0.93736450  1
  O  O15  1  0.50000000  0.25072475  0.43736450  1
  O  O16  1  0.22744100  0.04179750  0.75000000  1
  O  O17  1  0.77255900  0.95820250  0.25000000  1
  O  O18  1  0.77255900  0.04179750  0.75000000  1
  O  O19  1  0.22744100  0.95820250  0.25000000  1
  O  O20  1  0.00000000  0.75072475  0.06263550  1
  O  O21  1  0.00000000  0.24927525  0.56263550  1
  O  O22  1  0.00000000  0.24927525  0.93736450  1
  O  O23  1  0.00000000  0.75072475  0.43736450  1
  O  O24  1  0.72744100  0.54179750  0.75000000  1
  O  O25  1  0.27255900  0.45820250  0.25000000  1
  O  O26  1  0.27255900  0.54179750  0.75000000  1
  O  O27  1  0.72744100  0.45820250  0.25000000  1
