# generated using pymatgen
data_Sr3AlO4F
_symmetry_space_group_name_H-M   'P 1'
_cell_length_a   6.83577800
_cell_length_b   6.83577800
_cell_length_c   11.26261400
_cell_angle_alpha   90.00000000
_cell_angle_beta   90.00000000
_cell_angle_gamma   90.00000000
_symmetry_Int_Tables_number   1
_chemical_formula_structural   Sr3AlO4F
_chemical_formula_sum   'Sr12 Al4 O16 F4'
_cell_volume   526.27785997
_cell_formula_units_Z   4
loop_
 _symmetry_equiv_pos_site_id
 _symmetry_equiv_pos_as_xyz
  1  'x, y, z'
loop_
 _atom_site_type_symbol
 _atom_site_label
 _atom_site_symmetry_multiplicity
 _atom_site_fract_x
 _atom_site_fract_y
 _atom_site_fract_z
 _atom_site_occupancy
  Sr  Sr0  1  0.83125650  0.33125650  0.50000000  1
  Sr  Sr1  1  0.16874350  0.33125650  0.00000000  1
  Sr  Sr2  1  0.83125650  0.66874350  0.00000000  1
  Sr  Sr3  1  0.66874350  0.16874350  0.00000000  1
  Sr  Sr4  1  0.00000000  0.00000000  0.25000000  1
  Sr  Sr5  1  0.50000000  0.50000000  0.25000000  1
  Sr  Sr6  1  0.33125650  0.83125650  0.00000000  1
  Sr  Sr7  1  0.66874350  0.83125650  0.50000000  1
  Sr  Sr8  1  0.33125650  0.16874350  0.50000000  1
  Sr  Sr9  1  0.16874350  0.66874350  0.50000000  1
  Sr  Sr10  1  0.50000000  0.50000000  0.75000000  1
  Sr  Sr11  1  0.00000000  0.00000000  0.75000000  1
  Al  Al12  1  0.00000000  0.50000000  0.25000000  1
  Al  Al13  1  0.50000000  0.00000000  0.25000000  1
  Al  Al14  1  0.50000000  0.00000000  0.75000000  1
  Al  Al15  1  0.00000000  0.50000000  0.75000000  1
  O  O16  1  0.85775300  0.35775300  0.14807700  1
  O  O17  1  0.35775300  0.85775300  0.35192300  1
  O  O18  1  0.64224700  0.14224700  0.35192300  1
  O  O19  1  0.85775300  0.64224700  0.35192300  1
  O  O20  1  0.14224700  0.35775300  0.35192300  1
  O  O21  1  0.64224700  0.85775300  0.14807700  1
  O  O22  1  0.35775300  0.14224700  0.14807700  1
  O  O23  1  0.14224700  0.64224700  0.14807700  1
  O  O24  1  0.35775300  0.85775300  0.64807700  1
  O  O25  1  0.85775300  0.35775300  0.85192300  1
  O  O26  1  0.14224700  0.64224700  0.85192300  1
  O  O27  1  0.35775300  0.14224700  0.85192300  1
  O  O28  1  0.64224700  0.85775300  0.85192300  1
  O  O29  1  0.14224700  0.35775300  0.64807700  1
  O  O30  1  0.85775300  0.64224700  0.64807700  1
  O  O31  1  0.64224700  0.14224700  0.64807700  1
  F  F32  1  0.50000000  0.50000000  0.00000000  1
  F  F33  1  0.00000000  0.00000000  0.00000000  1
  F  F34  1  0.00000000  0.00000000  0.50000000  1
  F  F35  1  0.50000000  0.50000000  0.50000000  1
