# generated using pymatgen
data_Pr4Si2S3O7
_symmetry_space_group_name_H-M   'P 1'
_cell_length_a   12.10819600
_cell_length_b   12.10819600
_cell_length_c   14.33323800
_cell_angle_alpha   90.00000000
_cell_angle_beta   90.00000000
_cell_angle_gamma   90.00000000
_symmetry_Int_Tables_number   1
_chemical_formula_structural   Pr4Si2S3O7
_chemical_formula_sum   'Pr32 Si16 S24 O56'
_cell_volume   2101.37323870
_cell_formula_units_Z   8
loop_
 _symmetry_equiv_pos_site_id
 _symmetry_equiv_pos_as_xyz
  1  'x, y, z'
loop_
 _atom_site_type_symbol
 _atom_site_label
 _atom_site_symmetry_multiplicity
 _atom_site_fract_x
 _atom_site_fract_y
 _atom_site_fract_z
 _atom_site_occupancy
  Pr  Pr0  1  0.67132350  0.17132350  0.25000000  1
  Pr  Pr1  1  0.82867650  0.17132350  0.50000000  1
  Pr  Pr2  1  0.17132350  0.82867650  0.50000000  1
  Pr  Pr3  1  0.32867650  0.82867650  0.25000000  1
  Pr  Pr4  1  0.32867650  0.32867650  0.00000000  1
  Pr  Pr5  1  0.67132350  0.82867650  0.25000000  1
  Pr  Pr6  1  0.32867650  0.17132350  0.25000000  1
  Pr  Pr7  1  0.17132350  0.17132350  0.50000000  1
  Pr  Pr8  1  0.76300900  0.00000000  0.03167400  1
  Pr  Pr9  1  0.23699100  0.00000000  0.03167400  1
  Pr  Pr10  1  0.50000000  0.73699100  0.46832600  1
  Pr  Pr11  1  0.50000000  0.23699100  0.78167400  1
  Pr  Pr12  1  0.00000000  0.26300900  0.28167400  1
  Pr  Pr13  1  0.26300900  0.00000000  0.71832600  1
  Pr  Pr14  1  0.23699100  0.50000000  0.21832600  1
  Pr  Pr15  1  0.50000000  0.26300900  0.46832600  1
  Pr  Pr16  1  0.17132350  0.67132350  0.75000000  1
  Pr  Pr17  1  0.32867650  0.67132350  0.00000000  1
  Pr  Pr18  1  0.67132350  0.32867650  0.00000000  1
  Pr  Pr19  1  0.82867650  0.32867650  0.75000000  1
  Pr  Pr20  1  0.82867650  0.82867650  0.50000000  1
  Pr  Pr21  1  0.17132350  0.32867650  0.75000000  1
  Pr  Pr22  1  0.82867650  0.67132350  0.75000000  1
  Pr  Pr23  1  0.67132350  0.67132350  0.00000000  1
  Pr  Pr24  1  0.26300900  0.50000000  0.53167400  1
  Pr  Pr25  1  0.73699100  0.50000000  0.53167400  1
  Pr  Pr26  1  0.00000000  0.23699100  0.96832600  1
  Pr  Pr27  1  0.00000000  0.73699100  0.28167400  1
  Pr  Pr28  1  0.50000000  0.76300900  0.78167400  1
  Pr  Pr29  1  0.76300900  0.50000000  0.21832600  1
  Pr  Pr30  1  0.73699100  0.00000000  0.71832600  1
  Pr  Pr31  1  0.00000000  0.76300900  0.96832600  1
  Si  Si32  1  0.12401700  0.00000000  0.27728200  1
  Si  Si33  1  0.37598300  0.50000000  0.77728200  1
  Si  Si34  1  0.50000000  0.37598300  0.22271800  1
  Si  Si35  1  0.00000000  0.37598300  0.52728200  1
  Si  Si36  1  0.50000000  0.12401700  0.02728200  1
  Si  Si37  1  0.12401700  0.50000000  0.97271800  1
  Si  Si38  1  0.37598300  0.00000000  0.47271800  1
  Si  Si39  1  0.00000000  0.12401700  0.72271800  1
  Si  Si40  1  0.62401700  0.50000000  0.77728200  1
  Si  Si41  1  0.87598300  0.00000000  0.27728200  1
  Si  Si42  1  0.00000000  0.87598300  0.72271800  1
  Si  Si43  1  0.50000000  0.87598300  0.02728200  1
  Si  Si44  1  0.00000000  0.62401700  0.52728200  1
  Si  Si45  1  0.62401700  0.00000000  0.47271800  1
  Si  Si46  1  0.87598300  0.50000000  0.97271800  1
  Si  Si47  1  0.50000000  0.62401700  0.22271800  1
  S  S48  1  0.00000000  0.00000000  0.50000000  1
  S  S49  1  0.50000000  0.00000000  0.25000000  1
  S  S50  1  0.00000000  0.50000000  0.25000000  1
  S  S51  1  0.00000000  0.00000000  0.00000000  1
  S  S52  1  0.35097400  0.25000000  0.62500000  1
  S  S53  1  0.25000000  0.35097400  0.37500000  1
  S  S54  1  0.25000000  0.14902600  0.87500000  1
  S  S55  1  0.14902600  0.25000000  0.12500000  1
  S  S56  1  0.14902600  0.75000000  0.12500000  1
  S  S57  1  0.75000000  0.14902600  0.87500000  1
  S  S58  1  0.75000000  0.35097400  0.37500000  1
  S  S59  1  0.35097400  0.75000000  0.62500000  1
  S  S60  1  0.50000000  0.50000000  0.00000000  1
  S  S61  1  0.00000000  0.50000000  0.75000000  1
  S  S62  1  0.50000000  0.00000000  0.75000000  1
  S  S63  1  0.50000000  0.50000000  0.50000000  1
  S  S64  1  0.85097400  0.75000000  0.12500000  1
  S  S65  1  0.75000000  0.85097400  0.87500000  1
  S  S66  1  0.75000000  0.64902600  0.37500000  1
  S  S67  1  0.64902600  0.75000000  0.62500000  1
  S  S68  1  0.64902600  0.25000000  0.62500000  1
  S  S69  1  0.25000000  0.64902600  0.37500000  1
  S  S70  1  0.25000000  0.85097400  0.87500000  1
  S  S71  1  0.85097400  0.25000000  0.12500000  1
  O  O72  1  0.00000000  0.00000000  0.77076300  1
  O  O73  1  0.00000000  0.50000000  0.02076300  1
  O  O74  1  0.00000000  0.50000000  0.47923700  1
  O  O75  1  0.00000000  0.00000000  0.22923700  1
  O  O76  1  0.77384300  0.00000000  0.20030000  1
  O  O77  1  0.22615700  0.00000000  0.20030000  1
  O  O78  1  0.50000000  0.72615700  0.29970000  1
  O  O79  1  0.50000000  0.22615700  0.95030000  1
  O  O80  1  0.00000000  0.27384300  0.45030000  1
  O  O81  1  0.27384300  0.00000000  0.54970000  1
  O  O82  1  0.22615700  0.50000000  0.04970000  1
  O  O83  1  0.50000000  0.27384300  0.29970000  1
  O  O84  1  0.14056150  0.38147250  0.91879650  1
  O  O85  1  0.35943850  0.11852750  0.41879650  1
  O  O86  1  0.11852750  0.35943850  0.58120350  1
  O  O87  1  0.38147250  0.35943850  0.16879650  1
  O  O88  1  0.11852750  0.14056150  0.66879650  1
  O  O89  1  0.14056150  0.11852750  0.33120350  1
  O  O90  1  0.35943850  0.38147250  0.83120350  1
  O  O91  1  0.38147250  0.14056150  0.08120350  1
  O  O92  1  0.35943850  0.61852750  0.83120350  1
  O  O93  1  0.14056150  0.88147250  0.33120350  1
  O  O94  1  0.88147250  0.14056150  0.66879650  1
  O  O95  1  0.61852750  0.14056150  0.08120350  1
  O  O96  1  0.88147250  0.35943850  0.58120350  1
  O  O97  1  0.35943850  0.88147250  0.41879650  1
  O  O98  1  0.14056150  0.61852750  0.91879650  1
  O  O99  1  0.61852750  0.35943850  0.16879650  1
  O  O100  1  0.50000000  0.50000000  0.27076300  1
  O  O101  1  0.50000000  0.00000000  0.52076300  1
  O  O102  1  0.50000000  0.00000000  0.97923700  1
  O  O103  1  0.50000000  0.50000000  0.72923700  1
  O  O104  1  0.27384300  0.50000000  0.70030000  1
  O  O105  1  0.72615700  0.50000000  0.70030000  1
  O  O106  1  0.00000000  0.22615700  0.79970000  1
  O  O107  1  0.00000000  0.72615700  0.45030000  1
  O  O108  1  0.50000000  0.77384300  0.95030000  1
  O  O109  1  0.77384300  0.50000000  0.04970000  1
  O  O110  1  0.72615700  0.00000000  0.54970000  1
  O  O111  1  0.00000000  0.77384300  0.79970000  1
  O  O112  1  0.64056150  0.88147250  0.41879650  1
  O  O113  1  0.85943850  0.61852750  0.91879650  1
  O  O114  1  0.61852750  0.85943850  0.08120350  1
  O  O115  1  0.88147250  0.85943850  0.66879650  1
  O  O116  1  0.61852750  0.64056150  0.16879650  1
  O  O117  1  0.64056150  0.61852750  0.83120350  1
  O  O118  1  0.85943850  0.88147250  0.33120350  1
  O  O119  1  0.88147250  0.64056150  0.58120350  1
  O  O120  1  0.85943850  0.11852750  0.33120350  1
  O  O121  1  0.64056150  0.38147250  0.83120350  1
  O  O122  1  0.38147250  0.64056150  0.16879650  1
  O  O123  1  0.11852750  0.64056150  0.58120350  1
  O  O124  1  0.38147250  0.85943850  0.08120350  1
  O  O125  1  0.85943850  0.38147250  0.91879650  1
  O  O126  1  0.64056150  0.11852750  0.41879650  1
  O  O127  1  0.11852750  0.85943850  0.66879650  1
