# generated using pymatgen
data_RbDy2CuSe4
_symmetry_space_group_name_H-M   'P 1'
_cell_length_a   4.13989800
_cell_length_b   14.32636000
_cell_length_c   14.43578600
_cell_angle_alpha   90.00000000
_cell_angle_beta   90.00000000
_cell_angle_gamma   90.00000000
_symmetry_Int_Tables_number   1
_chemical_formula_structural   RbDy2CuSe4
_chemical_formula_sum   'Rb4 Dy8 Cu4 Se16'
_cell_volume   856.18169102
_cell_formula_units_Z   4
loop_
 _symmetry_equiv_pos_site_id
 _symmetry_equiv_pos_as_xyz
  1  'x, y, z'
loop_
 _atom_site_type_symbol
 _atom_site_label
 _atom_site_symmetry_multiplicity
 _atom_site_fract_x
 _atom_site_fract_y
 _atom_site_fract_z
 _atom_site_occupancy
  Rb  Rb0  1  0.00000000  0.11028600  0.25000000  1
  Rb  Rb1  1  0.50000000  0.38971400  0.75000000  1
  Rb  Rb2  1  0.50000000  0.61028600  0.25000000  1
  Rb  Rb3  1  0.00000000  0.88971400  0.75000000  1
  Dy  Dy4  1  0.50000000  0.13397200  0.56385300  1
  Dy  Dy5  1  0.00000000  0.36602800  0.43614700  1
  Dy  Dy6  1  0.50000000  0.13397200  0.93614700  1
  Dy  Dy7  1  0.00000000  0.36602800  0.06385300  1
  Dy  Dy8  1  0.00000000  0.63397200  0.56385300  1
  Dy  Dy9  1  0.50000000  0.86602800  0.43614700  1
  Dy  Dy10  1  0.00000000  0.63397200  0.93614700  1
  Dy  Dy11  1  0.50000000  0.86602800  0.06385300  1
  Cu  Cu12  1  0.50000000  0.33678300  0.25000000  1
  Cu  Cu13  1  0.00000000  0.16321700  0.75000000  1
  Cu  Cu14  1  0.00000000  0.83678300  0.25000000  1
  Cu  Cu15  1  0.50000000  0.66321700  0.75000000  1
  Se  Se16  1  0.50000000  0.07049200  0.75000000  1
  Se  Se17  1  0.00000000  0.42950800  0.25000000  1
  Se  Se18  1  0.00000000  0.26171600  0.60903400  1
  Se  Se19  1  0.50000000  0.23828400  0.39096600  1
  Se  Se20  1  0.00000000  0.00000000  0.00000000  1
  Se  Se21  1  0.00000000  0.00000000  0.50000000  1
  Se  Se22  1  0.00000000  0.26171600  0.89096600  1
  Se  Se23  1  0.50000000  0.23828400  0.10903400  1
  Se  Se24  1  0.00000000  0.57049200  0.75000000  1
  Se  Se25  1  0.50000000  0.92950800  0.25000000  1
  Se  Se26  1  0.50000000  0.76171600  0.60903400  1
  Se  Se27  1  0.00000000  0.73828400  0.39096600  1
  Se  Se28  1  0.50000000  0.50000000  0.00000000  1
  Se  Se29  1  0.50000000  0.50000000  0.50000000  1
  Se  Se30  1  0.50000000  0.76171600  0.89096600  1
  Se  Se31  1  0.00000000  0.73828400  0.10903400  1
