# generated using pymatgen
data_Ba4GeP4
_symmetry_space_group_name_H-M   'P 1'
_cell_length_a   13.22419100
_cell_length_b   13.22419100
_cell_length_c   13.22419100
_cell_angle_alpha   90.00000000
_cell_angle_beta   90.00000000
_cell_angle_gamma   90.00000000
_symmetry_Int_Tables_number   1
_chemical_formula_structural   Ba4GeP4
_chemical_formula_sum   'Ba32 Ge8 P32'
_cell_volume   2312.63630777
_cell_formula_units_Z   8
loop_
 _symmetry_equiv_pos_site_id
 _symmetry_equiv_pos_as_xyz
  1  'x, y, z'
loop_
 _atom_site_type_symbol
 _atom_site_label
 _atom_site_symmetry_multiplicity
 _atom_site_fract_x
 _atom_site_fract_y
 _atom_site_fract_z
 _atom_site_occupancy
  Ba  Ba0  1  0.90489900  0.86771600  0.64491500  1
  Ba  Ba1  1  0.90489900  0.13228400  0.35508500  1
  Ba  Ba2  1  0.86771600  0.64491500  0.90489900  1
  Ba  Ba3  1  0.13228400  0.64491500  0.09510100  1
  Ba  Ba4  1  0.64491500  0.90489900  0.86771600  1
  Ba  Ba5  1  0.35508500  0.09510100  0.86771600  1
  Ba  Ba6  1  0.59510100  0.85508500  0.36771600  1
  Ba  Ba7  1  0.59510100  0.14491500  0.63228400  1
  Ba  Ba8  1  0.40489900  0.85508500  0.63228400  1
  Ba  Ba9  1  0.14491500  0.63228400  0.59510100  1
  Ba  Ba10  1  0.63228400  0.40489900  0.85508500  1
  Ba  Ba11  1  0.63228400  0.59510100  0.14491500  1
  Ba  Ba12  1  0.85508500  0.36771600  0.59510100  1
  Ba  Ba13  1  0.36771600  0.59510100  0.85508500  1
  Ba  Ba14  1  0.85508500  0.63228400  0.40489900  1
  Ba  Ba15  1  0.14491500  0.36771600  0.40489900  1
  Ba  Ba16  1  0.36771600  0.40489900  0.14491500  1
  Ba  Ba17  1  0.35508500  0.90489900  0.13228400  1
  Ba  Ba18  1  0.64491500  0.09510100  0.13228400  1
  Ba  Ba19  1  0.86771600  0.35508500  0.09510100  1
  Ba  Ba20  1  0.13228400  0.35508500  0.90489900  1
  Ba  Ba21  1  0.09510100  0.13228400  0.64491500  1
  Ba  Ba22  1  0.09510100  0.86771600  0.35508500  1
  Ba  Ba23  1  0.40489900  0.14491500  0.36771600  1
  Ba  Ba24  1  0.14497800  0.14497800  0.14497800  1
  Ba  Ba25  1  0.35502200  0.64497800  0.35502200  1
  Ba  Ba26  1  0.64497800  0.35502200  0.35502200  1
  Ba  Ba27  1  0.35502200  0.35502200  0.64497800  1
  Ba  Ba28  1  0.14497800  0.85502200  0.85502200  1
  Ba  Ba29  1  0.85502200  0.85502200  0.14497800  1
  Ba  Ba30  1  0.85502200  0.14497800  0.85502200  1
  Ba  Ba31  1  0.64497800  0.64497800  0.64497800  1
  Ge  Ge32  1  0.75000000  0.00000000  0.50000000  1
  Ge  Ge33  1  0.50000000  0.75000000  0.00000000  1
  Ge  Ge34  1  0.50000000  0.25000000  0.00000000  1
  Ge  Ge35  1  0.00000000  0.50000000  0.25000000  1
  Ge  Ge36  1  0.00000000  0.50000000  0.75000000  1
  Ge  Ge37  1  0.25000000  0.00000000  0.50000000  1
  Ge  Ge38  1  0.50000000  0.50000000  0.50000000  1
  Ge  Ge39  1  0.00000000  0.00000000  0.00000000  1
  P  P40  1  0.65097000  0.89640500  0.61219700  1
  P  P41  1  0.65097000  0.10359500  0.38780300  1
  P  P42  1  0.89640500  0.61219700  0.65097000  1
  P  P43  1  0.10359500  0.61219700  0.34903000  1
  P  P44  1  0.61219700  0.65097000  0.89640500  1
  P  P45  1  0.38780300  0.34903000  0.89640500  1
  P  P46  1  0.84903000  0.88780300  0.39640500  1
  P  P47  1  0.84903000  0.11219700  0.60359500  1
  P  P48  1  0.15097000  0.88780300  0.60359500  1
  P  P49  1  0.11219700  0.60359500  0.84903000  1
  P  P50  1  0.60359500  0.15097000  0.88780300  1
  P  P51  1  0.60359500  0.84903000  0.11219700  1
  P  P52  1  0.88780300  0.39640500  0.84903000  1
  P  P53  1  0.39640500  0.84903000  0.88780300  1
  P  P54  1  0.88780300  0.60359500  0.15097000  1
  P  P55  1  0.11219700  0.39640500  0.15097000  1
  P  P56  1  0.39640500  0.15097000  0.11219700  1
  P  P57  1  0.38780300  0.65097000  0.10359500  1
  P  P58  1  0.61219700  0.34903000  0.10359500  1
  P  P59  1  0.89640500  0.38780300  0.34903000  1
  P  P60  1  0.10359500  0.38780300  0.65097000  1
  P  P61  1  0.34903000  0.10359500  0.61219700  1
  P  P62  1  0.34903000  0.89640500  0.38780300  1
  P  P63  1  0.15097000  0.11219700  0.39640500  1
  P  P64  1  0.89546000  0.89546000  0.89546000  1
  P  P65  1  0.60454000  0.39546000  0.60454000  1
  P  P66  1  0.39546000  0.60454000  0.60454000  1
  P  P67  1  0.60454000  0.60454000  0.39546000  1
  P  P68  1  0.89546000  0.10454000  0.10454000  1
  P  P69  1  0.10454000  0.10454000  0.89546000  1
  P  P70  1  0.10454000  0.89546000  0.10454000  1
  P  P71  1  0.39546000  0.39546000  0.39546000  1
