# generated using pymatgen
data_KMg(PO3)3
_symmetry_space_group_name_H-M   'P 1'
_cell_length_a   6.71764456
_cell_length_b   6.71764456
_cell_length_c   9.93288200
_cell_angle_alpha   90.00000000
_cell_angle_beta   90.00000000
_cell_angle_gamma   120.00000000
_symmetry_Int_Tables_number   1
_chemical_formula_structural   KMg(PO3)3
_chemical_formula_sum   'K2 Mg2 P6 O18'
_cell_volume   388.18607237
_cell_formula_units_Z   2
loop_
 _symmetry_equiv_pos_site_id
 _symmetry_equiv_pos_as_xyz
  1  'x, y, z'
loop_
 _atom_site_type_symbol
 _atom_site_label
 _atom_site_symmetry_multiplicity
 _atom_site_fract_x
 _atom_site_fract_y
 _atom_site_fract_z
 _atom_site_occupancy
  K  K0  1  0.00000000  0.00000000  0.50000000  1
  K  K1  1  0.00000000  0.00000000  0.00000000  1
  Mg  Mg2  1  0.66666667  0.33333333  0.50000000  1
  Mg  Mg3  1  0.66666667  0.33333333  0.00000000  1
  P  P4  1  0.39358500  0.44372300  0.75000000  1
  P  P5  1  0.39358500  0.94986200  0.25000000  1
  P  P6  1  0.05013800  0.44372300  0.25000000  1
  P  P7  1  0.55627700  0.60641500  0.25000000  1
  P  P8  1  0.55627700  0.94986200  0.75000000  1
  P  P9  1  0.05013800  0.60641500  0.75000000  1
  O  O10  1  0.41295300  0.34070400  0.62032700  1
  O  O11  1  0.65929600  0.58704700  0.37967300  1
  O  O12  1  0.65929600  0.07224900  0.62032700  1
  O  O13  1  0.92775100  0.58704700  0.62032700  1
  O  O14  1  0.65929600  0.07224900  0.87967300  1
  O  O15  1  0.92775100  0.58704700  0.87967300  1
  O  O16  1  0.41295300  0.34070400  0.87967300  1
  O  O17  1  0.92775100  0.34070400  0.12032700  1
  O  O18  1  0.41295300  0.07224900  0.12032700  1
  O  O19  1  0.41295300  0.07224900  0.37967300  1
  O  O20  1  0.57191300  0.85478700  0.25000000  1
  O  O21  1  0.28287400  0.42808700  0.25000000  1
  O  O22  1  0.14521300  0.71712600  0.25000000  1
  O  O23  1  0.14521300  0.42808700  0.75000000  1
  O  O24  1  0.28287400  0.85478700  0.75000000  1
  O  O25  1  0.57191300  0.71712600  0.75000000  1
  O  O26  1  0.65929600  0.58704700  0.12032700  1
  O  O27  1  0.92775100  0.34070400  0.37967300  1
