# generated using pymatgen
data_Be3N2
_symmetry_space_group_name_H-M   'P 1'
_cell_length_a   8.14911000
_cell_length_b   8.14911000
_cell_length_c   8.14911000
_cell_angle_alpha   90.00000000
_cell_angle_beta   90.00000000
_cell_angle_gamma   90.00000000
_symmetry_Int_Tables_number   1
_chemical_formula_structural   Be3N2
_chemical_formula_sum   'Be48 N32'
_cell_volume   541.16604629
_cell_formula_units_Z   16
loop_
 _symmetry_equiv_pos_site_id
 _symmetry_equiv_pos_as_xyz
  1  'x, y, z'
loop_
 _atom_site_type_symbol
 _atom_site_label
 _atom_site_symmetry_multiplicity
 _atom_site_fract_x
 _atom_site_fract_y
 _atom_site_fract_z
 _atom_site_occupancy
  Be  Be0  1  0.14573500  0.38018200  0.38614100  1
  Be  Be1  1  0.38018200  0.61385900  0.35426500  1
  Be  Be2  1  0.11385900  0.14573500  0.61981800  1
  Be  Be3  1  0.61981800  0.88614100  0.35426500  1
  Be  Be4  1  0.61385900  0.35426500  0.38018200  1
  Be  Be5  1  0.61981800  0.11385900  0.14573500  1
  Be  Be6  1  0.88614100  0.35426500  0.61981800  1
  Be  Be7  1  0.38614100  0.14573500  0.38018200  1
  Be  Be8  1  0.38018200  0.38614100  0.14573500  1
  Be  Be9  1  0.35426500  0.38018200  0.61385900  1
  Be  Be10  1  0.14573500  0.61981800  0.11385900  1
  Be  Be11  1  0.35426500  0.61981800  0.88614100  1
  Be  Be12  1  0.35426500  0.11981800  0.11385900  1
  Be  Be13  1  0.11981800  0.88614100  0.14573500  1
  Be  Be14  1  0.38614100  0.35426500  0.88018200  1
  Be  Be15  1  0.88018200  0.61385900  0.14573500  1
  Be  Be16  1  0.88614100  0.14573500  0.11981800  1
  Be  Be17  1  0.88018200  0.38614100  0.35426500  1
  Be  Be18  1  0.61385900  0.14573500  0.88018200  1
  Be  Be19  1  0.11385900  0.35426500  0.11981800  1
  Be  Be20  1  0.11981800  0.11385900  0.35426500  1
  Be  Be21  1  0.14573500  0.11981800  0.88614100  1
  Be  Be22  1  0.35426500  0.88018200  0.38614100  1
  Be  Be23  1  0.14573500  0.88018200  0.61385900  1
  Be  Be24  1  0.64573500  0.88018200  0.88614100  1
  Be  Be25  1  0.88018200  0.11385900  0.85426500  1
  Be  Be26  1  0.61385900  0.64573500  0.11981800  1
  Be  Be27  1  0.11981800  0.38614100  0.85426500  1
  Be  Be28  1  0.11385900  0.85426500  0.88018200  1
  Be  Be29  1  0.11981800  0.61385900  0.64573500  1
  Be  Be30  1  0.38614100  0.85426500  0.11981800  1
  Be  Be31  1  0.88614100  0.64573500  0.88018200  1
  Be  Be32  1  0.88018200  0.88614100  0.64573500  1
  Be  Be33  1  0.85426500  0.88018200  0.11385900  1
  Be  Be34  1  0.64573500  0.11981800  0.61385900  1
  Be  Be35  1  0.85426500  0.11981800  0.38614100  1
  Be  Be36  1  0.85426500  0.61981800  0.61385900  1
  Be  Be37  1  0.61981800  0.38614100  0.64573500  1
  Be  Be38  1  0.88614100  0.85426500  0.38018200  1
  Be  Be39  1  0.38018200  0.11385900  0.64573500  1
  Be  Be40  1  0.38614100  0.64573500  0.61981800  1
  Be  Be41  1  0.38018200  0.88614100  0.85426500  1
  Be  Be42  1  0.11385900  0.64573500  0.38018200  1
  Be  Be43  1  0.61385900  0.85426500  0.61981800  1
  Be  Be44  1  0.61981800  0.61385900  0.85426500  1
  Be  Be45  1  0.64573500  0.61981800  0.38614100  1
  Be  Be46  1  0.85426500  0.38018200  0.88614100  1
  Be  Be47  1  0.64573500  0.38018200  0.11385900  1
  N  N48  1  0.50000000  0.75000000  0.47912400  1
  N  N49  1  0.25000000  0.02087600  0.50000000  1
  N  N50  1  0.02087600  0.50000000  0.25000000  1
  N  N51  1  0.75000000  0.47912400  0.50000000  1
  N  N52  1  0.47912400  0.50000000  0.75000000  1
  N  N53  1  0.50000000  0.25000000  0.02087600  1
  N  N54  1  0.00000000  0.75000000  0.02087600  1
  N  N55  1  0.25000000  0.47912400  0.00000000  1
  N  N56  1  0.47912400  0.00000000  0.25000000  1
  N  N57  1  0.75000000  0.02087600  0.00000000  1
  N  N58  1  0.02087600  0.00000000  0.75000000  1
  N  N59  1  0.00000000  0.25000000  0.47912400  1
  N  N60  1  0.25000000  0.25000000  0.25000000  1
  N  N61  1  0.25000000  0.75000000  0.25000000  1
  N  N62  1  0.25000000  0.25000000  0.75000000  1
  N  N63  1  0.75000000  0.25000000  0.25000000  1
  N  N64  1  0.00000000  0.25000000  0.97912400  1
  N  N65  1  0.75000000  0.52087600  0.00000000  1
  N  N66  1  0.52087600  0.00000000  0.75000000  1
  N  N67  1  0.25000000  0.97912400  0.00000000  1
  N  N68  1  0.97912400  0.00000000  0.25000000  1
  N  N69  1  0.00000000  0.75000000  0.52087600  1
  N  N70  1  0.50000000  0.25000000  0.52087600  1
  N  N71  1  0.75000000  0.97912400  0.50000000  1
  N  N72  1  0.97912400  0.50000000  0.75000000  1
  N  N73  1  0.25000000  0.52087600  0.50000000  1
  N  N74  1  0.52087600  0.50000000  0.25000000  1
  N  N75  1  0.50000000  0.75000000  0.97912400  1
  N  N76  1  0.75000000  0.75000000  0.75000000  1
  N  N77  1  0.75000000  0.25000000  0.75000000  1
  N  N78  1  0.75000000  0.75000000  0.25000000  1
  N  N79  1  0.25000000  0.75000000  0.75000000  1
