# generated using pymatgen
data_RbVSe2
_symmetry_space_group_name_H-M   'P 1'
_cell_length_a   5.77970600
_cell_length_b   13.97768800
_cell_length_c   25.25712600
_cell_angle_alpha   90.00000000
_cell_angle_beta   90.00000000
_cell_angle_gamma   90.00000000
_symmetry_Int_Tables_number   1
_chemical_formula_structural   RbVSe2
_chemical_formula_sum   'Rb16 V16 Se32'
_cell_volume   2040.44559944
_cell_formula_units_Z   16
loop_
 _symmetry_equiv_pos_site_id
 _symmetry_equiv_pos_as_xyz
  1  'x, y, z'
loop_
 _atom_site_type_symbol
 _atom_site_label
 _atom_site_symmetry_multiplicity
 _atom_site_fract_x
 _atom_site_fract_y
 _atom_site_fract_z
 _atom_site_occupancy
  Rb  Rb0  1  0.00000000  0.00000000  0.67677400  1
  Rb  Rb1  1  0.50000000  0.00000000  0.82322600  1
  Rb  Rb2  1  0.75000000  0.75000000  0.57322600  1
  Rb  Rb3  1  0.75000000  0.75000000  0.92677400  1
  Rb  Rb4  1  0.00000000  0.50000000  0.17677400  1
  Rb  Rb5  1  0.50000000  0.50000000  0.32322600  1
  Rb  Rb6  1  0.75000000  0.25000000  0.07322600  1
  Rb  Rb7  1  0.75000000  0.25000000  0.42677400  1
  Rb  Rb8  1  0.50000000  0.00000000  0.17677400  1
  Rb  Rb9  1  0.00000000  0.00000000  0.32322600  1
  Rb  Rb10  1  0.25000000  0.75000000  0.07322600  1
  Rb  Rb11  1  0.25000000  0.75000000  0.42677400  1
  Rb  Rb12  1  0.50000000  0.50000000  0.67677400  1
  Rb  Rb13  1  0.00000000  0.50000000  0.82322600  1
  Rb  Rb14  1  0.25000000  0.25000000  0.57322600  1
  Rb  Rb15  1  0.25000000  0.25000000  0.92677400  1
  V  V16  1  0.50000000  0.00000000  0.00000000  1
  V  V17  1  0.75000000  0.75000000  0.75000000  1
  V  V18  1  0.00000000  0.00000000  0.00000000  1
  V  V19  1  0.25000000  0.75000000  0.75000000  1
  V  V20  1  0.50000000  0.50000000  0.50000000  1
  V  V21  1  0.75000000  0.25000000  0.25000000  1
  V  V22  1  0.00000000  0.50000000  0.50000000  1
  V  V23  1  0.25000000  0.25000000  0.25000000  1
  V  V24  1  0.00000000  0.00000000  0.50000000  1
  V  V25  1  0.25000000  0.75000000  0.25000000  1
  V  V26  1  0.50000000  0.00000000  0.50000000  1
  V  V27  1  0.75000000  0.75000000  0.25000000  1
  V  V28  1  0.00000000  0.50000000  0.00000000  1
  V  V29  1  0.25000000  0.25000000  0.75000000  1
  V  V30  1  0.50000000  0.50000000  0.00000000  1
  V  V31  1  0.75000000  0.25000000  0.75000000  1
  Se  Se32  1  0.99944150  0.65357700  0.69744450  1
  Se  Se33  1  0.99944150  0.84642300  0.80255550  1
  Se  Se34  1  0.50055850  0.65357700  0.80255550  1
  Se  Se35  1  0.50055850  0.84642300  0.69744450  1
  Se  Se36  1  0.25055850  0.59642300  0.55255550  1
  Se  Se37  1  0.25055850  0.90357700  0.94744450  1
  Se  Se38  1  0.24944150  0.59642300  0.94744450  1
  Se  Se39  1  0.24944150  0.90357700  0.55255550  1
  Se  Se40  1  0.99944150  0.15357700  0.19744450  1
  Se  Se41  1  0.99944150  0.34642300  0.30255550  1
  Se  Se42  1  0.50055850  0.15357700  0.30255550  1
  Se  Se43  1  0.50055850  0.34642300  0.19744450  1
  Se  Se44  1  0.25055850  0.09642300  0.05255550  1
  Se  Se45  1  0.25055850  0.40357700  0.44744450  1
  Se  Se46  1  0.24944150  0.09642300  0.44744450  1
  Se  Se47  1  0.24944150  0.40357700  0.05255550  1
  Se  Se48  1  0.49944150  0.65357700  0.19744450  1
  Se  Se49  1  0.49944150  0.84642300  0.30255550  1
  Se  Se50  1  0.00055850  0.65357700  0.30255550  1
  Se  Se51  1  0.00055850  0.84642300  0.19744450  1
  Se  Se52  1  0.75055850  0.59642300  0.05255550  1
  Se  Se53  1  0.75055850  0.90357700  0.44744450  1
  Se  Se54  1  0.74944150  0.59642300  0.44744450  1
  Se  Se55  1  0.74944150  0.90357700  0.05255550  1
  Se  Se56  1  0.49944150  0.15357700  0.69744450  1
  Se  Se57  1  0.49944150  0.34642300  0.80255550  1
  Se  Se58  1  0.00055850  0.15357700  0.80255550  1
  Se  Se59  1  0.00055850  0.34642300  0.69744450  1
  Se  Se60  1  0.75055850  0.09642300  0.55255550  1
  Se  Se61  1  0.75055850  0.40357700  0.94744450  1
  Se  Se62  1  0.74944150  0.09642300  0.94744450  1
  Se  Se63  1  0.74944150  0.40357700  0.55255550  1
