# generated using pymatgen
data_Na2ZnB6O11
_symmetry_space_group_name_H-M   'P 1'
_cell_length_a   10.89596800
_cell_length_b   7.48342000
_cell_length_c   11.62636618
_cell_angle_alpha   90.00000000
_cell_angle_beta   112.14365850
_cell_angle_gamma   90.00000000
_symmetry_Int_Tables_number   1
_chemical_formula_structural   Na2ZnB6O11
_chemical_formula_sum   'Na8 Zn4 B24 O44'
_cell_volume   878.08035079
_cell_formula_units_Z   4
loop_
 _symmetry_equiv_pos_site_id
 _symmetry_equiv_pos_as_xyz
  1  'x, y, z'
loop_
 _atom_site_type_symbol
 _atom_site_label
 _atom_site_symmetry_multiplicity
 _atom_site_fract_x
 _atom_site_fract_y
 _atom_site_fract_z
 _atom_site_occupancy
  Na  Na0  1  0.64601300  0.08870100  0.53442200  1
  Na  Na1  1  0.64601300  0.91129900  0.03442200  1
  Na  Na2  1  0.85398700  0.41129900  0.46557800  1
  Na  Na3  1  0.85398700  0.58870100  0.96557800  1
  Na  Na4  1  0.14601300  0.58870100  0.53442200  1
  Na  Na5  1  0.14601300  0.41129900  0.03442200  1
  Na  Na6  1  0.35398700  0.91129900  0.46557800  1
  Na  Na7  1  0.35398700  0.08870100  0.96557800  1
  Zn  Zn8  1  0.00000000  0.86818100  0.75000000  1
  Zn  Zn9  1  0.50000000  0.63181900  0.25000000  1
  Zn  Zn10  1  0.50000000  0.36818100  0.75000000  1
  Zn  Zn11  1  0.00000000  0.13181900  0.25000000  1
  B  B12  1  0.73615250  0.47631150  0.65411300  1
  B  B13  1  0.23615250  0.02368850  0.15411300  1
  B  B14  1  0.90657250  0.20059650  0.98784500  1
  B  B15  1  0.90657250  0.79940350  0.48784500  1
  B  B16  1  0.88365300  0.20835800  0.76573400  1
  B  B17  1  0.88365300  0.79164200  0.26573400  1
  B  B18  1  0.61634700  0.70835800  0.73426600  1
  B  B19  1  0.61634700  0.29164200  0.23426600  1
  B  B20  1  0.59342750  0.29940350  0.01215500  1
  B  B21  1  0.59342750  0.70059650  0.51215500  1
  B  B22  1  0.26384750  0.47631150  0.84588700  1
  B  B23  1  0.76384750  0.02368850  0.34588700  1
  B  B24  1  0.23615250  0.97631150  0.65411300  1
  B  B25  1  0.73615250  0.52368850  0.15411300  1
  B  B26  1  0.40657250  0.70059650  0.98784500  1
  B  B27  1  0.40657250  0.29940350  0.48784500  1
  B  B28  1  0.38365300  0.70835800  0.76573400  1
  B  B29  1  0.38365300  0.29164200  0.26573400  1
  B  B30  1  0.11634700  0.20835800  0.73426600  1
  B  B31  1  0.11634700  0.79164200  0.23426600  1
  B  B32  1  0.09342750  0.79940350  0.01215500  1
  B  B33  1  0.09342750  0.20059650  0.51215500  1
  B  B34  1  0.76384750  0.97631150  0.84588700  1
  B  B35  1  0.26384750  0.52368850  0.34588700  1
  O  O36  1  0.70780700  0.54612000  0.75021100  1
  O  O37  1  0.20780700  0.95388000  0.25021100  1
  O  O38  1  0.91835000  0.29117500  0.88867200  1
  O  O39  1  0.91835000  0.70882500  0.38867200  1
  O  O40  1  0.81584500  0.33203500  0.66248900  1
  O  O41  1  0.81584500  0.66796500  0.16248900  1
  O  O42  1  0.32176500  0.55171200  0.96562000  1
  O  O43  1  0.82176500  0.94828800  0.46562000  1
  O  O44  1  0.67823500  0.55171200  0.53438000  1
  O  O45  1  0.17823500  0.94828800  0.03438000  1
  O  O46  1  0.50000000  0.63135900  0.75000000  1
  O  O47  1  0.00000000  0.86864100  0.25000000  1
  O  O48  1  0.97616350  0.73767350  0.60322400  1
  O  O49  1  0.47616350  0.76232650  0.10322400  1
  O  O50  1  0.29219300  0.54612000  0.74978900  1
  O  O51  1  0.79219300  0.95388000  0.24978900  1
  O  O52  1  0.68415500  0.83203500  0.83751100  1
  O  O53  1  0.68415500  0.16796500  0.33751100  1
  O  O54  1  0.02383650  0.73767350  0.89677600  1
  O  O55  1  0.52383650  0.76232650  0.39677600  1
  O  O56  1  0.58165000  0.79117500  0.61132800  1
  O  O57  1  0.58165000  0.20882500  0.11132800  1
  O  O58  1  0.20780700  0.04612000  0.75021100  1
  O  O59  1  0.70780700  0.45388000  0.25021100  1
  O  O60  1  0.41835000  0.79117500  0.88867200  1
  O  O61  1  0.41835000  0.20882500  0.38867200  1
  O  O62  1  0.31584500  0.83203500  0.66248900  1
  O  O63  1  0.31584500  0.16796500  0.16248900  1
  O  O64  1  0.82176500  0.05171200  0.96562000  1
  O  O65  1  0.32176500  0.44828800  0.46562000  1
  O  O66  1  0.17823500  0.05171200  0.53438000  1
  O  O67  1  0.67823500  0.44828800  0.03438000  1
  O  O68  1  0.00000000  0.13135900  0.75000000  1
  O  O69  1  0.50000000  0.36864100  0.25000000  1
  O  O70  1  0.47616350  0.23767350  0.60322400  1
  O  O71  1  0.97616350  0.26232650  0.10322400  1
  O  O72  1  0.79219300  0.04612000  0.74978900  1
  O  O73  1  0.29219300  0.45388000  0.24978900  1
  O  O74  1  0.18415500  0.33203500  0.83751100  1
  O  O75  1  0.18415500  0.66796500  0.33751100  1
  O  O76  1  0.52383650  0.23767350  0.89677600  1
  O  O77  1  0.02383650  0.26232650  0.39677600  1
  O  O78  1  0.08165000  0.29117500  0.61132800  1
  O  O79  1  0.08165000  0.70882500  0.11132800  1
