# generated using pymatgen
data_Sn3N4
_symmetry_space_group_name_H-M   'P 1'
_cell_length_a   9.14244800
_cell_length_b   9.14244800
_cell_length_c   9.14244800
_cell_angle_alpha   90.00000000
_cell_angle_beta   90.00000000
_cell_angle_gamma   90.00000000
_symmetry_Int_Tables_number   1
_chemical_formula_structural   Sn3N4
_chemical_formula_sum   'Sn24 N32'
_cell_volume   764.16562316
_cell_formula_units_Z   8
loop_
 _symmetry_equiv_pos_site_id
 _symmetry_equiv_pos_as_xyz
  1  'x, y, z'
loop_
 _atom_site_type_symbol
 _atom_site_label
 _atom_site_symmetry_multiplicity
 _atom_site_fract_x
 _atom_site_fract_y
 _atom_site_fract_z
 _atom_site_occupancy
  Sn  Sn0  1  0.12500000  0.62500000  0.12500000  1
  Sn  Sn1  1  0.12500000  0.87500000  0.37500000  1
  Sn  Sn2  1  0.37500000  0.87500000  0.12500000  1
  Sn  Sn3  1  0.37500000  0.62500000  0.37500000  1
  Sn  Sn4  1  0.25000000  0.25000000  0.25000000  1
  Sn  Sn5  1  0.50000000  0.00000000  0.50000000  1
  Sn  Sn6  1  0.12500000  0.12500000  0.62500000  1
  Sn  Sn7  1  0.12500000  0.37500000  0.87500000  1
  Sn  Sn8  1  0.37500000  0.37500000  0.62500000  1
  Sn  Sn9  1  0.37500000  0.12500000  0.87500000  1
  Sn  Sn10  1  0.25000000  0.75000000  0.75000000  1
  Sn  Sn11  1  0.50000000  0.50000000  0.00000000  1
  Sn  Sn12  1  0.62500000  0.62500000  0.62500000  1
  Sn  Sn13  1  0.62500000  0.87500000  0.87500000  1
  Sn  Sn14  1  0.87500000  0.87500000  0.62500000  1
  Sn  Sn15  1  0.87500000  0.62500000  0.87500000  1
  Sn  Sn16  1  0.75000000  0.25000000  0.75000000  1
  Sn  Sn17  1  0.00000000  0.00000000  0.00000000  1
  Sn  Sn18  1  0.62500000  0.12500000  0.12500000  1
  Sn  Sn19  1  0.62500000  0.37500000  0.37500000  1
  Sn  Sn20  1  0.87500000  0.37500000  0.12500000  1
  Sn  Sn21  1  0.87500000  0.12500000  0.37500000  1
  Sn  Sn22  1  0.75000000  0.75000000  0.25000000  1
  Sn  Sn23  1  0.00000000  0.50000000  0.50000000  1
  N  N24  1  0.11593500  0.38406500  0.11593500  1
  N  N25  1  0.63406500  0.13406500  0.36593500  1
  N  N26  1  0.36593500  0.86593500  0.36593500  1
  N  N27  1  0.86593500  0.13406500  0.13406500  1
  N  N28  1  0.38406500  0.38406500  0.38406500  1
  N  N29  1  0.38406500  0.11593500  0.11593500  1
  N  N30  1  0.13406500  0.86593500  0.13406500  1
  N  N31  1  0.11593500  0.11593500  0.38406500  1
  N  N32  1  0.11593500  0.88406500  0.61593500  1
  N  N33  1  0.63406500  0.63406500  0.86593500  1
  N  N34  1  0.36593500  0.36593500  0.86593500  1
  N  N35  1  0.86593500  0.63406500  0.63406500  1
  N  N36  1  0.38406500  0.88406500  0.88406500  1
  N  N37  1  0.38406500  0.61593500  0.61593500  1
  N  N38  1  0.13406500  0.36593500  0.63406500  1
  N  N39  1  0.11593500  0.61593500  0.88406500  1
  N  N40  1  0.61593500  0.38406500  0.61593500  1
  N  N41  1  0.13406500  0.13406500  0.86593500  1
  N  N42  1  0.86593500  0.86593500  0.86593500  1
  N  N43  1  0.36593500  0.13406500  0.63406500  1
  N  N44  1  0.88406500  0.38406500  0.88406500  1
  N  N45  1  0.88406500  0.11593500  0.61593500  1
  N  N46  1  0.63406500  0.86593500  0.63406500  1
  N  N47  1  0.61593500  0.11593500  0.88406500  1
  N  N48  1  0.61593500  0.88406500  0.11593500  1
  N  N49  1  0.13406500  0.63406500  0.36593500  1
  N  N50  1  0.86593500  0.36593500  0.36593500  1
  N  N51  1  0.36593500  0.63406500  0.13406500  1
  N  N52  1  0.88406500  0.88406500  0.38406500  1
  N  N53  1  0.88406500  0.61593500  0.11593500  1
  N  N54  1  0.63406500  0.36593500  0.13406500  1
  N  N55  1  0.61593500  0.61593500  0.38406500  1
