# generated using pymatgen
data_Y3CuSnS7
_symmetry_space_group_name_H-M   'P 1'
_cell_length_a   9.76877972
_cell_length_b   9.76877972
_cell_length_c   6.28132000
_cell_angle_alpha   90.00000000
_cell_angle_beta   90.00000000
_cell_angle_gamma   120.00000000
_symmetry_Int_Tables_number   1
_chemical_formula_structural   Y3CuSnS7
_chemical_formula_sum   'Y6 Cu2 Sn2 S14'
_cell_volume   519.11333363
_cell_formula_units_Z   2
loop_
 _symmetry_equiv_pos_site_id
 _symmetry_equiv_pos_as_xyz
  1  'x, y, z'
loop_
 _atom_site_type_symbol
 _atom_site_label
 _atom_site_symmetry_multiplicity
 _atom_site_fract_x
 _atom_site_fract_y
 _atom_site_fract_z
 _atom_site_occupancy
  Y  Y0  1  0.35970900  0.15108400  0.37384800  1
  Y  Y1  1  0.15108400  0.79137500  0.87384800  1
  Y  Y2  1  0.84891600  0.20862500  0.37384800  1
  Y  Y3  1  0.64029100  0.84891600  0.87384800  1
  Y  Y4  1  0.20862500  0.35970900  0.87384800  1
  Y  Y5  1  0.79137500  0.64029100  0.37384800  1
  Cu  Cu6  1  0.00000000  0.00000000  0.48983800  1
  Cu  Cu7  1  0.00000000  0.00000000  0.98983800  1
  Sn  Sn8  1  0.66666667  0.33333333  0.80878800  1
  Sn  Sn9  1  0.33333333  0.66666667  0.30878800  1
  S  S10  1  0.33333333  0.66666667  0.69186300  1
  S  S11  1  0.66666667  0.33333333  0.19186300  1
  S  S12  1  0.56234900  0.08228500  0.62666500  1
  S  S13  1  0.48006400  0.56234900  0.12666500  1
  S  S14  1  0.08228500  0.51993600  0.12666500  1
  S  S15  1  0.91771500  0.48006400  0.62666500  1
  S  S16  1  0.51993600  0.43765100  0.62666500  1
  S  S17  1  0.43765100  0.91771500  0.12666500  1
  S  S18  1  0.88430800  0.14622400  0.95605700  1
  S  S19  1  0.73808400  0.88430800  0.45605700  1
  S  S20  1  0.11569200  0.85377600  0.45605700  1
  S  S21  1  0.26191600  0.11569200  0.95605700  1
  S  S22  1  0.85377600  0.73808400  0.95605700  1
  S  S23  1  0.14622400  0.26191600  0.45605700  1
