# generated using pymatgen
data_Na3PS3O
_symmetry_space_group_name_H-M   'P 1'
_cell_length_a   9.62517800
_cell_length_b   11.69707600
_cell_length_c   5.97102100
_cell_angle_alpha   90.00000000
_cell_angle_beta   90.00000000
_cell_angle_gamma   90.00000000
_symmetry_Int_Tables_number   1
_chemical_formula_structural   Na3PS3O
_chemical_formula_sum   'Na12 P4 S12 O4'
_cell_volume   672.25598907
_cell_formula_units_Z   4
loop_
 _symmetry_equiv_pos_site_id
 _symmetry_equiv_pos_as_xyz
  1  'x, y, z'
loop_
 _atom_site_type_symbol
 _atom_site_label
 _atom_site_symmetry_multiplicity
 _atom_site_fract_x
 _atom_site_fract_y
 _atom_site_fract_z
 _atom_site_occupancy
  Na  Na0  1  0.79854700  0.11691100  0.74670900  1
  Na  Na1  1  0.50000000  0.13089400  0.29481100  1
  Na  Na2  1  0.50000000  0.86910600  0.79481100  1
  Na  Na3  1  0.20145300  0.11691100  0.74670900  1
  Na  Na4  1  0.20145300  0.88308900  0.24670900  1
  Na  Na5  1  0.79854700  0.88308900  0.24670900  1
  Na  Na6  1  0.29854700  0.61691100  0.74670900  1
  Na  Na7  1  0.00000000  0.63089400  0.29481100  1
  Na  Na8  1  0.00000000  0.36910600  0.79481100  1
  Na  Na9  1  0.70145300  0.61691100  0.74670900  1
  Na  Na10  1  0.70145300  0.38308900  0.24670900  1
  Na  Na11  1  0.29854700  0.38308900  0.24670900  1
  P  P12  1  0.50000000  0.29425000  0.85443000  1
  P  P13  1  0.50000000  0.70575000  0.35443000  1
  P  P14  1  0.00000000  0.79425000  0.85443000  1
  P  P15  1  0.00000000  0.20575000  0.35443000  1
  S  S16  1  0.17788850  0.86713650  0.72883800  1
  S  S17  1  0.50000000  0.12090900  0.76878200  1
  S  S18  1  0.50000000  0.87909100  0.26878200  1
  S  S19  1  0.82211150  0.13286350  0.22883800  1
  S  S20  1  0.82211150  0.86713650  0.72883800  1
  S  S21  1  0.17788850  0.13286350  0.22883800  1
  S  S22  1  0.67788850  0.36713650  0.72883800  1
  S  S23  1  0.00000000  0.62090900  0.76878200  1
  S  S24  1  0.00000000  0.37909100  0.26878200  1
  S  S25  1  0.32211150  0.63286350  0.22883800  1
  S  S26  1  0.32211150  0.36713650  0.72883800  1
  S  S27  1  0.67788850  0.63286350  0.22883800  1
  O  O28  1  0.50000000  0.30304600  0.11278400  1
  O  O29  1  0.50000000  0.69695400  0.61278400  1
  O  O30  1  0.00000000  0.80304600  0.11278400  1
  O  O31  1  0.00000000  0.19695400  0.61278400  1
