# generated using pymatgen
data_ErVO4
_symmetry_space_group_name_H-M   'P 1'
_cell_length_a   7.15574000
_cell_length_b   7.15574000
_cell_length_c   6.32062200
_cell_angle_alpha   90.00000000
_cell_angle_beta   90.00000000
_cell_angle_gamma   90.00000000
_symmetry_Int_Tables_number   1
_chemical_formula_structural   ErVO4
_chemical_formula_sum   'Er4 V4 O16'
_cell_volume   323.64501574
_cell_formula_units_Z   4
loop_
 _symmetry_equiv_pos_site_id
 _symmetry_equiv_pos_as_xyz
  1  'x, y, z'
loop_
 _atom_site_type_symbol
 _atom_site_label
 _atom_site_symmetry_multiplicity
 _atom_site_fract_x
 _atom_site_fract_y
 _atom_site_fract_z
 _atom_site_occupancy
  Er  Er0  1  0.50000000  0.00000000  0.25000000  1
  Er  Er1  1  0.50000000  0.50000000  0.50000000  1
  Er  Er2  1  0.00000000  0.50000000  0.75000000  1
  Er  Er3  1  0.00000000  0.00000000  0.00000000  1
  V  V4  1  0.00000000  0.00000000  0.50000000  1
  V  V5  1  0.50000000  0.00000000  0.75000000  1
  V  V6  1  0.50000000  0.50000000  0.00000000  1
  V  V7  1  0.00000000  0.50000000  0.25000000  1
  O  O8  1  0.00000000  0.31403600  0.07282400  1
  O  O9  1  0.18596400  0.00000000  0.32282400  1
  O  O10  1  0.81403600  0.00000000  0.32282400  1
  O  O11  1  0.50000000  0.18596400  0.57282400  1
  O  O12  1  0.81403600  0.50000000  0.42717600  1
  O  O13  1  0.00000000  0.18596400  0.67717600  1
  O  O14  1  0.00000000  0.81403600  0.67717600  1
  O  O15  1  0.68596400  0.00000000  0.92717600  1
  O  O16  1  0.50000000  0.81403600  0.57282400  1
  O  O17  1  0.68596400  0.50000000  0.82282400  1
  O  O18  1  0.31403600  0.50000000  0.82282400  1
  O  O19  1  0.00000000  0.68596400  0.07282400  1
  O  O20  1  0.31403600  0.00000000  0.92717600  1
  O  O21  1  0.50000000  0.68596400  0.17717600  1
  O  O22  1  0.50000000  0.31403600  0.17717600  1
  O  O23  1  0.18596400  0.50000000  0.42717600  1
