# generated using pymatgen
data_Si(Hg2Se3)2
_symmetry_space_group_name_H-M   'P 1'
_cell_length_a   13.22495800
_cell_length_b   7.62340200
_cell_length_c   13.18424906
_cell_angle_alpha   90.00000000
_cell_angle_beta   110.05995763
_cell_angle_gamma   90.00000000
_symmetry_Int_Tables_number   1
_chemical_formula_structural   Si(Hg2Se3)2
_chemical_formula_sum   'Si4 Hg16 Se24'
_cell_volume   1248.58655775
_cell_formula_units_Z   4
loop_
 _symmetry_equiv_pos_site_id
 _symmetry_equiv_pos_as_xyz
  1  'x, y, z'
loop_
 _atom_site_type_symbol
 _atom_site_label
 _atom_site_symmetry_multiplicity
 _atom_site_fract_x
 _atom_site_fract_y
 _atom_site_fract_z
 _atom_site_occupancy
  Si  Si0  1  0.40888100  0.73117000  0.60296700  1
  Si  Si1  1  0.40888100  0.26883000  0.10296700  1
  Si  Si2  1  0.90888100  0.23117000  0.60296700  1
  Si  Si3  1  0.90888100  0.76883000  0.10296700  1
  Hg  Hg4  1  0.47447600  0.19936600  0.69100200  1
  Hg  Hg5  1  0.47447600  0.80063400  0.19100200  1
  Hg  Hg6  1  0.84664500  0.05097500  0.84521100  1
  Hg  Hg7  1  0.34664500  0.44902500  0.34521100  1
  Hg  Hg8  1  0.15994700  0.61263600  0.04154000  1
  Hg  Hg9  1  0.65994700  0.88736400  0.54154000  1
  Hg  Hg10  1  0.67613850  0.59451550  0.85762400  1
  Hg  Hg11  1  0.67613850  0.40548450  0.35762400  1
  Hg  Hg12  1  0.97447600  0.69936600  0.69100200  1
  Hg  Hg13  1  0.97447600  0.30063400  0.19100200  1
  Hg  Hg14  1  0.34664500  0.55097500  0.84521100  1
  Hg  Hg15  1  0.84664500  0.94902500  0.34521100  1
  Hg  Hg16  1  0.65994700  0.11263600  0.04154000  1
  Hg  Hg17  1  0.15994700  0.38736400  0.54154000  1
  Hg  Hg18  1  0.17613850  0.09451550  0.85762400  1
  Hg  Hg19  1  0.17613850  0.90548450  0.35762400  1
  Se  Se20  1  0.28675150  0.74396050  0.23203300  1
  Se  Se21  1  0.78675150  0.75603950  0.73203300  1
  Se  Se22  1  0.48173400  0.48964400  0.55324900  1
  Se  Se23  1  0.48173400  0.51035600  0.05324900  1
  Se  Se24  1  0.22572300  0.25537000  0.05461700  1
  Se  Se25  1  0.72572300  0.24463000  0.55461700  1
  Se  Se26  1  0.47935500  0.77155000  0.78661900  1
  Se  Se27  1  0.47935500  0.22845000  0.28661900  1
  Se  Se28  1  0.66597450  0.24264750  0.85220400  1
  Se  Se29  1  0.66597450  0.75735250  0.35220400  1
  Se  Se30  1  0.45417500  0.97496000  0.52343500  1
  Se  Se31  1  0.45417500  0.02504000  0.02343500  1
  Se  Se32  1  0.78675150  0.24396050  0.23203300  1
  Se  Se33  1  0.28675150  0.25603950  0.73203300  1
  Se  Se34  1  0.98173400  0.98964400  0.55324900  1
  Se  Se35  1  0.98173400  0.01035600  0.05324900  1
  Se  Se36  1  0.72572300  0.75537000  0.05461700  1
  Se  Se37  1  0.22572300  0.74463000  0.55461700  1
  Se  Se38  1  0.97935500  0.27155000  0.78661900  1
  Se  Se39  1  0.97935500  0.72845000  0.28661900  1
  Se  Se40  1  0.16597450  0.74264750  0.85220400  1
  Se  Se41  1  0.16597450  0.25735250  0.35220400  1
  Se  Se42  1  0.95417500  0.47496000  0.52343500  1
  Se  Se43  1  0.95417500  0.52504000  0.02343500  1
