# generated using pymatgen
data_TlGaSe2
_symmetry_space_group_name_H-M   'P 1'
_cell_length_a   11.03705000
_cell_length_b   11.00028400
_cell_length_c   16.05960229
_cell_angle_alpha   90.00000000
_cell_angle_beta   99.50083231
_cell_angle_gamma   90.00000000
_symmetry_Int_Tables_number   1
_chemical_formula_structural   TlGaSe2
_chemical_formula_sum   'Tl16 Ga16 Se32'
_cell_volume   1923.06219792
_cell_formula_units_Z   16
loop_
 _symmetry_equiv_pos_site_id
 _symmetry_equiv_pos_as_xyz
  1  'x, y, z'
loop_
 _atom_site_type_symbol
 _atom_site_label
 _atom_site_symmetry_multiplicity
 _atom_site_fract_x
 _atom_site_fract_y
 _atom_site_fract_z
 _atom_site_occupancy
  Tl  Tl0  1  0.75776250  0.41509250  0.88312900  1
  Tl  Tl1  1  0.24223750  0.41509250  0.61687100  1
  Tl  Tl2  1  0.24223750  0.58490750  0.11687100  1
  Tl  Tl3  1  0.75776250  0.58490750  0.38312900  1
  Tl  Tl4  1  0.93604350  0.21910650  0.60330000  1
  Tl  Tl5  1  0.06395650  0.21910650  0.89670000  1
  Tl  Tl6  1  0.06395650  0.78089350  0.39670000  1
  Tl  Tl7  1  0.93604350  0.78089350  0.10330000  1
  Tl  Tl8  1  0.25776250  0.91509250  0.88312900  1
  Tl  Tl9  1  0.74223750  0.91509250  0.61687100  1
  Tl  Tl10  1  0.74223750  0.08490750  0.11687100  1
  Tl  Tl11  1  0.25776250  0.08490750  0.38312900  1
  Tl  Tl12  1  0.43604350  0.71910650  0.60330000  1
  Tl  Tl13  1  0.56395650  0.71910650  0.89670000  1
  Tl  Tl14  1  0.56395650  0.28089350  0.39670000  1
  Tl  Tl15  1  0.43604350  0.28089350  0.10330000  1
  Ga  Ga16  1  0.10089900  0.81253000  0.66490300  1
  Ga  Ga17  1  0.14474950  0.56399950  0.83602800  1
  Ga  Ga18  1  0.85525050  0.56399950  0.66397200  1
  Ga  Ga19  1  0.85525050  0.43600050  0.16397200  1
  Ga  Ga20  1  0.14474950  0.43600050  0.33602800  1
  Ga  Ga21  1  0.89910100  0.81253000  0.83509700  1
  Ga  Ga22  1  0.89910100  0.18747000  0.33509700  1
  Ga  Ga23  1  0.10089900  0.18747000  0.16490300  1
  Ga  Ga24  1  0.60089900  0.31253000  0.66490300  1
  Ga  Ga25  1  0.64474950  0.06399950  0.83602800  1
  Ga  Ga26  1  0.35525050  0.06399950  0.66397200  1
  Ga  Ga27  1  0.35525050  0.93600050  0.16397200  1
  Ga  Ga28  1  0.64474950  0.93600050  0.33602800  1
  Ga  Ga29  1  0.39910100  0.31253000  0.83509700  1
  Ga  Ga30  1  0.39910100  0.68747000  0.33509700  1
  Ga  Ga31  1  0.60089900  0.68747000  0.16490300  1
  Se  Se32  1  0.25897450  0.31142050  0.25025100  1
  Se  Se33  1  0.74102550  0.31142050  0.24974900  1
  Se  Se34  1  0.74102550  0.68857950  0.74974900  1
  Se  Se35  1  0.05311950  0.69744750  0.93063900  1
  Se  Se36  1  0.25897450  0.68857950  0.75025100  1
  Se  Se37  1  0.05311950  0.30255250  0.43063900  1
  Se  Se38  1  0.94688050  0.30255250  0.06936100  1
  Se  Se39  1  0.94688050  0.69744750  0.56936100  1
  Se  Se40  1  0.00000000  0.04664000  0.25000000  1
  Se  Se41  1  0.00000000  0.95336000  0.75000000  1
  Se  Se42  1  0.00000000  0.57024000  0.25000000  1
  Se  Se43  1  0.00000000  0.42976000  0.75000000  1
  Se  Se44  1  0.71431050  0.57090950  0.07172300  1
  Se  Se45  1  0.28568950  0.57090950  0.42827700  1
  Se  Se46  1  0.28568950  0.42909050  0.92827700  1
  Se  Se47  1  0.71431050  0.42909050  0.57172300  1
  Se  Se48  1  0.75897450  0.81142050  0.25025100  1
  Se  Se49  1  0.24102550  0.81142050  0.24974900  1
  Se  Se50  1  0.24102550  0.18857950  0.74974900  1
  Se  Se51  1  0.55311950  0.19744750  0.93063900  1
  Se  Se52  1  0.75897450  0.18857950  0.75025100  1
  Se  Se53  1  0.55311950  0.80255250  0.43063900  1
  Se  Se54  1  0.44688050  0.80255250  0.06936100  1
  Se  Se55  1  0.44688050  0.19744750  0.56936100  1
  Se  Se56  1  0.50000000  0.54664000  0.25000000  1
  Se  Se57  1  0.50000000  0.45336000  0.75000000  1
  Se  Se58  1  0.50000000  0.07024000  0.25000000  1
  Se  Se59  1  0.50000000  0.92976000  0.75000000  1
  Se  Se60  1  0.21431050  0.07090950  0.07172300  1
  Se  Se61  1  0.78568950  0.07090950  0.42827700  1
  Se  Se62  1  0.78568950  0.92909050  0.92827700  1
  Se  Se63  1  0.21431050  0.92909050  0.57172300  1
