# generated using pymatgen
data_Ho3ScO6
_symmetry_space_group_name_H-M   'P 1'
_cell_length_a   9.46019568
_cell_length_b   9.46019568
_cell_length_c   10.98476547
_cell_angle_alpha   90.00000000
_cell_angle_beta   90.00000000
_cell_angle_gamma   120.00000000
_symmetry_Int_Tables_number   1
_chemical_formula_structural   Ho3ScO6
_chemical_formula_sum   'Ho18 Sc6 O36'
_cell_volume   851.37650327
_cell_formula_units_Z   6
loop_
 _symmetry_equiv_pos_site_id
 _symmetry_equiv_pos_as_xyz
  1  'x, y, z'
loop_
 _atom_site_type_symbol
 _atom_site_label
 _atom_site_symmetry_multiplicity
 _atom_site_fract_x
 _atom_site_fract_y
 _atom_site_fract_z
 _atom_site_occupancy
  Ho  Ho0  1  0.22564433  0.95893267  0.70606367  1
  Ho  Ho1  1  0.73328833  0.77435567  0.70606367  1
  Ho  Ho2  1  0.04106733  0.26671167  0.70606367  1
  Ho  Ho3  1  0.77435567  0.04106733  0.29393633  1
  Ho  Ho4  1  0.26671167  0.22564433  0.29393633  1
  Ho  Ho5  1  0.95893267  0.73328833  0.29393633  1
  Ho  Ho6  1  0.89231100  0.29226600  0.03939700  1
  Ho  Ho7  1  0.39995500  0.10768900  0.03939700  1
  Ho  Ho8  1  0.70773400  0.60004500  0.03939700  1
  Ho  Ho9  1  0.44102233  0.37440067  0.62726967  1
  Ho  Ho10  1  0.93337833  0.55897767  0.62726967  1
  Ho  Ho11  1  0.62559933  0.06662167  0.62726967  1
  Ho  Ho12  1  0.55897767  0.62559933  0.37273033  1
  Ho  Ho13  1  0.06662167  0.44102233  0.37273033  1
  Ho  Ho14  1  0.37440067  0.93337833  0.37273033  1
  Ho  Ho15  1  0.10768900  0.70773400  0.96060300  1
  Ho  Ho16  1  0.60004500  0.89231100  0.96060300  1
  Ho  Ho17  1  0.29226600  0.39995500  0.96060300  1
  Sc  Sc18  1  0.00000000  0.00000000  0.50000000  1
  Sc  Sc19  1  0.00000000  0.00000000  0.00000000  1
  Sc  Sc20  1  0.66666667  0.33333333  0.83333333  1
  Sc  Sc21  1  0.66666667  0.33333333  0.33333333  1
  Sc  Sc22  1  0.33333333  0.66666667  0.16666667  1
  Sc  Sc23  1  0.33333333  0.66666667  0.66666667  1
  O  O24  1  0.84200733  0.02783367  0.62140467  1
  O  O25  1  0.18582633  0.15799267  0.62140467  1
  O  O26  1  0.97216633  0.81417367  0.62140467  1
  O  O27  1  0.15799267  0.97216633  0.37859533  1
  O  O28  1  0.81417367  0.84200733  0.37859533  1
  O  O29  1  0.02783367  0.18582633  0.37859533  1
  O  O30  1  0.48353967  0.36058533  0.43013333  1
  O  O31  1  0.87704567  0.51646033  0.43013333  1
  O  O32  1  0.36058533  0.87704567  0.56986667  1
  O  O33  1  0.12295433  0.48353967  0.56986667  1
  O  O34  1  0.51646033  0.63941467  0.56986667  1
  O  O35  1  0.63941467  0.12295433  0.43013333  1
  O  O36  1  0.50867400  0.36116700  0.95473800  1
  O  O37  1  0.85249300  0.49132600  0.95473800  1
  O  O38  1  0.63883300  0.14750700  0.95473800  1
  O  O39  1  0.82465933  0.30549967  0.71192867  1
  O  O40  1  0.48084033  0.17534067  0.71192867  1
  O  O41  1  0.69450033  0.51915967  0.71192867  1
  O  O42  1  0.15020633  0.69391867  0.76346667  1
  O  O43  1  0.54371233  0.84979367  0.76346667  1
  O  O44  1  0.02725200  0.21037900  0.90320000  1
  O  O45  1  0.78962100  0.81687300  0.90320000  1
  O  O46  1  0.18312700  0.97274800  0.90320000  1
  O  O47  1  0.30608133  0.45628767  0.76346667  1
  O  O48  1  0.17534067  0.69450033  0.28807133  1
  O  O49  1  0.51915967  0.82465933  0.28807133  1
  O  O50  1  0.30549967  0.48084033  0.28807133  1
  O  O51  1  0.49132600  0.63883300  0.04526200  1
  O  O52  1  0.14750700  0.50867400  0.04526200  1
  O  O53  1  0.36116700  0.85249300  0.04526200  1
  O  O54  1  0.81687300  0.02725200  0.09680000  1
  O  O55  1  0.21037900  0.18312700  0.09680000  1
  O  O56  1  0.69391867  0.54371233  0.23653333  1
  O  O57  1  0.45628767  0.15020633  0.23653333  1
  O  O58  1  0.84979367  0.30608133  0.23653333  1
  O  O59  1  0.97274800  0.78962100  0.09680000  1
