# generated using pymatgen
data_K2TiO3
_symmetry_space_group_name_H-M   'P 1'
_cell_length_a   7.03623000
_cell_length_b   10.19403800
_cell_length_c   5.51337400
_cell_angle_alpha   90.00000000
_cell_angle_beta   90.00000000
_cell_angle_gamma   90.00000000
_symmetry_Int_Tables_number   1
_chemical_formula_structural   K2TiO3
_chemical_formula_sum   'K8 Ti4 O12'
_cell_volume   395.46106285
_cell_formula_units_Z   4
loop_
 _symmetry_equiv_pos_site_id
 _symmetry_equiv_pos_as_xyz
  1  'x, y, z'
loop_
 _atom_site_type_symbol
 _atom_site_label
 _atom_site_symmetry_multiplicity
 _atom_site_fract_x
 _atom_site_fract_y
 _atom_site_fract_z
 _atom_site_occupancy
  K  K0  1  0.64814850  0.16309950  0.25000000  1
  K  K1  1  0.64814850  0.83690050  0.25000000  1
  K  K2  1  0.35185150  0.83690050  0.75000000  1
  K  K3  1  0.35185150  0.16309950  0.75000000  1
  K  K4  1  0.14814850  0.66309950  0.25000000  1
  K  K5  1  0.14814850  0.33690050  0.25000000  1
  K  K6  1  0.85185150  0.33690050  0.75000000  1
  K  K7  1  0.85185150  0.66309950  0.75000000  1
  Ti  Ti8  1  0.91521100  0.00000000  0.75000000  1
  Ti  Ti9  1  0.08478900  0.00000000  0.25000000  1
  Ti  Ti10  1  0.41521100  0.50000000  0.75000000  1
  Ti  Ti11  1  0.58478900  0.50000000  0.25000000  1
  O  O12  1  0.66293800  0.00000000  0.75000000  1
  O  O13  1  0.33706200  0.00000000  0.25000000  1
  O  O14  1  0.50000000  0.37448900  0.50000000  1
  O  O15  1  0.50000000  0.62551100  0.00000000  1
  O  O16  1  0.50000000  0.37448900  0.00000000  1
  O  O17  1  0.50000000  0.62551100  0.50000000  1
  O  O18  1  0.16293800  0.50000000  0.75000000  1
  O  O19  1  0.83706200  0.50000000  0.25000000  1
  O  O20  1  0.00000000  0.87448900  0.50000000  1
  O  O21  1  0.00000000  0.12551100  0.00000000  1
  O  O22  1  0.00000000  0.87448900  0.00000000  1
  O  O23  1  0.00000000  0.12551100  0.50000000  1
