# generated using pymatgen
data_Ca(BO2)2
_symmetry_space_group_name_H-M   'P 1'
_cell_length_a   9.08843900
_cell_length_b   9.08843900
_cell_length_c   9.08843900
_cell_angle_alpha   90.00000000
_cell_angle_beta   90.00000000
_cell_angle_gamma   90.00000000
_symmetry_Int_Tables_number   1
_chemical_formula_structural   Ca(BO2)2
_chemical_formula_sum   'Ca12 B24 O48'
_cell_volume   750.70254805
_cell_formula_units_Z   12
loop_
 _symmetry_equiv_pos_site_id
 _symmetry_equiv_pos_as_xyz
  1  'x, y, z'
loop_
 _atom_site_type_symbol
 _atom_site_label
 _atom_site_symmetry_multiplicity
 _atom_site_fract_x
 _atom_site_fract_y
 _atom_site_fract_z
 _atom_site_occupancy
  Ca  Ca0  1  0.37299400  0.12700600  0.87299400  1
  Ca  Ca1  1  0.12700600  0.87299400  0.37299400  1
  Ca  Ca2  1  0.87299400  0.37299400  0.12700600  1
  Ca  Ca3  1  0.62700600  0.62700600  0.62700600  1
  Ca  Ca4  1  0.62700600  0.87299400  0.12700600  1
  Ca  Ca5  1  0.87299400  0.12700600  0.62700600  1
  Ca  Ca6  1  0.12700600  0.62700600  0.87299400  1
  Ca  Ca7  1  0.37299400  0.37299400  0.37299400  1
  Ca  Ca8  1  0.00000000  0.50000000  0.50000000  1
  Ca  Ca9  1  0.50000000  0.50000000  0.00000000  1
  Ca  Ca10  1  0.50000000  0.00000000  0.50000000  1
  Ca  Ca11  1  0.00000000  0.00000000  0.00000000  1
  B  B12  1  0.81002100  0.84518100  0.38114100  1
  B  B13  1  0.61885900  0.18997900  0.15481900  1
  B  B14  1  0.11885900  0.31002100  0.84518100  1
  B  B15  1  0.38114100  0.68997900  0.34518100  1
  B  B16  1  0.31002100  0.84518100  0.11885900  1
  B  B17  1  0.34518100  0.38114100  0.68997900  1
  B  B18  1  0.84518100  0.11885900  0.31002100  1
  B  B19  1  0.18997900  0.15481900  0.61885900  1
  B  B20  1  0.15481900  0.61885900  0.18997900  1
  B  B21  1  0.68997900  0.34518100  0.38114100  1
  B  B22  1  0.81002100  0.65481900  0.88114100  1
  B  B23  1  0.65481900  0.88114100  0.81002100  1
  B  B24  1  0.11885900  0.18997900  0.34518100  1
  B  B25  1  0.34518100  0.11885900  0.18997900  1
  B  B26  1  0.18997900  0.34518100  0.11885900  1
  B  B27  1  0.31002100  0.65481900  0.61885900  1
  B  B28  1  0.84518100  0.38114100  0.81002100  1
  B  B29  1  0.88114100  0.81002100  0.65481900  1
  B  B30  1  0.15481900  0.88114100  0.68997900  1
  B  B31  1  0.65481900  0.61885900  0.31002100  1
  B  B32  1  0.68997900  0.15481900  0.88114100  1
  B  B33  1  0.61885900  0.31002100  0.65481900  1
  B  B34  1  0.88114100  0.68997900  0.15481900  1
  B  B35  1  0.38114100  0.81002100  0.84518100  1
  O  O36  1  0.59066400  0.28230900  0.49438500  1
  O  O37  1  0.90933600  0.71769100  0.99438500  1
  O  O38  1  0.99438500  0.90933600  0.71769100  1
  O  O39  1  0.71769100  0.99438500  0.90933600  1
  O  O40  1  0.78230900  0.00561500  0.40933600  1
  O  O41  1  0.49438500  0.59066400  0.28230900  1
  O  O42  1  0.28230900  0.49438500  0.59066400  1
  O  O43  1  0.50561500  0.09066400  0.21769100  1
  O  O44  1  0.00561500  0.40933600  0.78230900  1
  O  O45  1  0.21769100  0.50561500  0.09066400  1
  O  O46  1  0.40933600  0.78230900  0.00561500  1
  O  O47  1  0.09066400  0.21769100  0.50561500  1
  O  O48  1  0.33248600  0.26798000  0.12049100  1
  O  O49  1  0.12049100  0.33248600  0.26798000  1
  O  O50  1  0.26798000  0.12049100  0.33248600  1
  O  O51  1  0.23202000  0.87950900  0.83248600  1
  O  O52  1  0.62049100  0.16751400  0.73202000  1
  O  O53  1  0.73202000  0.62049100  0.16751400  1
  O  O54  1  0.37950900  0.66751400  0.76798000  1
  O  O55  1  0.87950900  0.83248600  0.23202000  1
  O  O56  1  0.76798000  0.37950900  0.66751400  1
  O  O57  1  0.83248600  0.23202000  0.87950900  1
  O  O58  1  0.66751400  0.76798000  0.37950900  1
  O  O59  1  0.16751400  0.73202000  0.62049100  1
  O  O60  1  0.66751400  0.73202000  0.87950900  1
  O  O61  1  0.87950900  0.66751400  0.73202000  1
  O  O62  1  0.73202000  0.87950900  0.66751400  1
  O  O63  1  0.76798000  0.12049100  0.16751400  1
  O  O64  1  0.37950900  0.83248600  0.26798000  1
  O  O65  1  0.26798000  0.37950900  0.83248600  1
  O  O66  1  0.62049100  0.33248600  0.23202000  1
  O  O67  1  0.12049100  0.16751400  0.76798000  1
  O  O68  1  0.23202000  0.62049100  0.33248600  1
  O  O69  1  0.16751400  0.76798000  0.12049100  1
  O  O70  1  0.33248600  0.23202000  0.62049100  1
  O  O71  1  0.83248600  0.26798000  0.37950900  1
  O  O72  1  0.09066400  0.28230900  0.00561500  1
  O  O73  1  0.00561500  0.09066400  0.28230900  1
  O  O74  1  0.28230900  0.00561500  0.09066400  1
  O  O75  1  0.40933600  0.71769100  0.50561500  1
  O  O76  1  0.50561500  0.40933600  0.71769100  1
  O  O77  1  0.71769100  0.50561500  0.40933600  1
  O  O78  1  0.49438500  0.90933600  0.78230900  1
  O  O79  1  0.99438500  0.59066400  0.21769100  1
  O  O80  1  0.78230900  0.49438500  0.90933600  1
  O  O81  1  0.59066400  0.21769100  0.99438500  1
  O  O82  1  0.90933600  0.78230900  0.49438500  1
  O  O83  1  0.21769100  0.99438500  0.59066400  1
