# generated using pymatgen
data_ZnCr2O4
_symmetry_space_group_name_H-M   'P 1'
_cell_length_a   8.47887819
_cell_length_b   8.47887819
_cell_length_c   8.47887819
_cell_angle_alpha   90.00000000
_cell_angle_beta   90.00000000
_cell_angle_gamma   90.00000000
_symmetry_Int_Tables_number   1
_chemical_formula_structural   ZnCr2O4
_chemical_formula_sum   'Zn8 Cr16 O32'
_cell_volume   609.55821463
_cell_formula_units_Z   8
loop_
 _symmetry_equiv_pos_site_id
 _symmetry_equiv_pos_as_xyz
  1  'x, y, z'
loop_
 _atom_site_type_symbol
 _atom_site_label
 _atom_site_symmetry_multiplicity
 _atom_site_fract_x
 _atom_site_fract_y
 _atom_site_fract_z
 _atom_site_occupancy
  Zn  Zn0  1  0.25000000  0.25000000  0.75000000  1
  Zn  Zn1  1  0.00000000  0.50000000  0.00000000  1
  Zn  Zn2  1  0.25000000  0.75000000  0.25000000  1
  Zn  Zn3  1  0.00000000  0.00000000  0.50000000  1
  Zn  Zn4  1  0.75000000  0.25000000  0.25000000  1
  Zn  Zn5  1  0.50000000  0.50000000  0.50000000  1
  Zn  Zn6  1  0.75000000  0.75000000  0.75000000  1
  Zn  Zn7  1  0.50000000  0.00000000  0.00000000  1
  Cr  Cr8  1  0.87500000  0.37500000  0.62500000  1
  Cr  Cr9  1  0.87500000  0.12500000  0.87500000  1
  Cr  Cr10  1  0.62500000  0.62500000  0.12500000  1
  Cr  Cr11  1  0.62500000  0.37500000  0.87500000  1
  Cr  Cr12  1  0.87500000  0.87500000  0.12500000  1
  Cr  Cr13  1  0.87500000  0.62500000  0.37500000  1
  Cr  Cr14  1  0.62500000  0.12500000  0.62500000  1
  Cr  Cr15  1  0.62500000  0.87500000  0.37500000  1
  Cr  Cr16  1  0.37500000  0.37500000  0.12500000  1
  Cr  Cr17  1  0.37500000  0.12500000  0.37500000  1
  Cr  Cr18  1  0.12500000  0.62500000  0.62500000  1
  Cr  Cr19  1  0.12500000  0.37500000  0.37500000  1
  Cr  Cr20  1  0.37500000  0.87500000  0.62500000  1
  Cr  Cr21  1  0.37500000  0.62500000  0.87500000  1
  Cr  Cr22  1  0.12500000  0.12500000  0.12500000  1
  Cr  Cr23  1  0.12500000  0.87500000  0.87500000  1
  O  O24  1  0.11366317  0.38633683  0.61366317  1
  O  O25  1  0.63633683  0.13633683  0.86366317  1
  O  O26  1  0.86366317  0.36366317  0.86366317  1
  O  O27  1  0.86366317  0.13633683  0.63633683  1
  O  O28  1  0.38633683  0.38633683  0.88633683  1
  O  O29  1  0.38633683  0.61366317  0.11366317  1
  O  O30  1  0.13633683  0.36366317  0.13633683  1
  O  O31  1  0.61366317  0.61366317  0.88633683  1
  O  O32  1  0.11366317  0.88633683  0.11366317  1
  O  O33  1  0.63633683  0.63633683  0.36366317  1
  O  O34  1  0.86366317  0.86366317  0.36366317  1
  O  O35  1  0.86366317  0.63633683  0.13633683  1
  O  O36  1  0.38633683  0.88633683  0.38633683  1
  O  O37  1  0.38633683  0.11366317  0.61366317  1
  O  O38  1  0.13633683  0.86366317  0.63633683  1
  O  O39  1  0.61366317  0.11366317  0.38633683  1
  O  O40  1  0.61366317  0.38633683  0.11366317  1
  O  O41  1  0.13633683  0.13633683  0.36366317  1
  O  O42  1  0.36366317  0.36366317  0.36366317  1
  O  O43  1  0.36366317  0.13633683  0.13633683  1
  O  O44  1  0.88633683  0.38633683  0.38633683  1
  O  O45  1  0.88633683  0.61366317  0.61366317  1
  O  O46  1  0.63633683  0.36366317  0.63633683  1
  O  O47  1  0.11366317  0.61366317  0.38633683  1
  O  O48  1  0.61366317  0.88633683  0.61366317  1
  O  O49  1  0.13633683  0.63633683  0.86366317  1
  O  O50  1  0.36366317  0.86366317  0.86366317  1
  O  O51  1  0.36366317  0.63633683  0.63633683  1
  O  O52  1  0.88633683  0.88633683  0.88633683  1
  O  O53  1  0.88633683  0.11366317  0.11366317  1
  O  O54  1  0.63633683  0.86366317  0.13633683  1
  O  O55  1  0.11366317  0.11366317  0.88633683  1
