# generated using pymatgen
data_RbV(CuS2)2
_symmetry_space_group_name_H-M   'P 1'
_cell_length_a   5.42580400
_cell_length_b   18.55436400
_cell_length_c   7.48975800
_cell_angle_alpha   90.00000000
_cell_angle_beta   90.00000000
_cell_angle_gamma   90.00000000
_symmetry_Int_Tables_number   1
_chemical_formula_structural   RbV(CuS2)2
_chemical_formula_sum   'Rb4 V4 Cu8 S16'
_cell_volume   754.01148193
_cell_formula_units_Z   4
loop_
 _symmetry_equiv_pos_site_id
 _symmetry_equiv_pos_as_xyz
  1  'x, y, z'
loop_
 _atom_site_type_symbol
 _atom_site_label
 _atom_site_symmetry_multiplicity
 _atom_site_fract_x
 _atom_site_fract_y
 _atom_site_fract_z
 _atom_site_occupancy
  Rb  Rb0  1  0.85846700  0.68281400  0.25000000  1
  Rb  Rb1  1  0.35846700  0.81718600  0.75000000  1
  Rb  Rb2  1  0.35846700  0.18281400  0.25000000  1
  Rb  Rb3  1  0.85846700  0.31718600  0.75000000  1
  V  V4  1  0.60335450  0.89393950  0.25000000  1
  V  V5  1  0.10335450  0.60606050  0.75000000  1
  V  V6  1  0.10335450  0.39393950  0.25000000  1
  V  V7  1  0.60335450  0.10606050  0.75000000  1
  Cu  Cu8  1  0.61881800  0.00000000  0.50000000  1
  Cu  Cu9  1  0.60279600  0.60405300  0.75000000  1
  Cu  Cu10  1  0.10279600  0.89594700  0.25000000  1
  Cu  Cu11  1  0.61881800  0.00000000  0.00000000  1
  Cu  Cu12  1  0.11881800  0.50000000  0.50000000  1
  Cu  Cu13  1  0.10279600  0.10405300  0.75000000  1
  Cu  Cu14  1  0.60279600  0.39594700  0.25000000  1
  Cu  Cu15  1  0.11881800  0.50000000  0.00000000  1
  S  S16  1  0.33741600  0.60579400  0.98955800  1
  S  S17  1  0.37020850  0.99303050  0.25000000  1
  S  S18  1  0.87020850  0.50696950  0.75000000  1
  S  S19  1  0.83741600  0.89420600  0.48955800  1
  S  S20  1  0.36742450  0.79960450  0.25000000  1
  S  S21  1  0.83741600  0.89420600  0.01044200  1
  S  S22  1  0.86742450  0.70039550  0.75000000  1
  S  S23  1  0.33741600  0.60579400  0.51044200  1
  S  S24  1  0.83741600  0.10579400  0.98955800  1
  S  S25  1  0.87020850  0.49303050  0.25000000  1
  S  S26  1  0.37020850  0.00696950  0.75000000  1
  S  S27  1  0.33741600  0.39420600  0.48955800  1
  S  S28  1  0.86742450  0.29960450  0.25000000  1
  S  S29  1  0.33741600  0.39420600  0.01044200  1
  S  S30  1  0.36742450  0.20039550  0.75000000  1
  S  S31  1  0.83741600  0.10579400  0.51044200  1
