# generated using pymatgen
data_KAlCuF6
_symmetry_space_group_name_H-M   'P 1'
_cell_length_a   6.73723000
_cell_length_b   7.15358500
_cell_length_c   9.95376700
_cell_angle_alpha   90.00000000
_cell_angle_beta   90.00000000
_cell_angle_gamma   90.00000000
_symmetry_Int_Tables_number   1
_chemical_formula_structural   KAlCuF6
_chemical_formula_sum   'K4 Al4 Cu4 F24'
_cell_volume   479.72525920
_cell_formula_units_Z   4
loop_
 _symmetry_equiv_pos_site_id
 _symmetry_equiv_pos_as_xyz
  1  'x, y, z'
loop_
 _atom_site_type_symbol
 _atom_site_label
 _atom_site_symmetry_multiplicity
 _atom_site_fract_x
 _atom_site_fract_y
 _atom_site_fract_z
 _atom_site_occupancy
  K  K0  1  0.98728400  0.25000000  0.38064600  1
  K  K1  1  0.51271600  0.75000000  0.88064600  1
  K  K2  1  0.48728400  0.25000000  0.11935400  1
  K  K3  1  0.01271600  0.75000000  0.61935400  1
  Al  Al4  1  0.50000000  0.00000000  0.50000000  1
  Al  Al5  1  0.00000000  0.50000000  0.00000000  1
  Al  Al6  1  0.50000000  0.50000000  0.50000000  1
  Al  Al7  1  0.00000000  0.00000000  0.00000000  1
  Cu  Cu8  1  0.31319800  0.25000000  0.76205500  1
  Cu  Cu9  1  0.68680200  0.75000000  0.23794500  1
  Cu  Cu10  1  0.18680200  0.75000000  0.26205500  1
  Cu  Cu11  1  0.81319800  0.25000000  0.73794500  1
  F  F12  1  0.61552100  0.00747700  0.33414500  1
  F  F13  1  0.11552100  0.49252300  0.16585500  1
  F  F14  1  0.38447900  0.50747700  0.66585500  1
  F  F15  1  0.88447900  0.99252300  0.83414500  1
  F  F16  1  0.38447900  0.99252300  0.66585500  1
  F  F17  1  0.88447900  0.50747700  0.83414500  1
  F  F18  1  0.61552100  0.49252300  0.33414500  1
  F  F19  1  0.11552100  0.00747700  0.16585500  1
  F  F20  1  0.73799300  0.05521400  0.57503000  1
  F  F21  1  0.23799300  0.44478600  0.92497000  1
  F  F22  1  0.26200700  0.55521400  0.42497000  1
  F  F23  1  0.76200700  0.94478600  0.07503000  1
  F  F24  1  0.07215300  0.25000000  0.66363500  1
  F  F25  1  0.57215300  0.25000000  0.83636500  1
  F  F26  1  0.92784700  0.75000000  0.33636500  1
  F  F27  1  0.42784700  0.75000000  0.16363500  1
  F  F28  1  0.43573000  0.25000000  0.48451600  1
  F  F29  1  0.93573000  0.25000000  0.01548400  1
  F  F30  1  0.56427000  0.75000000  0.51548400  1
  F  F31  1  0.06427000  0.75000000  0.98451600  1
  F  F32  1  0.23799300  0.05521400  0.92497000  1
  F  F33  1  0.73799300  0.44478600  0.57503000  1
  F  F34  1  0.76200700  0.55521400  0.07503000  1
  F  F35  1  0.26200700  0.94478600  0.42497000  1
