# generated using pymatgen
data_Na5Y(MoO4)4
_symmetry_space_group_name_H-M   'P 1'
_cell_length_a   11.57575811
_cell_length_b   11.57575811
_cell_length_c   11.57614971
_cell_angle_alpha   90.00000000
_cell_angle_beta   90.00000000
_cell_angle_gamma   90.00000000
_symmetry_Int_Tables_number   1
_chemical_formula_structural   Na5Y(MoO4)4
_chemical_formula_sum   'Na20 Y4 Mo16 O64'
_cell_volume   1551.18294396
_cell_formula_units_Z   4
loop_
 _symmetry_equiv_pos_site_id
 _symmetry_equiv_pos_as_xyz
  1  'x, y, z'
loop_
 _atom_site_type_symbol
 _atom_site_label
 _atom_site_symmetry_multiplicity
 _atom_site_fract_x
 _atom_site_fract_y
 _atom_site_fract_z
 _atom_site_occupancy
  Na  Na0  1  0.50000000  0.00000000  0.25000000  1
  Na  Na1  1  0.00000000  0.00000000  0.50000000  1
  Na  Na2  1  0.70359103  0.37884914  0.71782228  1
  Na  Na3  1  0.12115086  0.70359103  0.46782228  1
  Na  Na4  1  0.87884914  0.29640897  0.46782228  1
  Na  Na5  1  0.79640897  0.12115086  0.21782228  1
  Na  Na6  1  0.79640897  0.62115086  0.03217772  1
  Na  Na7  1  0.37884914  0.29640897  0.28217772  1
  Na  Na8  1  0.62115086  0.70359103  0.28217772  1
  Na  Na9  1  0.70359103  0.87884914  0.53217772  1
  Na  Na10  1  0.00000000  0.50000000  0.75000000  1
  Na  Na11  1  0.50000000  0.50000000  0.00000000  1
  Na  Na12  1  0.20359103  0.87884914  0.21782228  1
  Na  Na13  1  0.62115086  0.20359103  0.96782228  1
  Na  Na14  1  0.37884914  0.79640897  0.96782228  1
  Na  Na15  1  0.29640897  0.62115086  0.71782228  1
  Na  Na16  1  0.29640897  0.12115086  0.53217772  1
  Na  Na17  1  0.87884914  0.79640897  0.78217772  1
  Na  Na18  1  0.12115086  0.20359103  0.78217772  1
  Na  Na19  1  0.20359103  0.37884914  0.03217772  1
  Y  Y20  1  0.50000000  0.50000000  0.50000000  1
  Y  Y21  1  0.00000000  0.50000000  0.25000000  1
  Y  Y22  1  0.00000000  0.00000000  0.00000000  1
  Y  Y23  1  0.50000000  0.00000000  0.75000000  1
  Mo  Mo24  1  0.68088945  0.90619376  0.01382321  1
  Mo  Mo25  1  0.90619376  0.81911055  0.26382321  1
  Mo  Mo26  1  0.59380624  0.68088945  0.76382321  1
  Mo  Mo27  1  0.31911055  0.09380624  0.01382321  1
  Mo  Mo28  1  0.18088945  0.90619376  0.73617679  1
  Mo  Mo29  1  0.59380624  0.18088945  0.48617679  1
  Mo  Mo30  1  0.90619376  0.31911055  0.98617679  1
  Mo  Mo31  1  0.81911055  0.09380624  0.73617679  1
  Mo  Mo32  1  0.18088945  0.40619376  0.51382321  1
  Mo  Mo33  1  0.40619376  0.31911055  0.76382321  1
  Mo  Mo34  1  0.09380624  0.18088945  0.26382321  1
  Mo  Mo35  1  0.81911055  0.59380624  0.51382321  1
  Mo  Mo36  1  0.68088945  0.40619376  0.23617679  1
  Mo  Mo37  1  0.09380624  0.68088945  0.98617679  1
  Mo  Mo38  1  0.40619376  0.81911055  0.48617679  1
  Mo  Mo39  1  0.31911055  0.59380624  0.23617679  1
  O  O40  1  0.82337432  0.21689927  0.64481793  1
  O  O41  1  0.78310073  0.32337432  0.89481793  1
  O  O42  1  0.71689927  0.17662568  0.39481793  1
  O  O43  1  0.17662568  0.78310073  0.64481793  1
  O  O44  1  0.67662568  0.78310073  0.10518207  1
  O  O45  1  0.71689927  0.67662568  0.85518207  1
  O  O46  1  0.78310073  0.82337432  0.35518207  1
  O  O47  1  0.32337432  0.21689927  0.10518207  1
  O  O48  1  0.17939138  0.58333876  0.31005519  1
  O  O49  1  0.91666124  0.17939138  0.06005519  1
  O  O50  1  0.58333876  0.32060862  0.56005519  1
  O  O51  1  0.82060862  0.41666124  0.31005519  1
  O  O52  1  0.32060862  0.41666124  0.43994481  1
  O  O53  1  0.58333876  0.82060862  0.68994481  1
  O  O54  1  0.91666124  0.67939138  0.18994481  1
  O  O55  1  0.67939138  0.58333876  0.43994481  1
  O  O56  1  0.61026231  0.06101445  0.58553965  1
  O  O57  1  0.93898555  0.11026231  0.83553965  1
  O  O58  1  0.56101445  0.38973769  0.33553965  1
  O  O59  1  0.88973769  0.43898555  0.08553965  1
  O  O60  1  0.35201981  0.97051871  0.10203415  1
  O  O61  1  0.02948129  0.85201981  0.35203415  1
  O  O62  1  0.97051871  0.14798019  0.35203415  1
  O  O63  1  0.64798019  0.02948129  0.10203415  1
  O  O64  1  0.14798019  0.02948129  0.64796585  1
  O  O65  1  0.47051870  0.14798019  0.39796585  1
  O  O66  1  0.88973769  0.93898555  0.16446035  1
  O  O67  1  0.85201981  0.97051871  0.64796585  1
  O  O68  1  0.61026231  0.56101445  0.66446035  1
  O  O69  1  0.93898555  0.61026231  0.41446035  1
  O  O70  1  0.56101445  0.88973769  0.91446035  1
  O  O71  1  0.52948129  0.85201981  0.39796585  1
  O  O72  1  0.32337432  0.71689927  0.14481793  1
  O  O73  1  0.28310073  0.82337432  0.39481793  1
  O  O74  1  0.21689927  0.67662568  0.89481793  1
  O  O75  1  0.67662568  0.28310073  0.14481793  1
  O  O76  1  0.17662568  0.28310073  0.60518207  1
  O  O77  1  0.21689927  0.17662568  0.35518207  1
  O  O78  1  0.28310073  0.32337432  0.85518207  1
  O  O79  1  0.82337432  0.71689927  0.60518207  1
  O  O80  1  0.67939138  0.08333876  0.81005519  1
  O  O81  1  0.41666124  0.67939138  0.56005519  1
  O  O82  1  0.08333876  0.82060862  0.06005519  1
  O  O83  1  0.32060862  0.91666124  0.81005519  1
  O  O84  1  0.82060862  0.91666124  0.93994481  1
  O  O85  1  0.08333876  0.32060862  0.18994481  1
  O  O86  1  0.41666124  0.17939138  0.68994481  1
  O  O87  1  0.17939138  0.08333876  0.93994481  1
  O  O88  1  0.11026231  0.56101445  0.08553965  1
  O  O89  1  0.43898555  0.61026231  0.33553965  1
  O  O90  1  0.06101445  0.88973769  0.83553965  1
  O  O91  1  0.38973769  0.93898555  0.58553965  1
  O  O92  1  0.85201981  0.47051870  0.60203415  1
  O  O93  1  0.52948129  0.35201981  0.85203415  1
  O  O94  1  0.47051870  0.64798019  0.85203415  1
  O  O95  1  0.14798019  0.52948129  0.60203415  1
  O  O96  1  0.64798019  0.52948129  0.14796585  1
  O  O97  1  0.97051870  0.64798019  0.89796585  1
  O  O98  1  0.38973769  0.43898555  0.66446035  1
  O  O99  1  0.35201981  0.47051870  0.14796585  1
  O  O100  1  0.11026231  0.06101445  0.16446035  1
  O  O101  1  0.43898555  0.11026231  0.91446035  1
  O  O102  1  0.06101445  0.38973769  0.41446035  1
  O  O103  1  0.02948130  0.35201981  0.89796585  1
