# generated using pymatgen
data_RbTa(CuSe2)2
_symmetry_space_group_name_H-M   'P 1'
_cell_length_a   5.75022600
_cell_length_b   19.68249800
_cell_length_c   7.86322100
_cell_angle_alpha   90.00000000
_cell_angle_beta   90.00000000
_cell_angle_gamma   90.00000000
_symmetry_Int_Tables_number   1
_chemical_formula_structural   RbTa(CuSe2)2
_chemical_formula_sum   'Rb4 Ta4 Cu8 Se16'
_cell_volume   889.95000926
_cell_formula_units_Z   4
loop_
 _symmetry_equiv_pos_site_id
 _symmetry_equiv_pos_as_xyz
  1  'x, y, z'
loop_
 _atom_site_type_symbol
 _atom_site_label
 _atom_site_symmetry_multiplicity
 _atom_site_fract_x
 _atom_site_fract_y
 _atom_site_fract_z
 _atom_site_occupancy
  Rb  Rb0  1  0.30178800  0.81615800  0.25000000  1
  Rb  Rb1  1  0.80178800  0.68384200  0.75000000  1
  Rb  Rb2  1  0.80178800  0.31615800  0.25000000  1
  Rb  Rb3  1  0.30178800  0.18384200  0.75000000  1
  Ta  Ta4  1  0.04462350  0.60602750  0.25000000  1
  Ta  Ta5  1  0.54462350  0.89397250  0.75000000  1
  Ta  Ta6  1  0.54462350  0.10602750  0.25000000  1
  Ta  Ta7  1  0.04462350  0.39397250  0.75000000  1
  Cu  Cu8  1  0.55899200  0.00000000  0.50000000  1
  Cu  Cu9  1  0.55899200  0.00000000  0.00000000  1
  Cu  Cu10  1  0.04408300  0.89575200  0.75000000  1
  Cu  Cu11  1  0.54408300  0.60424800  0.25000000  1
  Cu  Cu12  1  0.05899200  0.50000000  0.50000000  1
  Cu  Cu13  1  0.05899200  0.50000000  0.00000000  1
  Cu  Cu14  1  0.54408300  0.39575200  0.75000000  1
  Cu  Cu15  1  0.04408300  0.10424800  0.25000000  1
  Se  Se16  1  0.79567700  0.70534100  0.25000000  1
  Se  Se17  1  0.29921100  0.99696400  0.75000000  1
  Se  Se18  1  0.79119300  0.89524600  0.00277100  1
  Se  Se19  1  0.29119300  0.60475400  0.99722900  1
  Se  Se20  1  0.79119300  0.89524600  0.49722900  1
  Se  Se21  1  0.29119300  0.60475400  0.50277100  1
  Se  Se22  1  0.79921100  0.50303600  0.25000000  1
  Se  Se23  1  0.29567700  0.79465900  0.75000000  1
  Se  Se24  1  0.29567700  0.20534100  0.25000000  1
  Se  Se25  1  0.79921100  0.49696400  0.75000000  1
  Se  Se26  1  0.29119300  0.39524600  0.00277100  1
  Se  Se27  1  0.79119300  0.10475400  0.99722900  1
  Se  Se28  1  0.29119300  0.39524600  0.49722900  1
  Se  Se29  1  0.79119300  0.10475400  0.50277100  1
  Se  Se30  1  0.29921100  0.00303600  0.25000000  1
  Se  Se31  1  0.79567700  0.29465900  0.75000000  1
