# generated using pymatgen
data_VPO4
_symmetry_space_group_name_H-M   'P 1'
_cell_length_a   5.28950301
_cell_length_b   7.91787900
_cell_length_c   6.47193901
_cell_angle_alpha   90.00000000
_cell_angle_beta   90.00000000
_cell_angle_gamma   90.00000000
_symmetry_Int_Tables_number   1
_chemical_formula_structural   VPO4
_chemical_formula_sum   'V4 P4 O16'
_cell_volume   271.05545040
_cell_formula_units_Z   4
loop_
 _symmetry_equiv_pos_site_id
 _symmetry_equiv_pos_as_xyz
  1  'x, y, z'
loop_
 _atom_site_type_symbol
 _atom_site_label
 _atom_site_symmetry_multiplicity
 _atom_site_fract_x
 _atom_site_fract_y
 _atom_site_fract_z
 _atom_site_occupancy
  V  V0  1  0.50000000  0.00000000  0.00000000  1
  V  V1  1  0.50000000  0.00000000  0.50000000  1
  V  V2  1  0.00000000  0.50000000  0.00000000  1
  V  V3  1  0.00000000  0.50000000  0.50000000  1
  P  P4  1  0.00000000  0.84943800  0.75000000  1
  P  P5  1  0.00000000  0.15056200  0.25000000  1
  P  P6  1  0.50000000  0.34943800  0.75000000  1
  P  P7  1  0.50000000  0.65056200  0.25000000  1
  O  O8  1  0.75634475  0.96433350  0.75000000  1
  O  O9  1  0.75634475  0.03566650  0.25000000  1
  O  O10  1  0.24365525  0.03566650  0.25000000  1
  O  O11  1  0.24365525  0.96433350  0.75000000  1
  O  O12  1  0.00000000  0.74389000  0.94808450  1
  O  O13  1  0.00000000  0.25611000  0.05191550  1
  O  O14  1  0.00000000  0.74389000  0.55191550  1
  O  O15  1  0.00000000  0.25611000  0.44808450  1
  O  O16  1  0.25634475  0.46433350  0.75000000  1
  O  O17  1  0.25634475  0.53566650  0.25000000  1
  O  O18  1  0.74365525  0.53566650  0.25000000  1
  O  O19  1  0.74365525  0.46433350  0.75000000  1
  O  O20  1  0.50000000  0.24389000  0.94808450  1
  O  O21  1  0.50000000  0.75611000  0.05191550  1
  O  O22  1  0.50000000  0.24389000  0.55191550  1
  O  O23  1  0.50000000  0.75611000  0.44808450  1
