# generated using pymatgen
data_Dy4Si2S3O7
_symmetry_space_group_name_H-M   'P 1'
_cell_length_a   11.73509800
_cell_length_b   11.73509800
_cell_length_c   13.69416600
_cell_angle_alpha   90.00000000
_cell_angle_beta   90.00000000
_cell_angle_gamma   90.00000000
_symmetry_Int_Tables_number   1
_chemical_formula_structural   Dy4Si2S3O7
_chemical_formula_sum   'Dy32 Si16 S24 O56'
_cell_volume   1885.85817858
_cell_formula_units_Z   8
loop_
 _symmetry_equiv_pos_site_id
 _symmetry_equiv_pos_as_xyz
  1  'x, y, z'
loop_
 _atom_site_type_symbol
 _atom_site_label
 _atom_site_symmetry_multiplicity
 _atom_site_fract_x
 _atom_site_fract_y
 _atom_site_fract_z
 _atom_site_occupancy
  Dy  Dy0  1  0.67219800  0.17219800  0.25000000  1
  Dy  Dy1  1  0.82780200  0.17219800  0.50000000  1
  Dy  Dy2  1  0.17219800  0.82780200  0.50000000  1
  Dy  Dy3  1  0.32780200  0.82780200  0.25000000  1
  Dy  Dy4  1  0.32780200  0.32780200  0.00000000  1
  Dy  Dy5  1  0.67219800  0.82780200  0.25000000  1
  Dy  Dy6  1  0.32780200  0.17219800  0.25000000  1
  Dy  Dy7  1  0.17219800  0.17219800  0.50000000  1
  Dy  Dy8  1  0.76427850  0.00000000  0.03338350  1
  Dy  Dy9  1  0.23572150  0.00000000  0.03338350  1
  Dy  Dy10  1  0.50000000  0.73572150  0.46661650  1
  Dy  Dy11  1  0.50000000  0.23572150  0.78338350  1
  Dy  Dy12  1  0.00000000  0.26427850  0.28338350  1
  Dy  Dy13  1  0.26427850  0.00000000  0.71661650  1
  Dy  Dy14  1  0.23572150  0.50000000  0.21661650  1
  Dy  Dy15  1  0.50000000  0.26427850  0.46661650  1
  Dy  Dy16  1  0.17219800  0.67219800  0.75000000  1
  Dy  Dy17  1  0.32780200  0.67219800  0.00000000  1
  Dy  Dy18  1  0.67219800  0.32780200  0.00000000  1
  Dy  Dy19  1  0.82780200  0.32780200  0.75000000  1
  Dy  Dy20  1  0.82780200  0.82780200  0.50000000  1
  Dy  Dy21  1  0.17219800  0.32780200  0.75000000  1
  Dy  Dy22  1  0.82780200  0.67219800  0.75000000  1
  Dy  Dy23  1  0.67219800  0.67219800  0.00000000  1
  Dy  Dy24  1  0.26427850  0.50000000  0.53338350  1
  Dy  Dy25  1  0.73572150  0.50000000  0.53338350  1
  Dy  Dy26  1  0.00000000  0.23572150  0.96661650  1
  Dy  Dy27  1  0.00000000  0.73572150  0.28338350  1
  Dy  Dy28  1  0.50000000  0.76427850  0.78338350  1
  Dy  Dy29  1  0.76427850  0.50000000  0.21661650  1
  Dy  Dy30  1  0.73572150  0.00000000  0.71661650  1
  Dy  Dy31  1  0.00000000  0.76427850  0.96661650  1
  Si  Si32  1  0.12505600  0.00000000  0.27895200  1
  Si  Si33  1  0.37494400  0.50000000  0.77895200  1
  Si  Si34  1  0.50000000  0.37494400  0.22104800  1
  Si  Si35  1  0.00000000  0.37494400  0.52895200  1
  Si  Si36  1  0.50000000  0.12505600  0.02895200  1
  Si  Si37  1  0.12505600  0.50000000  0.97104800  1
  Si  Si38  1  0.37494400  0.00000000  0.47104800  1
  Si  Si39  1  0.00000000  0.12505600  0.72104800  1
  Si  Si40  1  0.62505600  0.50000000  0.77895200  1
  Si  Si41  1  0.87494400  0.00000000  0.27895200  1
  Si  Si42  1  0.00000000  0.87494400  0.72104800  1
  Si  Si43  1  0.50000000  0.87494400  0.02895200  1
  Si  Si44  1  0.00000000  0.62505600  0.52895200  1
  Si  Si45  1  0.62505600  0.00000000  0.47104800  1
  Si  Si46  1  0.87494400  0.50000000  0.97104800  1
  Si  Si47  1  0.50000000  0.62505600  0.22104800  1
  S  S48  1  0.00000000  0.00000000  0.50000000  1
  S  S49  1  0.50000000  0.00000000  0.25000000  1
  S  S50  1  0.00000000  0.50000000  0.25000000  1
  S  S51  1  0.00000000  0.00000000  0.00000000  1
  S  S52  1  0.35373350  0.25000000  0.62500000  1
  S  S53  1  0.25000000  0.35373350  0.37500000  1
  S  S54  1  0.25000000  0.14626650  0.87500000  1
  S  S55  1  0.14626650  0.25000000  0.12500000  1
  S  S56  1  0.14626650  0.75000000  0.12500000  1
  S  S57  1  0.75000000  0.14626650  0.87500000  1
  S  S58  1  0.75000000  0.35373350  0.37500000  1
  S  S59  1  0.35373350  0.75000000  0.62500000  1
  S  S60  1  0.50000000  0.50000000  0.00000000  1
  S  S61  1  0.00000000  0.50000000  0.75000000  1
  S  S62  1  0.50000000  0.00000000  0.75000000  1
  S  S63  1  0.50000000  0.50000000  0.50000000  1
  S  S64  1  0.85373350  0.75000000  0.12500000  1
  S  S65  1  0.75000000  0.85373350  0.87500000  1
  S  S66  1  0.75000000  0.64626650  0.37500000  1
  S  S67  1  0.64626650  0.75000000  0.62500000  1
  S  S68  1  0.64626650  0.25000000  0.62500000  1
  S  S69  1  0.25000000  0.64626650  0.37500000  1
  S  S70  1  0.25000000  0.85373350  0.87500000  1
  S  S71  1  0.85373350  0.25000000  0.12500000  1
  O  O72  1  0.00000000  0.00000000  0.77429950  1
  O  O73  1  0.00000000  0.50000000  0.02429950  1
  O  O74  1  0.00000000  0.50000000  0.47570050  1
  O  O75  1  0.00000000  0.00000000  0.22570050  1
  O  O76  1  0.76744350  0.00000000  0.20082350  1
  O  O77  1  0.23255650  0.00000000  0.20082350  1
  O  O78  1  0.50000000  0.73255650  0.29917650  1
  O  O79  1  0.50000000  0.23255650  0.95082350  1
  O  O80  1  0.00000000  0.26744350  0.45082350  1
  O  O81  1  0.26744350  0.00000000  0.54917650  1
  O  O82  1  0.23255650  0.50000000  0.04917650  1
  O  O83  1  0.50000000  0.26744350  0.29917650  1
  O  O84  1  0.14128700  0.37663400  0.91664800  1
  O  O85  1  0.35871300  0.12336600  0.41664800  1
  O  O86  1  0.12336600  0.35871300  0.58335200  1
  O  O87  1  0.37663400  0.35871300  0.16664800  1
  O  O88  1  0.12336600  0.14128700  0.66664800  1
  O  O89  1  0.14128700  0.12336600  0.33335200  1
  O  O90  1  0.35871300  0.37663400  0.83335200  1
  O  O91  1  0.37663400  0.14128700  0.08335200  1
  O  O92  1  0.35871300  0.62336600  0.83335200  1
  O  O93  1  0.14128700  0.87663400  0.33335200  1
  O  O94  1  0.87663400  0.14128700  0.66664800  1
  O  O95  1  0.62336600  0.14128700  0.08335200  1
  O  O96  1  0.87663400  0.35871300  0.58335200  1
  O  O97  1  0.35871300  0.87663400  0.41664800  1
  O  O98  1  0.14128700  0.62336600  0.91664800  1
  O  O99  1  0.62336600  0.35871300  0.16664800  1
  O  O100  1  0.50000000  0.50000000  0.27429950  1
  O  O101  1  0.50000000  0.00000000  0.52429950  1
  O  O102  1  0.50000000  0.00000000  0.97570050  1
  O  O103  1  0.50000000  0.50000000  0.72570050  1
  O  O104  1  0.26744350  0.50000000  0.70082350  1
  O  O105  1  0.73255650  0.50000000  0.70082350  1
  O  O106  1  0.00000000  0.23255650  0.79917650  1
  O  O107  1  0.00000000  0.73255650  0.45082350  1
  O  O108  1  0.50000000  0.76744350  0.95082350  1
  O  O109  1  0.76744350  0.50000000  0.04917650  1
  O  O110  1  0.73255650  0.00000000  0.54917650  1
  O  O111  1  0.00000000  0.76744350  0.79917650  1
  O  O112  1  0.64128700  0.87663400  0.41664800  1
  O  O113  1  0.85871300  0.62336600  0.91664800  1
  O  O114  1  0.62336600  0.85871300  0.08335200  1
  O  O115  1  0.87663400  0.85871300  0.66664800  1
  O  O116  1  0.62336600  0.64128700  0.16664800  1
  O  O117  1  0.64128700  0.62336600  0.83335200  1
  O  O118  1  0.85871300  0.87663400  0.33335200  1
  O  O119  1  0.87663400  0.64128700  0.58335200  1
  O  O120  1  0.85871300  0.12336600  0.33335200  1
  O  O121  1  0.64128700  0.37663400  0.83335200  1
  O  O122  1  0.37663400  0.64128700  0.16664800  1
  O  O123  1  0.12336600  0.64128700  0.58335200  1
  O  O124  1  0.37663400  0.85871300  0.08335200  1
  O  O125  1  0.85871300  0.37663400  0.91664800  1
  O  O126  1  0.64128700  0.12336600  0.41664800  1
  O  O127  1  0.12336600  0.85871300  0.66664800  1
