# generated using pymatgen
data_SiO2
_symmetry_space_group_name_H-M   'P 1'
_cell_length_a   14.09962600
_cell_length_b   5.03445600
_cell_length_c   8.93702179
_cell_angle_alpha   90.00000000
_cell_angle_beta   128.96538493
_cell_angle_gamma   90.00000000
_symmetry_Int_Tables_number   1
_chemical_formula_structural   SiO2
_chemical_formula_sum   'Si12 O24'
_cell_volume   493.25090645
_cell_formula_units_Z   12
loop_
 _symmetry_equiv_pos_site_id
 _symmetry_equiv_pos_as_xyz
  1  'x, y, z'
loop_
 _atom_site_type_symbol
 _atom_site_label
 _atom_site_symmetry_multiplicity
 _atom_site_fract_x
 _atom_site_fract_y
 _atom_site_fract_z
 _atom_site_occupancy
  Si  Si0  1  0.16696750  0.76621650  0.65856700  1
  Si  Si1  1  0.33303250  0.26621650  0.84143300  1
  Si  Si2  1  0.83303250  0.23378350  0.34143300  1
  Si  Si3  1  0.66696750  0.73378350  0.15856700  1
  Si  Si4  1  0.00000000  0.02065900  0.25000000  1
  Si  Si5  1  0.00000000  0.97934100  0.75000000  1
  Si  Si6  1  0.66696750  0.26621650  0.65856700  1
  Si  Si7  1  0.83303250  0.76621650  0.84143300  1
  Si  Si8  1  0.33303250  0.73378350  0.34143300  1
  Si  Si9  1  0.16696750  0.23378350  0.15856700  1
  Si  Si10  1  0.50000000  0.52065900  0.25000000  1
  Si  Si11  1  0.50000000  0.47934100  0.75000000  1
  O  O12  1  0.92883100  0.20957300  0.29818400  1
  O  O13  1  0.07116900  0.20957300  0.20181600  1
  O  O14  1  0.07116900  0.79042700  0.70181600  1
  O  O15  1  0.92883100  0.79042700  0.79818400  1
  O  O16  1  0.09831700  0.83271600  0.43362800  1
  O  O17  1  0.90168300  0.83271600  0.06637200  1
  O  O18  1  0.78347300  0.53754000  0.29983500  1
  O  O19  1  0.71652700  0.03754000  0.20016500  1
  O  O20  1  0.21652700  0.46246000  0.70016500  1
  O  O21  1  0.28347300  0.96246000  0.79983500  1
  O  O22  1  0.09831700  0.16728400  0.93362800  1
  O  O23  1  0.90168300  0.16728400  0.56637200  1
  O  O24  1  0.42883100  0.70957300  0.29818400  1
  O  O25  1  0.57116900  0.70957300  0.20181600  1
  O  O26  1  0.57116900  0.29042700  0.70181600  1
  O  O27  1  0.42883100  0.29042700  0.79818400  1
  O  O28  1  0.59831700  0.33271600  0.43362800  1
  O  O29  1  0.40168300  0.33271600  0.06637200  1
  O  O30  1  0.28347300  0.03754000  0.29983500  1
  O  O31  1  0.21652700  0.53754000  0.20016500  1
  O  O32  1  0.71652700  0.96246000  0.70016500  1
  O  O33  1  0.78347300  0.46246000  0.79983500  1
  O  O34  1  0.59831700  0.66728400  0.93362800  1
  O  O35  1  0.40168300  0.66728400  0.56637200  1
