# generated using pymatgen
data_UCoO4
_symmetry_space_group_name_H-M   'P 1'
_cell_length_a   6.58494000
_cell_length_b   6.59594800
_cell_length_c   7.00001600
_cell_angle_alpha   90.00000000
_cell_angle_beta   90.00000000
_cell_angle_gamma   90.00000000
_symmetry_Int_Tables_number   1
_chemical_formula_structural   UCoO4
_chemical_formula_sum   'U4 Co4 O16'
_cell_volume   304.03814770
_cell_formula_units_Z   4
loop_
 _symmetry_equiv_pos_site_id
 _symmetry_equiv_pos_as_xyz
  1  'x, y, z'
loop_
 _atom_site_type_symbol
 _atom_site_label
 _atom_site_symmetry_multiplicity
 _atom_site_fract_x
 _atom_site_fract_y
 _atom_site_fract_z
 _atom_site_occupancy
  U  U0  1  0.02316500  0.00000000  0.25000000  1
  U  U1  1  0.47683500  0.50000000  0.25000000  1
  U  U2  1  0.52316500  0.50000000  0.75000000  1
  U  U3  1  0.97683500  0.00000000  0.75000000  1
  Co  Co4  1  0.00000000  0.50000000  0.00000000  1
  Co  Co5  1  0.50000000  0.00000000  0.00000000  1
  Co  Co6  1  0.50000000  0.00000000  0.50000000  1
  Co  Co7  1  0.00000000  0.50000000  0.50000000  1
  O  O8  1  0.80590000  0.00000000  0.01700900  1
  O  O9  1  0.30590000  0.50000000  0.98299100  1
  O  O10  1  0.69410000  0.50000000  0.48299100  1
  O  O11  1  0.19410000  0.00000000  0.51700900  1
  O  O12  1  0.02225500  0.70100900  0.25000000  1
  O  O13  1  0.02225500  0.29899100  0.25000000  1
  O  O14  1  0.47774500  0.20100900  0.25000000  1
  O  O15  1  0.47774500  0.79899100  0.25000000  1
  O  O16  1  0.30590000  0.50000000  0.51700900  1
  O  O17  1  0.80590000  0.00000000  0.48299100  1
  O  O18  1  0.19410000  0.00000000  0.98299100  1
  O  O19  1  0.69410000  0.50000000  0.01700900  1
  O  O20  1  0.52225500  0.20100900  0.75000000  1
  O  O21  1  0.52225500  0.79899100  0.75000000  1
  O  O22  1  0.97774500  0.70100900  0.75000000  1
  O  O23  1  0.97774500  0.29899100  0.75000000  1
