# generated using pymatgen
data_Cs4KLiGa2F12
_symmetry_space_group_name_H-M   'P 1'
_cell_length_a   6.43429577
_cell_length_b   6.43429577
_cell_length_c   31.24137513
_cell_angle_alpha   90.00000000
_cell_angle_beta   90.00000000
_cell_angle_gamma   120.00000000
_symmetry_Int_Tables_number   1
_chemical_formula_structural   Cs4KLiGa2F12
_chemical_formula_sum   'Cs12 K3 Li3 Ga6 F36'
_cell_volume   1120.11551966
_cell_formula_units_Z   3
loop_
 _symmetry_equiv_pos_site_id
 _symmetry_equiv_pos_as_xyz
  1  'x, y, z'
loop_
 _atom_site_type_symbol
 _atom_site_label
 _atom_site_symmetry_multiplicity
 _atom_site_fract_x
 _atom_site_fract_y
 _atom_site_fract_z
 _atom_site_occupancy
  Cs  Cs0  1  0.00000000  0.00000000  0.28555800  1
  Cs  Cs1  1  0.66666667  0.33333333  0.04777533  1
  Cs  Cs2  1  0.66666667  0.33333333  0.20033433  1
  Cs  Cs3  1  0.00000000  0.00000000  0.13299900  1
  Cs  Cs4  1  0.66666667  0.33333333  0.61889133  1
  Cs  Cs5  1  0.33333333  0.66666667  0.38110867  1
  Cs  Cs6  1  0.33333333  0.66666667  0.53366767  1
  Cs  Cs7  1  0.66666667  0.33333333  0.46633233  1
  Cs  Cs8  1  0.33333333  0.66666667  0.95222467  1
  Cs  Cs9  1  0.00000000  0.00000000  0.71444200  1
  Cs  Cs10  1  0.00000000  0.00000000  0.86700100  1
  Cs  Cs11  1  0.33333333  0.66666667  0.79966567  1
  K  K12  1  0.00000000  0.00000000  0.00000000  1
  K  K13  1  0.66666667  0.33333333  0.33333333  1
  K  K14  1  0.33333333  0.66666667  0.66666667  1
  Li  Li15  1  0.33333333  0.66666667  0.16666667  1
  Li  Li16  1  1.00000000  1.00000000  0.50000000  1
  Li  Li17  1  0.66666667  0.33333333  0.83333333  1
  Ga  Ga18  1  0.33333333  0.66666667  0.08230267  1
  Ga  Ga19  1  0.33333333  0.66666667  0.25103067  1
  Ga  Ga20  1  0.00000000  0.00000000  0.41563600  1
  Ga  Ga21  1  0.00000000  0.00000000  0.58436400  1
  Ga  Ga22  1  0.66666667  0.33333333  0.74896933  1
  Ga  Ga23  1  0.66666667  0.33333333  0.91769733  1
  F  F24  1  0.47622700  0.95245400  0.28489700  1
  F  F25  1  0.61912067  0.80956033  0.04843633  1
  F  F26  1  0.04754600  0.52377300  0.28489700  1
  F  F27  1  0.47622700  0.52377300  0.28489700  1
  F  F28  1  0.19043967  0.80956033  0.04843633  1
  F  F29  1  0.19043967  0.38087933  0.04843633  1
  F  F30  1  0.19667567  0.80332433  0.21141033  1
  F  F31  1  0.46999100  0.93998200  0.12192300  1
  F  F32  1  0.46999100  0.53000900  0.12192300  1
  F  F33  1  0.06001800  0.53000900  0.12192300  1
  F  F34  1  0.60664867  0.80332433  0.21141033  1
  F  F35  1  0.19667567  0.39335133  0.21141033  1
  F  F36  1  0.14289367  0.28578733  0.61823033  1
  F  F37  1  0.28578733  0.14289367  0.38176967  1
  F  F38  1  0.71421267  0.85710633  0.61823033  1
  F  F39  1  0.14289367  0.85710633  0.61823033  1
  F  F40  1  0.85710633  0.14289367  0.38176967  1
  F  F41  1  0.85710633  0.71421267  0.38176967  1
  F  F42  1  0.86334233  0.13665767  0.54474367  1
  F  F43  1  0.13665767  0.27331533  0.45525633  1
  F  F44  1  0.13665767  0.86334233  0.45525633  1
  F  F45  1  0.72668467  0.86334233  0.45525633  1
  F  F46  1  0.27331533  0.13665767  0.54474367  1
  F  F47  1  0.86334233  0.72668467  0.54474367  1
  F  F48  1  0.80956033  0.61912067  0.95156367  1
  F  F49  1  0.95245400  0.47622700  0.71510300  1
  F  F50  1  0.38087933  0.19043967  0.95156367  1
  F  F51  1  0.80956033  0.19043967  0.95156367  1
  F  F52  1  0.52377300  0.47622700  0.71510300  1
  F  F53  1  0.52377300  0.04754600  0.71510300  1
  F  F54  1  0.53000900  0.46999100  0.87807700  1
  F  F55  1  0.80332433  0.60664867  0.78858967  1
  F  F56  1  0.80332433  0.19667567  0.78858967  1
  F  F57  1  0.39335133  0.19667567  0.78858967  1
  F  F58  1  0.93998200  0.46999100  0.87807700  1
  F  F59  1  0.53000900  0.06001800  0.87807700  1
