# generated using pymatgen
data_ZnPbF6
_symmetry_space_group_name_H-M   'P 1'
_cell_length_a   5.37785559
_cell_length_b   5.37785559
_cell_length_c   14.45184432
_cell_angle_alpha   90.00000000
_cell_angle_beta   90.00000000
_cell_angle_gamma   120.00000000
_symmetry_Int_Tables_number   1
_chemical_formula_structural   ZnPbF6
_chemical_formula_sum   'Zn3 Pb3 F18'
_cell_volume   361.96966700
_cell_formula_units_Z   3
loop_
 _symmetry_equiv_pos_site_id
 _symmetry_equiv_pos_as_xyz
  1  'x, y, z'
loop_
 _atom_site_type_symbol
 _atom_site_label
 _atom_site_symmetry_multiplicity
 _atom_site_fract_x
 _atom_site_fract_y
 _atom_site_fract_z
 _atom_site_occupancy
  Zn  Zn0  1  0.00000000  0.00000000  0.00000000  1
  Zn  Zn1  1  0.66666667  0.33333333  0.33333333  1
  Zn  Zn2  1  0.33333333  0.66666667  0.66666667  1
  Pb  Pb3  1  0.33333333  0.66666667  0.16666667  1
  Pb  Pb4  1  1.00000000  0.00000000  0.50000000  1
  Pb  Pb5  1  0.66666667  0.33333333  0.83333333  1
  F  F6  1  0.99386200  0.36868400  0.25122200  1
  F  F7  1  0.37482200  0.00613800  0.25122200  1
  F  F8  1  0.03535067  0.70815533  0.08211133  1
  F  F9  1  0.29184467  0.32719533  0.08211133  1
  F  F10  1  0.67280467  0.96464933  0.08211133  1
  F  F11  1  0.63131600  0.62517800  0.25122200  1
  F  F12  1  0.66052867  0.70201733  0.58455533  1
  F  F13  1  0.04148867  0.33947133  0.58455533  1
  F  F14  1  0.70201733  0.04148867  0.41544467  1
  F  F15  1  0.95851133  0.66052867  0.41544467  1
  F  F16  1  0.33947133  0.29798267  0.41544467  1
  F  F17  1  0.29798267  0.95851133  0.58455533  1
  F  F18  1  0.32719533  0.03535067  0.91788867  1
  F  F19  1  0.70815533  0.67280467  0.91788867  1
  F  F20  1  0.36868400  0.37482200  0.74877800  1
  F  F21  1  0.62517800  0.99386200  0.74877800  1
  F  F22  1  0.00613800  0.63131600  0.74877800  1
  F  F23  1  0.96464933  0.29184467  0.91788867  1
