# generated using pymatgen
data_Ne
_symmetry_space_group_name_H-M   'P 1'
_cell_length_a   4.30382600
_cell_length_b   4.30382600
_cell_length_c   4.30382600
_cell_angle_alpha   90.00000000
_cell_angle_beta   90.00000000
_cell_angle_gamma   90.00000000
_symmetry_Int_Tables_number   1
_chemical_formula_structural   Ne
_chemical_formula_sum   Ne4
_cell_volume   79.71941711
_cell_formula_units_Z   4
loop_
 _symmetry_equiv_pos_site_id
 _symmetry_equiv_pos_as_xyz
  1  'x, y, z'
loop_
 _atom_site_type_symbol
 _atom_site_label
 _atom_site_symmetry_multiplicity
 _atom_site_fract_x
 _atom_site_fract_y
 _atom_site_fract_z
 _atom_site_occupancy
  Ne  Ne0  1  0.00000000  0.00000000  0.00000000  1
  Ne  Ne1  1  0.00000000  0.50000000  0.50000000  1
  Ne  Ne2  1  0.50000000  0.00000000  0.50000000  1
  Ne  Ne3  1  0.50000000  0.50000000  0.00000000  1
