# generated using pymatgen
data_Ba3W2O9
_symmetry_space_group_name_H-M   'P 1'
_cell_length_a   10.31769548
_cell_length_b   10.31769548
_cell_length_c   14.33142072
_cell_angle_alpha   90.00000000
_cell_angle_beta   90.00000000
_cell_angle_gamma   120.00000000
_symmetry_Int_Tables_number   1
_chemical_formula_structural   Ba3W2O9
_chemical_formula_sum   'Ba18 W12 O54'
_cell_volume   1321.25087848
_cell_formula_units_Z   6
loop_
 _symmetry_equiv_pos_site_id
 _symmetry_equiv_pos_as_xyz
  1  'x, y, z'
loop_
 _atom_site_type_symbol
 _atom_site_label
 _atom_site_symmetry_multiplicity
 _atom_site_fract_x
 _atom_site_fract_y
 _atom_site_fract_z
 _atom_site_occupancy
  Ba  Ba0  1  0.67009000  0.67009000  0.25000000  1
  Ba  Ba1  1  0.00000000  0.32991000  0.25000000  1
  Ba  Ba2  1  0.32991000  0.00000000  0.25000000  1
  Ba  Ba3  1  0.99657667  0.66324333  0.08333333  1
  Ba  Ba4  1  0.33675667  0.33333333  0.08333333  1
  Ba  Ba5  1  0.66666667  0.00342333  0.08333333  1
  Ba  Ba6  1  0.33675667  0.00342333  0.58333333  1
  Ba  Ba7  1  0.66666667  0.66324333  0.58333333  1
  Ba  Ba8  1  0.99657667  0.33333333  0.58333333  1
  Ba  Ba9  1  0.66324333  0.99657667  0.41666667  1
  Ba  Ba10  1  0.00342333  0.66666667  0.41666667  1
  Ba  Ba11  1  0.33333333  0.33675667  0.41666667  1
  Ba  Ba12  1  0.00342333  0.33675667  0.91666667  1
  Ba  Ba13  1  0.33333333  0.99657667  0.91666667  1
  Ba  Ba14  1  0.66324333  0.66666667  0.91666667  1
  Ba  Ba15  1  0.32991000  0.32991000  0.75000000  1
  Ba  Ba16  1  0.67009000  0.00000000  0.75000000  1
  Ba  Ba17  1  0.00000000  0.67009000  0.75000000  1
  W  W18  1  0.33333333  0.66666667  0.81315167  1
  W  W19  1  0.33333333  0.66666667  0.02018167  1
  W  W20  1  0.33333333  0.66666667  0.52018167  1
  W  W21  1  0.33333333  0.66666667  0.31315167  1
  W  W22  1  0.00000000  0.00000000  0.14648500  1
  W  W23  1  1.00000000  0.00000000  0.35351500  1
  W  W24  1  0.00000000  0.00000000  0.85351500  1
  W  W25  1  0.00000000  0.00000000  0.64648500  1
  W  W26  1  0.66666667  0.33333333  0.47981833  1
  W  W27  1  0.66666667  0.33333333  0.68684833  1
  W  W28  1  0.66666667  0.33333333  0.18684833  1
  W  W29  1  0.66666667  0.33333333  0.97981833  1
  O  O30  1  0.83917833  0.83694467  0.09035767  1
  O  O31  1  0.16305533  0.00223367  0.09035767  1
  O  O32  1  0.99776633  0.16082167  0.09035767  1
  O  O33  1  0.33556700  0.82972200  0.07630900  1
  O  O34  1  0.17027800  0.50584500  0.07630900  1
  O  O35  1  0.49415500  0.66443300  0.07630900  1
  O  O36  1  0.82748833  0.49638867  0.24297567  1
  O  O37  1  0.50361133  0.33109967  0.24297567  1
  O  O38  1  0.66890033  0.17251167  0.24297567  1
  O  O39  1  0.33109967  0.50361133  0.25702433  1
  O  O40  1  0.47825133  0.81158467  0.91666667  1
  O  O41  1  0.33333333  0.52174867  0.91666667  1
  O  O42  1  0.18841533  0.66666667  0.91666667  1
  O  O43  1  0.18841533  0.52174867  0.41666667  1
  O  O44  1  0.33333333  0.81158467  0.41666667  1
  O  O45  1  0.47825133  0.66666667  0.41666667  1
  O  O46  1  0.17251167  0.66890033  0.25702433  1
  O  O47  1  0.49638867  0.82748833  0.25702433  1
  O  O48  1  0.50584500  0.17027800  0.42369100  1
  O  O49  1  0.82972200  0.33556700  0.42369100  1
  O  O50  1  0.66443300  0.49415500  0.42369100  1
  O  O51  1  0.00223367  0.16305533  0.40964233  1
  O  O52  1  0.83694467  0.83917833  0.40964233  1
  O  O53  1  0.16082167  0.99776633  0.40964233  1
  O  O54  1  0.49415500  0.82972200  0.57630900  1
  O  O55  1  0.17027800  0.66443300  0.57630900  1
  O  O56  1  0.33556700  0.50584500  0.57630900  1
  O  O57  1  0.99776633  0.83694467  0.59035767  1
  O  O58  1  0.14491800  0.14491800  0.25000000  1
  O  O59  1  0.00000000  0.85508200  0.25000000  1
  O  O60  1  0.85508200  0.00000000  0.25000000  1
  O  O61  1  0.85508200  0.85508200  0.75000000  1
  O  O62  1  0.00000000  0.14491800  0.75000000  1
  O  O63  1  0.14491800  0.00000000  0.75000000  1
  O  O64  1  0.83917833  0.00223367  0.59035767  1
  O  O65  1  0.16305533  0.16082167  0.59035767  1
  O  O66  1  0.17251167  0.50361133  0.75702433  1
  O  O67  1  0.49638867  0.66890033  0.75702433  1
  O  O68  1  0.33109967  0.82748833  0.75702433  1
  O  O69  1  0.66890033  0.49638867  0.74297567  1
  O  O70  1  0.50361133  0.17251167  0.74297567  1
  O  O71  1  0.82748833  0.33109967  0.74297567  1
  O  O72  1  0.16082167  0.16305533  0.90964233  1
  O  O73  1  0.83694467  0.99776633  0.90964233  1
  O  O74  1  0.00223367  0.83917833  0.90964233  1
  O  O75  1  0.66443300  0.17027800  0.92369100  1
  O  O76  1  0.81158467  0.47825133  0.58333333  1
  O  O77  1  0.66666667  0.18841533  0.58333333  1
  O  O78  1  0.52174867  0.33333333  0.58333333  1
  O  O79  1  0.52174867  0.18841533  0.08333333  1
  O  O80  1  0.66666667  0.47825133  0.08333333  1
  O  O81  1  0.81158467  0.33333333  0.08333333  1
  O  O82  1  0.50584500  0.33556700  0.92369100  1
  O  O83  1  0.82972200  0.49415500  0.92369100  1
