# generated using pymatgen
data_KLaS2
_symmetry_space_group_name_H-M   'P 1'
_cell_length_a   4.29915158
_cell_length_b   4.29915158
_cell_length_c   22.09081405
_cell_angle_alpha   90.00000000
_cell_angle_beta   90.00000000
_cell_angle_gamma   120.00000000
_symmetry_Int_Tables_number   1
_chemical_formula_structural   KLaS2
_chemical_formula_sum   'K3 La3 S6'
_cell_volume   353.59642669
_cell_formula_units_Z   3
loop_
 _symmetry_equiv_pos_site_id
 _symmetry_equiv_pos_as_xyz
  1  'x, y, z'
loop_
 _atom_site_type_symbol
 _atom_site_label
 _atom_site_symmetry_multiplicity
 _atom_site_fract_x
 _atom_site_fract_y
 _atom_site_fract_z
 _atom_site_occupancy
  K  K0  1  0.33333333  0.66666667  0.16666667  1
  K  K1  1  1.00000000  1.00000000  0.50000000  1
  K  K2  1  0.66666667  0.33333333  0.83333333  1
  La  La3  1  0.00000000  0.00000000  0.00000000  1
  La  La4  1  0.66666667  0.33333333  0.33333333  1
  La  La5  1  0.33333333  0.66666667  0.66666667  1
  S  S6  1  0.66666667  0.33333333  0.06914433  1
  S  S7  1  0.00000000  0.00000000  0.26418900  1
  S  S8  1  0.33333333  0.66666667  0.40247767  1
  S  S9  1  0.66666667  0.33333333  0.59752233  1
  S  S10  1  0.00000000  0.00000000  0.73581100  1
  S  S11  1  0.33333333  0.66666667  0.93085567  1
