# generated using pymatgen
data_LaCrO3
_symmetry_space_group_name_H-M   'P 1'
_cell_length_a   5.56133300
_cell_length_b   5.60806500
_cell_length_c   7.87916600
_cell_angle_alpha   90.00000000
_cell_angle_beta   90.00000000
_cell_angle_gamma   90.00000000
_symmetry_Int_Tables_number   1
_chemical_formula_structural   LaCrO3
_chemical_formula_sum   'La4 Cr4 O12'
_cell_volume   245.73792652
_cell_formula_units_Z   4
loop_
 _symmetry_equiv_pos_site_id
 _symmetry_equiv_pos_as_xyz
  1  'x, y, z'
loop_
 _atom_site_type_symbol
 _atom_site_label
 _atom_site_symmetry_multiplicity
 _atom_site_fract_x
 _atom_site_fract_y
 _atom_site_fract_z
 _atom_site_occupancy
  La  La0  1  0.50806200  0.46251150  0.25000000  1
  La  La1  1  0.99193800  0.96251150  0.25000000  1
  La  La2  1  0.00806200  0.03748850  0.75000000  1
  La  La3  1  0.49193800  0.53748850  0.75000000  1
  Cr  Cr4  1  0.50000000  0.00000000  0.00000000  1
  Cr  Cr5  1  0.00000000  0.50000000  0.50000000  1
  Cr  Cr6  1  0.00000000  0.50000000  0.00000000  1
  Cr  Cr7  1  0.50000000  0.00000000  0.50000000  1
  O  O8  1  0.57956300  0.98148550  0.75000000  1
  O  O9  1  0.92043700  0.48148550  0.75000000  1
  O  O10  1  0.07956300  0.51851450  0.25000000  1
  O  O11  1  0.42043700  0.01851450  0.25000000  1
  O  O12  1  0.21216300  0.78753950  0.95753550  1
  O  O13  1  0.28783700  0.28753950  0.54246450  1
  O  O14  1  0.71216300  0.71246050  0.04246450  1
  O  O15  1  0.78783700  0.21246050  0.45753550  1
  O  O16  1  0.78783700  0.21246050  0.04246450  1
  O  O17  1  0.71216300  0.71246050  0.45753550  1
  O  O18  1  0.28783700  0.28753950  0.95753550  1
  O  O19  1  0.21216300  0.78753950  0.54246450  1
