# generated using pymatgen
data_LiMnPO4
_symmetry_space_group_name_H-M   'P 1'
_cell_length_a   4.79202900
_cell_length_b   6.17859100
_cell_length_c   10.59418400
_cell_angle_alpha   90.00000000
_cell_angle_beta   90.00000000
_cell_angle_gamma   90.00000000
_symmetry_Int_Tables_number   1
_chemical_formula_structural   LiMnPO4
_chemical_formula_sum   'Li4 Mn4 P4 O16'
_cell_volume   313.67246481
_cell_formula_units_Z   4
loop_
 _symmetry_equiv_pos_site_id
 _symmetry_equiv_pos_as_xyz
  1  'x, y, z'
loop_
 _atom_site_type_symbol
 _atom_site_label
 _atom_site_symmetry_multiplicity
 _atom_site_fract_x
 _atom_site_fract_y
 _atom_site_fract_z
 _atom_site_occupancy
  Li  Li0  1  0.50000000  0.50000000  0.50000000  1
  Li  Li1  1  0.00000000  0.00000000  0.00000000  1
  Li  Li2  1  0.50000000  0.00000000  0.50000000  1
  Li  Li3  1  0.00000000  0.50000000  0.00000000  1
  Mn  Mn4  1  0.47255000  0.75000000  0.78116100  1
  Mn  Mn5  1  0.02745000  0.75000000  0.28116100  1
  Mn  Mn6  1  0.52745000  0.25000000  0.21883900  1
  Mn  Mn7  1  0.97255000  0.25000000  0.71883900  1
  P  P8  1  0.08956000  0.25000000  0.40789900  1
  P  P9  1  0.41044000  0.25000000  0.90789900  1
  P  P10  1  0.91044000  0.75000000  0.59210100  1
  P  P11  1  0.58956000  0.75000000  0.09210100  1
  O  O12  1  0.76865300  0.25000000  0.40341300  1
  O  O13  1  0.73134700  0.25000000  0.90341300  1
  O  O14  1  0.23134700  0.75000000  0.59658700  1
  O  O15  1  0.26865300  0.75000000  0.09658700  1
  O  O16  1  0.28997600  0.25000000  0.04434800  1
  O  O17  1  0.21002400  0.25000000  0.54434800  1
  O  O18  1  0.71002400  0.75000000  0.95565200  1
  O  O19  1  0.78997600  0.75000000  0.45565200  1
  O  O20  1  0.22252700  0.45054350  0.33891600  1
  O  O21  1  0.27747300  0.04945650  0.83891600  1
  O  O22  1  0.77747300  0.95054350  0.66108400  1
  O  O23  1  0.72252700  0.54945650  0.16108400  1
  O  O24  1  0.77747300  0.54945650  0.66108400  1
  O  O25  1  0.72252700  0.95054350  0.16108400  1
  O  O26  1  0.22252700  0.04945650  0.33891600  1
  O  O27  1  0.27747300  0.45054350  0.83891600  1
