# generated using pymatgen
data_VSO5
_symmetry_space_group_name_H-M   'P 1'
_cell_length_a   6.37552700
_cell_length_b   6.37552700
_cell_length_c   4.18995200
_cell_angle_alpha   90.00000000
_cell_angle_beta   90.00000000
_cell_angle_gamma   90.00000000
_symmetry_Int_Tables_number   1
_chemical_formula_structural   VSO5
_chemical_formula_sum   'V2 S2 O10'
_cell_volume   170.31042250
_cell_formula_units_Z   2
loop_
 _symmetry_equiv_pos_site_id
 _symmetry_equiv_pos_as_xyz
  1  'x, y, z'
loop_
 _atom_site_type_symbol
 _atom_site_label
 _atom_site_symmetry_multiplicity
 _atom_site_fract_x
 _atom_site_fract_y
 _atom_site_fract_z
 _atom_site_occupancy
  V  V0  1  0.00000000  0.50000000  0.61555500  1
  V  V1  1  0.50000000  0.00000000  0.38444500  1
  S  S2  1  0.00000000  0.00000000  0.50000000  1
  S  S3  1  0.50000000  0.50000000  0.50000000  1
  O  O4  1  0.50000000  0.00000000  0.77426500  1
  O  O5  1  0.00000000  0.50000000  0.22573500  1
  O  O6  1  0.48345400  0.31281400  0.29030500  1
  O  O7  1  0.18718600  0.98345400  0.29030500  1
  O  O8  1  0.81281400  0.01654600  0.29030500  1
  O  O9  1  0.51654600  0.68718600  0.29030500  1
  O  O10  1  0.98345400  0.81281400  0.70969500  1
  O  O11  1  0.68718600  0.48345400  0.70969500  1
  O  O12  1  0.31281400  0.51654600  0.70969500  1
  O  O13  1  0.01654600  0.18718600  0.70969500  1
