# generated using pymatgen
data_Al4Co(BO5)2
_symmetry_space_group_name_H-M   'P 1'
_cell_length_a   7.26860400
_cell_length_b   4.39910000
_cell_length_c   9.61798244
_cell_angle_alpha   90.00000000
_cell_angle_beta   108.43614128
_cell_angle_gamma   90.00000000
_symmetry_Int_Tables_number   1
_chemical_formula_structural   Al4Co(BO5)2
_chemical_formula_sum   'Al8 Co2 B4 O20'
_cell_volume   291.75416509
_cell_formula_units_Z   2
loop_
 _symmetry_equiv_pos_site_id
 _symmetry_equiv_pos_as_xyz
  1  'x, y, z'
loop_
 _atom_site_type_symbol
 _atom_site_label
 _atom_site_symmetry_multiplicity
 _atom_site_fract_x
 _atom_site_fract_y
 _atom_site_fract_z
 _atom_site_occupancy
  Al  Al0  1  0.70322200  0.47841900  0.33191900  1
  Al  Al1  1  0.29677800  0.52158100  0.66808100  1
  Al  Al2  1  0.07489900  0.99438300  0.39132800  1
  Al  Al3  1  0.92510100  0.00561700  0.60867200  1
  Al  Al4  1  0.92510100  0.49438300  0.10867200  1
  Al  Al5  1  0.07489900  0.50561700  0.89132800  1
  Al  Al6  1  0.29677800  0.97841900  0.16808100  1
  Al  Al7  1  0.70322200  0.02158100  0.83191900  1
  Co  Co8  1  0.50000000  0.00000000  0.50000000  1
  Co  Co9  1  0.50000000  0.50000000  0.00000000  1
  B  B10  1  0.29113100  0.42877800  0.35125600  1
  B  B11  1  0.70886900  0.57122200  0.64874400  1
  B  B12  1  0.29113100  0.07122200  0.85125600  1
  B  B13  1  0.70886900  0.92877800  0.14874400  1
  O  O14  1  0.71889400  0.25813000  0.15565800  1
  O  O15  1  0.45868400  0.29143100  0.31501400  1
  O  O16  1  0.71889400  0.24187000  0.65565800  1
  O  O17  1  0.88728200  0.21533800  0.43864100  1
  O  O18  1  0.28822800  0.30101100  0.49562300  1
  O  O19  1  0.45868400  0.20856900  0.81501400  1
  O  O20  1  0.11271800  0.78466200  0.56135900  1
  O  O21  1  0.28110600  0.74187000  0.84434200  1
  O  O22  1  0.11271800  0.71533800  0.06135900  1
  O  O23  1  0.88728200  0.28466200  0.93864100  1
  O  O24  1  0.54131600  0.70856900  0.68498600  1
  O  O25  1  0.71177200  0.80101100  0.00437700  1
  O  O26  1  0.12081200  0.24254300  0.74305000  1
  O  O27  1  0.28110600  0.75813000  0.34434200  1
  O  O28  1  0.54131600  0.79143100  0.18498600  1
  O  O29  1  0.28822800  0.19898900  0.99562300  1
  O  O30  1  0.87918800  0.74254300  0.75695000  1
  O  O31  1  0.12081200  0.25745700  0.24305000  1
  O  O32  1  0.71177200  0.69898900  0.50437700  1
  O  O33  1  0.87918800  0.75745700  0.25695000  1
