# generated using pymatgen
data_Mn(PtO2)3
_symmetry_space_group_name_H-M   'P 1'
_cell_length_a   7.22883372
_cell_length_b   10.14128916
_cell_length_c   3.24220612
_cell_angle_alpha   90.00000000
_cell_angle_beta   90.00000000
_cell_angle_gamma   90.00000000
_symmetry_Int_Tables_number   1
_chemical_formula_structural   Mn(PtO2)3
_chemical_formula_sum   'Mn2 Pt6 O12'
_cell_volume   237.68513544
_cell_formula_units_Z   2
loop_
 _symmetry_equiv_pos_site_id
 _symmetry_equiv_pos_as_xyz
  1  'x, y, z'
loop_
 _atom_site_type_symbol
 _atom_site_label
 _atom_site_symmetry_multiplicity
 _atom_site_fract_x
 _atom_site_fract_y
 _atom_site_fract_z
 _atom_site_occupancy
  Mn  Mn0  1  0.00000000  0.00000000  0.00000000  1
  Mn  Mn1  1  0.50000000  0.50000000  0.00000000  1
  Pt  Pt2  1  0.50000000  0.00000000  0.00000000  1
  Pt  Pt3  1  0.75000000  0.25000000  0.50000000  1
  Pt  Pt4  1  0.75000000  0.75000000  0.50000000  1
  Pt  Pt5  1  0.00000000  0.50000000  0.00000000  1
  Pt  Pt6  1  0.25000000  0.75000000  0.50000000  1
  Pt  Pt7  1  0.25000000  0.25000000  0.50000000  1
  O  O8  1  0.28933823  0.12771306  0.00000000  1
  O  O9  1  0.71066177  0.87228694  0.00000000  1
  O  O10  1  0.28933823  0.87228694  0.00000000  1
  O  O11  1  0.71066177  0.12771306  0.00000000  1
  O  O12  1  0.00000000  0.84776648  0.50000000  1
  O  O13  1  0.00000000  0.15223352  0.50000000  1
  O  O14  1  0.78933823  0.62771306  0.00000000  1
  O  O15  1  0.21066177  0.37228694  0.00000000  1
  O  O16  1  0.78933823  0.37228694  0.00000000  1
  O  O17  1  0.21066177  0.62771306  0.00000000  1
  O  O18  1  0.50000000  0.34776648  0.50000000  1
  O  O19  1  0.50000000  0.65223352  0.50000000  1
