# generated using pymatgen
data_Na2WO4
_symmetry_space_group_name_H-M   'P 1'
_cell_length_a   9.28102400
_cell_length_b   9.28102400
_cell_length_c   9.28102400
_cell_angle_alpha   90.00000000
_cell_angle_beta   90.00000000
_cell_angle_gamma   90.00000000
_symmetry_Int_Tables_number   1
_chemical_formula_structural   Na2WO4
_chemical_formula_sum   'Na16 W8 O32'
_cell_volume   799.44333692
_cell_formula_units_Z   8
loop_
 _symmetry_equiv_pos_site_id
 _symmetry_equiv_pos_as_xyz
  1  'x, y, z'
loop_
 _atom_site_type_symbol
 _atom_site_label
 _atom_site_symmetry_multiplicity
 _atom_site_fract_x
 _atom_site_fract_y
 _atom_site_fract_z
 _atom_site_occupancy
  Na  Na0  1  0.12500000  0.62500000  0.12500000  1
  Na  Na1  1  0.12500000  0.87500000  0.37500000  1
  Na  Na2  1  0.37500000  0.87500000  0.12500000  1
  Na  Na3  1  0.37500000  0.62500000  0.37500000  1
  Na  Na4  1  0.12500000  0.12500000  0.62500000  1
  Na  Na5  1  0.12500000  0.37500000  0.87500000  1
  Na  Na6  1  0.37500000  0.37500000  0.62500000  1
  Na  Na7  1  0.37500000  0.12500000  0.87500000  1
  Na  Na8  1  0.62500000  0.62500000  0.62500000  1
  Na  Na9  1  0.62500000  0.87500000  0.87500000  1
  Na  Na10  1  0.87500000  0.87500000  0.62500000  1
  Na  Na11  1  0.87500000  0.62500000  0.87500000  1
  Na  Na12  1  0.62500000  0.12500000  0.12500000  1
  Na  Na13  1  0.62500000  0.37500000  0.37500000  1
  Na  Na14  1  0.87500000  0.37500000  0.12500000  1
  Na  Na15  1  0.87500000  0.12500000  0.37500000  1
  W  W16  1  0.50000000  0.00000000  0.50000000  1
  W  W17  1  0.25000000  0.25000000  0.25000000  1
  W  W18  1  0.50000000  0.50000000  0.00000000  1
  W  W19  1  0.25000000  0.75000000  0.75000000  1
  W  W20  1  0.00000000  0.00000000  0.00000000  1
  W  W21  1  0.75000000  0.25000000  0.75000000  1
  W  W22  1  0.00000000  0.50000000  0.50000000  1
  W  W23  1  0.75000000  0.75000000  0.25000000  1
  O  O24  1  0.13655067  0.36344933  0.13655067  1
  O  O25  1  0.61344933  0.11344933  0.38655067  1
  O  O26  1  0.38655067  0.88655067  0.38655067  1
  O  O27  1  0.88655067  0.11344933  0.11344933  1
  O  O28  1  0.36344933  0.36344933  0.36344933  1
  O  O29  1  0.36344933  0.13655067  0.13655067  1
  O  O30  1  0.11344933  0.88655067  0.11344933  1
  O  O31  1  0.13655067  0.13655067  0.36344933  1
  O  O32  1  0.13655067  0.86344933  0.63655067  1
  O  O33  1  0.61344933  0.61344933  0.88655067  1
  O  O34  1  0.38655067  0.38655067  0.88655067  1
  O  O35  1  0.88655067  0.61344933  0.61344933  1
  O  O36  1  0.36344933  0.86344933  0.86344933  1
  O  O37  1  0.36344933  0.63655067  0.63655067  1
  O  O38  1  0.11344933  0.38655067  0.61344933  1
  O  O39  1  0.13655067  0.63655067  0.86344933  1
  O  O40  1  0.63655067  0.36344933  0.63655067  1
  O  O41  1  0.11344933  0.11344933  0.88655067  1
  O  O42  1  0.88655067  0.88655067  0.88655067  1
  O  O43  1  0.38655067  0.11344933  0.61344933  1
  O  O44  1  0.86344933  0.36344933  0.86344933  1
  O  O45  1  0.86344933  0.13655067  0.63655067  1
  O  O46  1  0.61344933  0.88655067  0.61344933  1
  O  O47  1  0.63655067  0.13655067  0.86344933  1
  O  O48  1  0.63655067  0.86344933  0.13655067  1
  O  O49  1  0.11344933  0.61344933  0.38655067  1
  O  O50  1  0.88655067  0.38655067  0.38655067  1
  O  O51  1  0.38655067  0.61344933  0.11344933  1
  O  O52  1  0.86344933  0.86344933  0.36344933  1
  O  O53  1  0.86344933  0.63655067  0.13655067  1
  O  O54  1  0.61344933  0.38655067  0.11344933  1
  O  O55  1  0.63655067  0.63655067  0.36344933  1
