# generated using pymatgen
data_Sr2Mg(BO3)2
_symmetry_space_group_name_H-M   'P 1'
_cell_length_a   9.13028000
_cell_length_b   5.19387600
_cell_length_c   6.19853982
_cell_angle_alpha   90.00000000
_cell_angle_beta   118.73798113
_cell_angle_gamma   90.00000000
_symmetry_Int_Tables_number   1
_chemical_formula_structural   Sr2Mg(BO3)2
_chemical_formula_sum   'Sr4 Mg2 B4 O12'
_cell_volume   257.73850017
_cell_formula_units_Z   2
loop_
 _symmetry_equiv_pos_site_id
 _symmetry_equiv_pos_as_xyz
  1  'x, y, z'
loop_
 _atom_site_type_symbol
 _atom_site_label
 _atom_site_symmetry_multiplicity
 _atom_site_fract_x
 _atom_site_fract_y
 _atom_site_fract_z
 _atom_site_occupancy
  Sr  Sr0  1  0.29068100  0.00000000  0.81473700  1
  Sr  Sr1  1  0.20931900  0.50000000  0.18526300  1
  Sr  Sr2  1  0.79068100  0.50000000  0.81473700  1
  Sr  Sr3  1  0.70931900  0.00000000  0.18526300  1
  Mg  Mg4  1  0.00000000  0.50000000  0.50000000  1
  Mg  Mg5  1  0.50000000  0.00000000  0.50000000  1
  B  B6  1  0.06235200  0.00000000  0.26448000  1
  B  B7  1  0.43764800  0.50000000  0.73552000  1
  B  B8  1  0.56235200  0.50000000  0.26448000  1
  B  B9  1  0.93764800  0.00000000  0.73552000  1
  O  O10  1  0.23130200  0.00000000  0.33871300  1
  O  O11  1  0.02442450  0.76898650  0.76828100  1
  O  O12  1  0.47557550  0.26898650  0.23171900  1
  O  O13  1  0.47557550  0.73101350  0.23171900  1
  O  O14  1  0.02442450  0.23101350  0.76828100  1
  O  O15  1  0.26869800  0.50000000  0.66128700  1
  O  O16  1  0.73130200  0.50000000  0.33871300  1
  O  O17  1  0.52442450  0.26898650  0.76828100  1
  O  O18  1  0.97557550  0.76898650  0.23171900  1
  O  O19  1  0.97557550  0.23101350  0.23171900  1
  O  O20  1  0.52442450  0.73101350  0.76828100  1
  O  O21  1  0.76869800  0.00000000  0.66128700  1
