# generated using pymatgen
data_Na7(CoO3)2
_symmetry_space_group_name_H-M   'P 1'
_cell_length_a   14.67905200
_cell_length_b   5.83985000
_cell_length_c   10.64175307
_cell_angle_alpha   90.00000000
_cell_angle_beta   105.02444684
_cell_angle_gamma   90.00000000
_symmetry_Int_Tables_number   1
_chemical_formula_structural   Na7(CoO3)2
_chemical_formula_sum   'Na28 Co8 O24'
_cell_volume   881.06299746
_cell_formula_units_Z   4
loop_
 _symmetry_equiv_pos_site_id
 _symmetry_equiv_pos_as_xyz
  1  'x, y, z'
loop_
 _atom_site_type_symbol
 _atom_site_label
 _atom_site_symmetry_multiplicity
 _atom_site_fract_x
 _atom_site_fract_y
 _atom_site_fract_z
 _atom_site_occupancy
  Na  Na0  1  0.83292350  0.40590050  0.09467300  1
  Na  Na1  1  0.72383350  0.53395450  0.80599900  1
  Na  Na2  1  0.56018350  0.86298050  0.65077400  1
  Na  Na3  1  0.66707650  0.09409950  0.90532700  1
  Na  Na4  1  0.56018350  0.13701950  0.15077400  1
  Na  Na5  1  0.00000000  0.92858600  0.75000000  1
  Na  Na6  1  0.77616650  0.96604550  0.19400100  1
  Na  Na7  1  0.77616650  0.03395450  0.69400100  1
  Na  Na8  1  0.00000000  0.07141400  0.25000000  1
  Na  Na9  1  0.66707650  0.90590050  0.40532700  1
  Na  Na10  1  0.72383350  0.46604550  0.30599900  1
  Na  Na11  1  0.93981650  0.36298050  0.84922600  1
  Na  Na12  1  0.93981650  0.63701950  0.34922600  1
  Na  Na13  1  0.83292350  0.59409950  0.59467300  1
  Na  Na14  1  0.33292350  0.90590050  0.09467300  1
  Na  Na15  1  0.22383350  0.03395450  0.80599900  1
  Na  Na16  1  0.06018350  0.36298050  0.65077400  1
  Na  Na17  1  0.16707650  0.59409950  0.90532700  1
  Na  Na18  1  0.06018350  0.63701950  0.15077400  1
  Na  Na19  1  0.50000000  0.42858600  0.75000000  1
  Na  Na20  1  0.27616650  0.46604550  0.19400100  1
  Na  Na21  1  0.27616650  0.53395450  0.69400100  1
  Na  Na22  1  0.50000000  0.57141400  0.25000000  1
  Na  Na23  1  0.16707650  0.40590050  0.40532700  1
  Na  Na24  1  0.22383350  0.96604550  0.30599900  1
  Na  Na25  1  0.43981650  0.86298050  0.84922600  1
  Na  Na26  1  0.43981650  0.13701950  0.34922600  1
  Na  Na27  1  0.33292350  0.09409950  0.59467300  1
  Co  Co28  1  0.62410300  0.38371700  0.53926500  1
  Co  Co29  1  0.62410300  0.61628300  0.03926500  1
  Co  Co30  1  0.87589700  0.88371700  0.96073500  1
  Co  Co31  1  0.87589700  0.11628300  0.46073500  1
  Co  Co32  1  0.12410300  0.88371700  0.53926500  1
  Co  Co33  1  0.12410300  0.11628300  0.03926500  1
  Co  Co34  1  0.37589700  0.38371700  0.96073500  1
  Co  Co35  1  0.37589700  0.61628300  0.46073500  1
  O  O36  1  0.87937150  0.72645650  0.81264600  1
  O  O37  1  0.90427950  0.76789150  0.12397700  1
  O  O38  1  0.62062850  0.77354350  0.18735400  1
  O  O39  1  0.82660000  0.83041900  0.41922300  1
  O  O40  1  0.87937150  0.27354350  0.31264600  1
  O  O41  1  0.59572050  0.26789150  0.37602300  1
  O  O42  1  0.90427950  0.23210850  0.62397700  1
  O  O43  1  0.59572050  0.73210850  0.87602300  1
  O  O44  1  0.62062850  0.22645650  0.68735400  1
  O  O45  1  0.67340000  0.66958100  0.58077700  1
  O  O46  1  0.82660000  0.16958100  0.91922300  1
  O  O47  1  0.67340000  0.33041900  0.08077700  1
  O  O48  1  0.37937150  0.22645650  0.81264600  1
  O  O49  1  0.40427950  0.26789150  0.12397700  1
  O  O50  1  0.12062850  0.27354350  0.18735400  1
  O  O51  1  0.32660000  0.33041900  0.41922300  1
  O  O52  1  0.37937150  0.77354350  0.31264600  1
  O  O53  1  0.09572050  0.76789150  0.37602300  1
  O  O54  1  0.40427950  0.73210850  0.62397700  1
  O  O55  1  0.09572050  0.23210850  0.87602300  1
  O  O56  1  0.12062850  0.72645650  0.68735400  1
  O  O57  1  0.17340000  0.16958100  0.58077700  1
  O  O58  1  0.32660000  0.66958100  0.91922300  1
  O  O59  1  0.17340000  0.83041900  0.08077700  1
