# generated using pymatgen
data_CsPrZnTe3
_symmetry_space_group_name_H-M   'P 1'
_cell_length_a   4.54921000
_cell_length_b   17.34035200
_cell_length_c   12.11741700
_cell_angle_alpha   90.00000000
_cell_angle_beta   90.00000000
_cell_angle_gamma   90.00000000
_symmetry_Int_Tables_number   1
_chemical_formula_structural   CsPrZnTe3
_chemical_formula_sum   'Cs4 Pr4 Zn4 Te12'
_cell_volume   955.88126129
_cell_formula_units_Z   4
loop_
 _symmetry_equiv_pos_site_id
 _symmetry_equiv_pos_as_xyz
  1  'x, y, z'
loop_
 _atom_site_type_symbol
 _atom_site_label
 _atom_site_symmetry_multiplicity
 _atom_site_fract_x
 _atom_site_fract_y
 _atom_site_fract_z
 _atom_site_occupancy
  Cs  Cs0  1  0.50000000  0.24647400  0.25000000  1
  Cs  Cs1  1  0.00000000  0.25352600  0.75000000  1
  Cs  Cs2  1  0.00000000  0.74647400  0.25000000  1
  Cs  Cs3  1  0.50000000  0.75352600  0.75000000  1
  Pr  Pr4  1  0.00000000  0.00000000  0.50000000  1
  Pr  Pr5  1  0.00000000  0.00000000  0.00000000  1
  Pr  Pr6  1  0.50000000  0.50000000  0.50000000  1
  Pr  Pr7  1  0.50000000  0.50000000  0.00000000  1
  Zn  Zn8  1  0.00000000  0.46498800  0.25000000  1
  Zn  Zn9  1  0.50000000  0.03501200  0.75000000  1
  Zn  Zn10  1  0.50000000  0.96498800  0.25000000  1
  Zn  Zn11  1  0.00000000  0.53501200  0.75000000  1
  Te  Te12  1  0.00000000  0.37878200  0.06704400  1
  Te  Te13  1  0.50000000  0.12121800  0.93295600  1
  Te  Te14  1  0.50000000  0.43926500  0.75000000  1
  Te  Te15  1  0.00000000  0.06073500  0.25000000  1
  Te  Te16  1  0.00000000  0.37878200  0.43295600  1
  Te  Te17  1  0.50000000  0.12121800  0.56704400  1
  Te  Te18  1  0.50000000  0.87878200  0.06704400  1
  Te  Te19  1  0.00000000  0.62121800  0.93295600  1
  Te  Te20  1  0.00000000  0.93926500  0.75000000  1
  Te  Te21  1  0.50000000  0.56073500  0.25000000  1
  Te  Te22  1  0.50000000  0.87878200  0.43295600  1
  Te  Te23  1  0.00000000  0.62121800  0.56704400  1
