# generated using pymatgen
data_K3Na2SnP3
_symmetry_space_group_name_H-M   'P 1'
_cell_length_a   6.71315400
_cell_length_b   20.11971000
_cell_length_c   15.15119100
_cell_angle_alpha   90.00000000
_cell_angle_beta   90.00000000
_cell_angle_gamma   90.00000000
_symmetry_Int_Tables_number   1
_chemical_formula_structural   K3Na2SnP3
_chemical_formula_sum   'K24 Na16 Sn8 P24'
_cell_volume   2046.42154618
_cell_formula_units_Z   8
loop_
 _symmetry_equiv_pos_site_id
 _symmetry_equiv_pos_as_xyz
  1  'x, y, z'
loop_
 _atom_site_type_symbol
 _atom_site_label
 _atom_site_symmetry_multiplicity
 _atom_site_fract_x
 _atom_site_fract_y
 _atom_site_fract_z
 _atom_site_occupancy
  K  K0  1  0.73027300  0.16697900  0.67680900  1
  K  K1  1  0.25913400  0.00000000  0.68003200  1
  K  K2  1  0.75913400  0.00000000  0.81996800  1
  K  K3  1  0.24086600  0.00000000  0.18003200  1
  K  K4  1  0.73027300  0.33302100  0.82319100  1
  K  K5  1  0.26972700  0.16697900  0.32319100  1
  K  K6  1  0.26972700  0.33302100  0.17680900  1
  K  K7  1  0.76972700  0.16697900  0.17680900  1
  K  K8  1  0.76972700  0.33302100  0.32319100  1
  K  K9  1  0.23027300  0.33302100  0.67680900  1
  K  K10  1  0.23027300  0.16697900  0.82319100  1
  K  K11  1  0.74086600  0.00000000  0.31996800  1
  K  K12  1  0.23027300  0.66697900  0.67680900  1
  K  K13  1  0.75913400  0.50000000  0.68003200  1
  K  K14  1  0.25913400  0.50000000  0.81996800  1
  K  K15  1  0.74086600  0.50000000  0.18003200  1
  K  K16  1  0.23027300  0.83302100  0.82319100  1
  K  K17  1  0.76972700  0.66697900  0.32319100  1
  K  K18  1  0.76972700  0.83302100  0.17680900  1
  K  K19  1  0.26972700  0.66697900  0.17680900  1
  K  K20  1  0.26972700  0.83302100  0.32319100  1
  K  K21  1  0.73027300  0.83302100  0.67680900  1
  K  K22  1  0.73027300  0.66697900  0.82319100  1
  K  K23  1  0.24086600  0.50000000  0.31996800  1
  Na  Na24  1  0.00000000  0.08082500  0.00000000  1
  Na  Na25  1  0.00000000  0.41917500  0.50000000  1
  Na  Na26  1  0.50000000  0.41917500  0.00000000  1
  Na  Na27  1  0.50000000  0.08082500  0.50000000  1
  Na  Na28  1  0.00000000  0.24480700  0.00000000  1
  Na  Na29  1  0.00000000  0.25519300  0.50000000  1
  Na  Na30  1  0.50000000  0.25519300  0.00000000  1
  Na  Na31  1  0.50000000  0.24480700  0.50000000  1
  Na  Na32  1  0.50000000  0.58082500  0.00000000  1
  Na  Na33  1  0.50000000  0.91917500  0.50000000  1
  Na  Na34  1  0.00000000  0.91917500  0.00000000  1
  Na  Na35  1  0.00000000  0.58082500  0.50000000  1
  Na  Na36  1  0.50000000  0.74480700  0.00000000  1
  Na  Na37  1  0.50000000  0.75519300  0.50000000  1
  Na  Na38  1  0.00000000  0.75519300  0.00000000  1
  Na  Na39  1  0.00000000  0.74480700  0.50000000  1
  Sn  Sn40  1  0.50000000  0.41185000  0.50000000  1
  Sn  Sn41  1  0.50000000  0.08815000  0.00000000  1
  Sn  Sn42  1  0.00000000  0.08815000  0.50000000  1
  Sn  Sn43  1  0.00000000  0.41185000  0.00000000  1
  Sn  Sn44  1  0.00000000  0.91185000  0.50000000  1
  Sn  Sn45  1  0.00000000  0.58815000  0.00000000  1
  Sn  Sn46  1  0.50000000  0.58815000  0.50000000  1
  Sn  Sn47  1  0.50000000  0.91185000  0.00000000  1
  P  P48  1  0.78077300  0.34226100  0.10357600  1
  P  P49  1  0.21922700  0.34226100  0.89642400  1
  P  P50  1  0.21922700  0.15773900  0.60357600  1
  P  P51  1  0.71922700  0.34226100  0.60357600  1
  P  P52  1  0.71922700  0.15773900  0.89642400  1
  P  P53  1  0.28077300  0.15773900  0.10357600  1
  P  P54  1  0.28077300  0.34226100  0.39642400  1
  P  P55  1  0.79662400  0.00000000  0.59243900  1
  P  P56  1  0.29662400  0.00000000  0.90756100  1
  P  P57  1  0.70337600  0.00000000  0.09243900  1
  P  P58  1  0.78077300  0.15773900  0.39642400  1
  P  P59  1  0.20337600  0.00000000  0.40756100  1
  P  P60  1  0.28077300  0.84226100  0.10357600  1
  P  P61  1  0.71922700  0.84226100  0.89642400  1
  P  P62  1  0.71922700  0.65773900  0.60357600  1
  P  P63  1  0.21922700  0.84226100  0.60357600  1
  P  P64  1  0.21922700  0.65773900  0.89642400  1
  P  P65  1  0.78077300  0.65773900  0.10357600  1
  P  P66  1  0.78077300  0.84226100  0.39642400  1
  P  P67  1  0.29662400  0.50000000  0.59243900  1
  P  P68  1  0.79662400  0.50000000  0.90756100  1
  P  P69  1  0.20337600  0.50000000  0.09243900  1
  P  P70  1  0.28077300  0.65773900  0.39642400  1
  P  P71  1  0.70337600  0.50000000  0.40756100  1
