# generated using pymatgen
data_Na2LiY(Si2O5)3
_symmetry_space_group_name_H-M   'P 1'
_cell_length_a   14.80380600
_cell_length_b   17.72539400
_cell_length_c   10.48056900
_cell_angle_alpha   90.00000000
_cell_angle_beta   90.00000000
_cell_angle_gamma   90.00000000
_symmetry_Int_Tables_number   1
_chemical_formula_structural   Na2LiY(Si2O5)3
_chemical_formula_sum   'Na16 Li8 Y8 Si48 O120'
_cell_volume   2750.13582911
_cell_formula_units_Z   8
loop_
 _symmetry_equiv_pos_site_id
 _symmetry_equiv_pos_as_xyz
  1  'x, y, z'
loop_
 _atom_site_type_symbol
 _atom_site_label
 _atom_site_symmetry_multiplicity
 _atom_site_fract_x
 _atom_site_fract_y
 _atom_site_fract_z
 _atom_site_occupancy
  Na  Na0  1  0.50000000  0.92150500  0.25642700  1
  Na  Na1  1  0.50000000  0.57849500  0.75642700  1
  Na  Na2  1  0.50000000  0.07849500  0.74357300  1
  Na  Na3  1  0.50000000  0.42150500  0.24357300  1
  Na  Na4  1  0.25000000  0.21764700  0.25000000  1
  Na  Na5  1  0.25000000  0.78235300  0.75000000  1
  Na  Na6  1  0.75000000  0.78235300  0.75000000  1
  Na  Na7  1  0.75000000  0.21764700  0.25000000  1
  Na  Na8  1  0.00000000  0.42150500  0.25642700  1
  Na  Na9  1  0.00000000  0.07849500  0.75642700  1
  Na  Na10  1  0.00000000  0.57849500  0.74357300  1
  Na  Na11  1  0.00000000  0.92150500  0.24357300  1
  Na  Na12  1  0.75000000  0.71764700  0.25000000  1
  Na  Na13  1  0.75000000  0.28235300  0.75000000  1
  Na  Na14  1  0.25000000  0.28235300  0.75000000  1
  Na  Na15  1  0.25000000  0.71764700  0.25000000  1
  Li  Li16  1  0.24477800  0.00000000  0.00000000  1
  Li  Li17  1  0.74477800  0.00000000  0.50000000  1
  Li  Li18  1  0.75522200  0.00000000  0.00000000  1
  Li  Li19  1  0.25522200  0.00000000  0.50000000  1
  Li  Li20  1  0.74477800  0.50000000  0.00000000  1
  Li  Li21  1  0.24477800  0.50000000  0.50000000  1
  Li  Li22  1  0.25522200  0.50000000  0.00000000  1
  Li  Li23  1  0.75522200  0.50000000  0.50000000  1
  Y  Y24  1  0.25000000  0.91110800  0.25000000  1
  Y  Y25  1  0.25000000  0.08889200  0.75000000  1
  Y  Y26  1  0.75000000  0.08889200  0.75000000  1
  Y  Y27  1  0.75000000  0.91110800  0.25000000  1
  Y  Y28  1  0.75000000  0.41110800  0.25000000  1
  Y  Y29  1  0.75000000  0.58889200  0.75000000  1
  Y  Y30  1  0.25000000  0.58889200  0.75000000  1
  Y  Y31  1  0.25000000  0.41110800  0.25000000  1
  Si  Si32  1  0.39407200  0.62580400  0.47705300  1
  Si  Si33  1  0.60914150  0.07828550  0.31435000  1
  Si  Si34  1  0.89085850  0.07828550  0.18565000  1
  Si  Si35  1  0.60914150  0.92171450  0.68565000  1
  Si  Si36  1  0.10914150  0.07828550  0.18565000  1
  Si  Si37  1  0.39085850  0.92171450  0.68565000  1
  Si  Si38  1  0.10914150  0.92171450  0.81435000  1
  Si  Si39  1  0.39085850  0.07828550  0.31435000  1
  Si  Si40  1  0.39407200  0.37419600  0.52294700  1
  Si  Si41  1  0.60592800  0.12580400  0.02294700  1
  Si  Si42  1  0.89085850  0.92171450  0.81435000  1
  Si  Si43  1  0.60592800  0.87419600  0.97705300  1
  Si  Si44  1  0.60592800  0.62580400  0.47705300  1
  Si  Si45  1  0.39407200  0.87419600  0.97705300  1
  Si  Si46  1  0.60584450  0.69610550  0.96012700  1
  Si  Si47  1  0.39407200  0.12580400  0.02294700  1
  Si  Si48  1  0.39415550  0.30389450  0.03987300  1
  Si  Si49  1  0.60584450  0.19610550  0.53987300  1
  Si  Si50  1  0.39415550  0.69610550  0.96012700  1
  Si  Si51  1  0.60584450  0.80389450  0.46012700  1
  Si  Si52  1  0.39415550  0.19610550  0.53987300  1
  Si  Si53  1  0.60584450  0.30389450  0.03987300  1
  Si  Si54  1  0.39415550  0.80389450  0.46012700  1
  Si  Si55  1  0.60592800  0.37419600  0.52294700  1
  Si  Si56  1  0.89407200  0.12580400  0.47705300  1
  Si  Si57  1  0.10914150  0.57828550  0.31435000  1
  Si  Si58  1  0.39085850  0.57828550  0.18565000  1
  Si  Si59  1  0.10914150  0.42171450  0.68565000  1
  Si  Si60  1  0.60914150  0.57828550  0.18565000  1
  Si  Si61  1  0.89085850  0.42171450  0.68565000  1
  Si  Si62  1  0.60914150  0.42171450  0.81435000  1
  Si  Si63  1  0.89085850  0.57828550  0.31435000  1
  Si  Si64  1  0.89407200  0.87419600  0.52294700  1
  Si  Si65  1  0.10592800  0.62580400  0.02294700  1
  Si  Si66  1  0.39085850  0.42171450  0.81435000  1
  Si  Si67  1  0.10592800  0.37419600  0.97705300  1
  Si  Si68  1  0.10592800  0.12580400  0.47705300  1
  Si  Si69  1  0.89407200  0.37419600  0.97705300  1
  Si  Si70  1  0.10584450  0.19610550  0.96012700  1
  Si  Si71  1  0.89407200  0.62580400  0.02294700  1
  Si  Si72  1  0.89415550  0.80389450  0.03987300  1
  Si  Si73  1  0.10584450  0.69610550  0.53987300  1
  Si  Si74  1  0.89415550  0.19610550  0.96012700  1
  Si  Si75  1  0.10584450  0.30389450  0.46012700  1
  Si  Si76  1  0.89415550  0.69610550  0.53987300  1
  Si  Si77  1  0.10584450  0.80389450  0.03987300  1
  Si  Si78  1  0.89415550  0.30389450  0.46012700  1
  Si  Si79  1  0.10592800  0.87419600  0.52294700  1
  O  O80  1  0.61256950  0.21635350  0.99153700  1
  O  O81  1  0.50000000  0.94057900  0.68304800  1
  O  O82  1  0.50000000  0.44057900  0.81695200  1
  O  O83  1  0.50000000  0.05942100  0.31695200  1
  O  O84  1  0.50000000  0.67292200  0.92674300  1
  O  O85  1  0.50000000  0.17292200  0.57325700  1
  O  O86  1  0.50000000  0.32707800  0.07325700  1
  O  O87  1  0.50000000  0.82707800  0.42674300  1
  O  O88  1  0.50000000  0.59993300  0.50116400  1
  O  O89  1  0.50000000  0.90006700  0.00116400  1
  O  O90  1  0.50000000  0.40006700  0.49883600  1
  O  O91  1  0.50000000  0.09993300  0.99883600  1
  O  O92  1  0.33453700  0.31951800  0.16408000  1
  O  O93  1  0.66546300  0.18048200  0.66408000  1
  O  O94  1  0.33453700  0.68048200  0.83592000  1
  O  O95  1  0.66546300  0.81951800  0.33592000  1
  O  O96  1  0.66546300  0.68048200  0.83592000  1
  O  O97  1  0.33453700  0.81951800  0.33592000  1
  O  O98  1  0.66546300  0.31951800  0.16408000  1
  O  O99  1  0.33453700  0.18048200  0.66408000  1
  O  O100  1  0.36355050  0.35371450  0.91391900  1
  O  O101  1  0.63644950  0.14628550  0.41391900  1
  O  O102  1  0.36355050  0.64628550  0.08608100  1
  O  O103  1  0.63644950  0.85371450  0.58608100  1
  O  O104  1  0.86606350  0.88390950  0.67458000  1
  O  O105  1  0.36355050  0.85371450  0.58608100  1
  O  O106  1  0.63644950  0.35371450  0.91391900  1
  O  O107  1  0.36355050  0.14628550  0.41391900  1
  O  O108  1  0.83741900  0.99826400  0.84367500  1
  O  O109  1  0.66258100  0.00173600  0.34367500  1
  O  O110  1  0.83741900  0.00173600  0.15632500  1
  O  O111  1  0.66258100  0.99826400  0.65632500  1
  O  O112  1  0.16258100  0.00173600  0.15632500  1
  O  O113  1  0.33741900  0.99826400  0.65632500  1
  O  O114  1  0.16258100  0.99826400  0.84367500  1
  O  O115  1  0.33741900  0.00173600  0.34367500  1
  O  O116  1  0.38743050  0.21635350  0.99153700  1
  O  O117  1  0.61256950  0.28364650  0.49153700  1
  O  O118  1  0.38743050  0.78364650  0.00846300  1
  O  O119  1  0.61256950  0.71635350  0.50846300  1
  O  O120  1  0.61256950  0.78364650  0.00846300  1
  O  O121  1  0.38743050  0.71635350  0.50846300  1
  O  O122  1  0.50000000  0.55942100  0.18304800  1
  O  O123  1  0.38743050  0.28364650  0.49153700  1
  O  O124  1  0.33048850  0.07759650  0.93074700  1
  O  O125  1  0.16951150  0.92240350  0.43074700  1
  O  O126  1  0.33048850  0.92240350  0.06925300  1
  O  O127  1  0.16951150  0.07759650  0.56925300  1
  O  O128  1  0.66951150  0.92240350  0.06925300  1
  O  O129  1  0.83048850  0.07759650  0.56925300  1
  O  O130  1  0.66951150  0.07759650  0.93074700  1
  O  O131  1  0.83048850  0.92240350  0.43074700  1
  O  O132  1  0.36606350  0.11609050  0.17458000  1
  O  O133  1  0.13393650  0.88390950  0.67458000  1
  O  O134  1  0.36606350  0.88390950  0.82542000  1
  O  O135  1  0.13393650  0.11609050  0.32542000  1
  O  O136  1  0.63393650  0.88390950  0.82542000  1
  O  O137  1  0.86606350  0.11609050  0.32542000  1
  O  O138  1  0.63393650  0.11609050  0.17458000  1
  O  O139  1  0.63644950  0.64628550  0.08608100  1
  O  O140  1  0.11256950  0.71635350  0.99153700  1
  O  O141  1  0.00000000  0.44057900  0.68304800  1
  O  O142  1  0.00000000  0.94057900  0.81695200  1
  O  O143  1  0.00000000  0.55942100  0.31695200  1
  O  O144  1  0.00000000  0.17292200  0.92674300  1
  O  O145  1  0.00000000  0.67292200  0.57325700  1
  O  O146  1  0.00000000  0.82707800  0.07325700  1
  O  O147  1  0.00000000  0.32707800  0.42674300  1
  O  O148  1  0.00000000  0.09993300  0.50116400  1
  O  O149  1  0.00000000  0.40006700  0.00116400  1
  O  O150  1  0.00000000  0.90006700  0.49883600  1
  O  O151  1  0.00000000  0.59993300  0.99883600  1
  O  O152  1  0.83453700  0.81951800  0.16408000  1
  O  O153  1  0.16546300  0.68048200  0.66408000  1
  O  O154  1  0.83453700  0.18048200  0.83592000  1
  O  O155  1  0.16546300  0.31951800  0.33592000  1
  O  O156  1  0.16546300  0.18048200  0.83592000  1
  O  O157  1  0.83453700  0.31951800  0.33592000  1
  O  O158  1  0.16546300  0.81951800  0.16408000  1
  O  O159  1  0.83453700  0.68048200  0.66408000  1
  O  O160  1  0.86355050  0.85371450  0.91391900  1
  O  O161  1  0.13644950  0.64628550  0.41391900  1
  O  O162  1  0.86355050  0.14628550  0.08608100  1
  O  O163  1  0.13644950  0.35371450  0.58608100  1
  O  O164  1  0.36606350  0.38390950  0.67458000  1
  O  O165  1  0.86355050  0.35371450  0.58608100  1
  O  O166  1  0.13644950  0.85371450  0.91391900  1
  O  O167  1  0.86355050  0.64628550  0.41391900  1
  O  O168  1  0.33741900  0.49826400  0.84367500  1
  O  O169  1  0.16258100  0.50173600  0.34367500  1
  O  O170  1  0.33741900  0.50173600  0.15632500  1
  O  O171  1  0.16258100  0.49826400  0.65632500  1
  O  O172  1  0.66258100  0.50173600  0.15632500  1
  O  O173  1  0.83741900  0.49826400  0.65632500  1
  O  O174  1  0.66258100  0.49826400  0.84367500  1
  O  O175  1  0.83741900  0.50173600  0.34367500  1
  O  O176  1  0.88743050  0.71635350  0.99153700  1
  O  O177  1  0.11256950  0.78364650  0.49153700  1
  O  O178  1  0.88743050  0.28364650  0.00846300  1
  O  O179  1  0.11256950  0.21635350  0.50846300  1
  O  O180  1  0.11256950  0.28364650  0.00846300  1
  O  O181  1  0.88743050  0.21635350  0.50846300  1
  O  O182  1  0.00000000  0.05942100  0.18304800  1
  O  O183  1  0.88743050  0.78364650  0.49153700  1
  O  O184  1  0.83048850  0.57759650  0.93074700  1
  O  O185  1  0.66951150  0.42240350  0.43074700  1
  O  O186  1  0.83048850  0.42240350  0.06925300  1
  O  O187  1  0.66951150  0.57759650  0.56925300  1
  O  O188  1  0.16951150  0.42240350  0.06925300  1
  O  O189  1  0.33048850  0.57759650  0.56925300  1
  O  O190  1  0.16951150  0.57759650  0.93074700  1
  O  O191  1  0.33048850  0.42240350  0.43074700  1
  O  O192  1  0.86606350  0.61609050  0.17458000  1
  O  O193  1  0.63393650  0.38390950  0.67458000  1
  O  O194  1  0.86606350  0.38390950  0.82542000  1
  O  O195  1  0.63393650  0.61609050  0.32542000  1
  O  O196  1  0.13393650  0.38390950  0.82542000  1
  O  O197  1  0.36606350  0.61609050  0.32542000  1
  O  O198  1  0.13393650  0.61609050  0.17458000  1
  O  O199  1  0.13644950  0.14628550  0.08608100  1
