# generated using pymatgen
data_SrZrSi2O7
_symmetry_space_group_name_H-M   'P 1'
_cell_length_a   7.85793400
_cell_length_b   8.20483600
_cell_length_c   10.19373061
_cell_angle_alpha   90.00000000
_cell_angle_beta   111.78475982
_cell_angle_gamma   90.00000000
_symmetry_Int_Tables_number   1
_chemical_formula_structural   SrZrSi2O7
_chemical_formula_sum   'Sr4 Zr4 Si8 O28'
_cell_volume   610.28528525
_cell_formula_units_Z   4
loop_
 _symmetry_equiv_pos_site_id
 _symmetry_equiv_pos_as_xyz
  1  'x, y, z'
loop_
 _atom_site_type_symbol
 _atom_site_label
 _atom_site_symmetry_multiplicity
 _atom_site_fract_x
 _atom_site_fract_y
 _atom_site_fract_z
 _atom_site_occupancy
  Sr  Sr0  1  0.71688500  0.48265700  0.70714700  1
  Sr  Sr1  1  0.28311500  0.98265700  0.79285300  1
  Sr  Sr2  1  0.28311500  0.51734300  0.29285300  1
  Sr  Sr3  1  0.71688500  0.01734300  0.20714700  1
  Zr  Zr4  1  0.74379900  0.01109000  0.75303900  1
  Zr  Zr5  1  0.25620100  0.51109000  0.74696100  1
  Zr  Zr6  1  0.25620100  0.98891000  0.24696100  1
  Zr  Zr7  1  0.74379900  0.48891000  0.25303900  1
  Si  Si8  1  0.32545100  0.28500600  0.04108000  1
  Si  Si9  1  0.67454900  0.78500600  0.45892000  1
  Si  Si10  1  0.67454900  0.71499400  0.95892000  1
  Si  Si11  1  0.32545100  0.21499400  0.54108000  1
  Si  Si12  1  0.93569000  0.25096400  0.04246000  1
  Si  Si13  1  0.06431000  0.75096400  0.45754000  1
  Si  Si14  1  0.06431000  0.74903600  0.95754000  1
  Si  Si15  1  0.93569000  0.24903600  0.54246000  1
  O  O16  1  0.37021800  0.09478800  0.09577000  1
  O  O17  1  0.62978200  0.59478800  0.40423000  1
  O  O18  1  0.62978200  0.90521200  0.90423000  1
  O  O19  1  0.37021800  0.40521200  0.59577000  1
  O  O20  1  0.30469500  0.29460900  0.87612200  1
  O  O21  1  0.69530500  0.79460900  0.62387800  1
  O  O22  1  0.69530500  0.70539100  0.12387800  1
  O  O23  1  0.30469500  0.20539100  0.37612200  1
  O  O24  1  0.47478500  0.40733400  0.15074400  1
  O  O25  1  0.52521500  0.90733400  0.34925600  1
  O  O26  1  0.52521500  0.59266600  0.84925600  1
  O  O27  1  0.47478500  0.09266600  0.65074400  1
  O  O28  1  0.82901600  0.36552600  0.11693700  1
  O  O29  1  0.17098400  0.86552600  0.38306300  1
  O  O30  1  0.17098400  0.63447400  0.88306300  1
  O  O31  1  0.82901600  0.13447400  0.61693700  1
  O  O32  1  0.13292300  0.15679600  0.56278200  1
  O  O33  1  0.86707700  0.65679600  0.93721800  1
  O  O34  1  0.86707700  0.84320400  0.43721800  1
  O  O35  1  0.13292300  0.34320400  0.06278200  1
  O  O36  1  0.81164200  0.27128000  0.37560500  1
  O  O37  1  0.18835800  0.77128000  0.12439500  1
  O  O38  1  0.18835800  0.72872000  0.62439500  1
  O  O39  1  0.81164200  0.22872000  0.87560500  1
  O  O40  1  0.98775300  0.42065800  0.63105300  1
  O  O41  1  0.01224700  0.92065800  0.86894700  1
  O  O42  1  0.01224700  0.57934200  0.36894700  1
  O  O43  1  0.98775300  0.07934200  0.13105300  1
