# generated using pymatgen
data_Ba(As3Pt2)2
_symmetry_space_group_name_H-M   'P 1'
_cell_length_a   8.85275800
_cell_length_b   8.46525400
_cell_length_c   12.18060088
_cell_angle_alpha   90.00000000
_cell_angle_beta   90.74362508
_cell_angle_gamma   90.00000000
_symmetry_Int_Tables_number   1
_chemical_formula_structural   Ba(As3Pt2)2
_chemical_formula_sum   'Ba4 As24 Pt16'
_cell_volume   912.74764310
_cell_formula_units_Z   4
loop_
 _symmetry_equiv_pos_site_id
 _symmetry_equiv_pos_as_xyz
  1  'x, y, z'
loop_
 _atom_site_type_symbol
 _atom_site_label
 _atom_site_symmetry_multiplicity
 _atom_site_fract_x
 _atom_site_fract_y
 _atom_site_fract_z
 _atom_site_occupancy
  Ba  Ba0  1  0.50000000  0.89426200  0.75000000  1
  Ba  Ba1  1  0.50000000  0.10573800  0.25000000  1
  Ba  Ba2  1  0.00000000  0.39426200  0.75000000  1
  Ba  Ba3  1  0.00000000  0.60573800  0.25000000  1
  As  As4  1  0.88500900  0.02280500  0.30865700  1
  As  As5  1  0.11499100  0.02280500  0.19134300  1
  As  As6  1  0.11499100  0.97719500  0.69134300  1
  As  As7  1  0.88500900  0.97719500  0.80865700  1
  As  As8  1  0.25004100  0.12650400  0.94483800  1
  As  As9  1  0.74995900  0.12650400  0.55516200  1
  As  As10  1  0.74995900  0.87349600  0.05516200  1
  As  As11  1  0.25004100  0.87349600  0.44483800  1
  As  As12  1  0.36884750  0.75407150  0.05451200  1
  As  As13  1  0.63115250  0.75407150  0.44548800  1
  As  As14  1  0.36884750  0.24592850  0.55451200  1
  As  As15  1  0.63115250  0.24592850  0.94548800  1
  As  As16  1  0.38500900  0.52280500  0.30865700  1
  As  As17  1  0.61499100  0.52280500  0.19134300  1
  As  As18  1  0.61499100  0.47719500  0.69134300  1
  As  As19  1  0.38500900  0.47719500  0.80865700  1
  As  As20  1  0.75004100  0.62650400  0.94483800  1
  As  As21  1  0.24995900  0.62650400  0.55516200  1
  As  As22  1  0.24995900  0.37349600  0.05516200  1
  As  As23  1  0.75004100  0.37349600  0.44483800  1
  As  As24  1  0.86884750  0.25407150  0.05451200  1
  As  As25  1  0.13115250  0.25407150  0.44548800  1
  As  As26  1  0.86884750  0.74592850  0.55451200  1
  As  As27  1  0.13115250  0.74592850  0.94548800  1
  Pt  Pt28  1  0.28778700  0.20493100  0.74980400  1
  Pt  Pt29  1  0.71221300  0.20493100  0.75019600  1
  Pt  Pt30  1  0.50000000  0.00000000  0.50000000  1
  Pt  Pt31  1  0.50000000  0.00000000  0.00000000  1
  Pt  Pt32  1  0.00000000  0.00000000  0.50000000  1
  Pt  Pt33  1  0.00000000  0.00000000  0.00000000  1
  Pt  Pt34  1  0.28778700  0.79506900  0.24980400  1
  Pt  Pt35  1  0.71221300  0.79506900  0.25019600  1
  Pt  Pt36  1  0.78778700  0.70493100  0.74980400  1
  Pt  Pt37  1  0.21221300  0.70493100  0.75019600  1
  Pt  Pt38  1  0.00000000  0.50000000  0.50000000  1
  Pt  Pt39  1  0.00000000  0.50000000  0.00000000  1
  Pt  Pt40  1  0.50000000  0.50000000  0.50000000  1
  Pt  Pt41  1  0.50000000  0.50000000  0.00000000  1
  Pt  Pt42  1  0.78778700  0.29506900  0.24980400  1
  Pt  Pt43  1  0.21221300  0.29506900  0.25019600  1
