# generated using pymatgen
data_RbSn
_symmetry_space_group_name_H-M   'P 1'
_cell_length_a   11.93923200
_cell_length_b   11.93923200
_cell_length_c   19.53533000
_cell_angle_alpha   90.00000000
_cell_angle_beta   90.00000000
_cell_angle_gamma   90.00000000
_symmetry_Int_Tables_number   1
_chemical_formula_structural   RbSn
_chemical_formula_sum   'Rb32 Sn32'
_cell_volume   2784.66870868
_cell_formula_units_Z   32
loop_
 _symmetry_equiv_pos_site_id
 _symmetry_equiv_pos_as_xyz
  1  'x, y, z'
loop_
 _atom_site_type_symbol
 _atom_site_label
 _atom_site_symmetry_multiplicity
 _atom_site_fract_x
 _atom_site_fract_y
 _atom_site_fract_z
 _atom_site_occupancy
  Rb  Rb0  1  0.86216700  0.75000000  0.37500000  1
  Rb  Rb1  1  0.75000000  0.86216700  0.12500000  1
  Rb  Rb2  1  0.25000000  0.13783300  0.12500000  1
  Rb  Rb3  1  0.13783300  0.25000000  0.37500000  1
  Rb  Rb4  1  0.63783300  0.25000000  0.37500000  1
  Rb  Rb5  1  0.25000000  0.63783300  0.12500000  1
  Rb  Rb6  1  0.75000000  0.36216700  0.12500000  1
  Rb  Rb7  1  0.36216700  0.75000000  0.37500000  1
  Rb  Rb8  1  0.37771900  0.37771900  0.25000000  1
  Rb  Rb9  1  0.12228100  0.37771900  0.00000000  1
  Rb  Rb10  1  0.87771900  0.62228100  0.00000000  1
  Rb  Rb11  1  0.62228100  0.62228100  0.25000000  1
  Rb  Rb12  1  0.62228100  0.12228100  0.00000000  1
  Rb  Rb13  1  0.87771900  0.12228100  0.25000000  1
  Rb  Rb14  1  0.12228100  0.87771900  0.25000000  1
  Rb  Rb15  1  0.37771900  0.87771900  0.00000000  1
  Rb  Rb16  1  0.36216700  0.25000000  0.87500000  1
  Rb  Rb17  1  0.25000000  0.36216700  0.62500000  1
  Rb  Rb18  1  0.75000000  0.63783300  0.62500000  1
  Rb  Rb19  1  0.63783300  0.75000000  0.87500000  1
  Rb  Rb20  1  0.13783300  0.75000000  0.87500000  1
  Rb  Rb21  1  0.75000000  0.13783300  0.62500000  1
  Rb  Rb22  1  0.25000000  0.86216700  0.62500000  1
  Rb  Rb23  1  0.86216700  0.25000000  0.87500000  1
  Rb  Rb24  1  0.87771900  0.87771900  0.75000000  1
  Rb  Rb25  1  0.62228100  0.87771900  0.50000000  1
  Rb  Rb26  1  0.37771900  0.12228100  0.50000000  1
  Rb  Rb27  1  0.12228100  0.12228100  0.75000000  1
  Rb  Rb28  1  0.12228100  0.62228100  0.50000000  1
  Rb  Rb29  1  0.37771900  0.62228100  0.75000000  1
  Rb  Rb30  1  0.62228100  0.37771900  0.75000000  1
  Rb  Rb31  1  0.87771900  0.37771900  0.50000000  1
  Sn  Sn32  1  0.06288650  0.89128750  0.05459850  1
  Sn  Sn33  1  0.10871250  0.56288650  0.30459850  1
  Sn  Sn34  1  0.89128750  0.43711350  0.30459850  1
  Sn  Sn35  1  0.56288650  0.10871250  0.19540150  1
  Sn  Sn36  1  0.43711350  0.89128750  0.19540150  1
  Sn  Sn37  1  0.89128750  0.06288650  0.44540150  1
  Sn  Sn38  1  0.10871250  0.93711350  0.44540150  1
  Sn  Sn39  1  0.93711350  0.10871250  0.05459850  1
  Sn  Sn40  1  0.93711350  0.60871250  0.19540150  1
  Sn  Sn41  1  0.39128750  0.43711350  0.44540150  1
  Sn  Sn42  1  0.60871250  0.56288650  0.44540150  1
  Sn  Sn43  1  0.43711350  0.39128750  0.05459850  1
  Sn  Sn44  1  0.56288650  0.60871250  0.05459850  1
  Sn  Sn45  1  0.60871250  0.93711350  0.30459850  1
  Sn  Sn46  1  0.39128750  0.06288650  0.30459850  1
  Sn  Sn47  1  0.06288650  0.39128750  0.19540150  1
  Sn  Sn48  1  0.56288650  0.39128750  0.55459850  1
  Sn  Sn49  1  0.60871250  0.06288650  0.80459850  1
  Sn  Sn50  1  0.39128750  0.93711350  0.80459850  1
  Sn  Sn51  1  0.06288650  0.60871250  0.69540150  1
  Sn  Sn52  1  0.93711350  0.39128750  0.69540150  1
  Sn  Sn53  1  0.39128750  0.56288650  0.94540150  1
  Sn  Sn54  1  0.60871250  0.43711350  0.94540150  1
  Sn  Sn55  1  0.43711350  0.60871250  0.55459850  1
  Sn  Sn56  1  0.43711350  0.10871250  0.69540150  1
  Sn  Sn57  1  0.89128750  0.93711350  0.94540150  1
  Sn  Sn58  1  0.10871250  0.06288650  0.94540150  1
  Sn  Sn59  1  0.93711350  0.89128750  0.55459850  1
  Sn  Sn60  1  0.06288650  0.10871250  0.55459850  1
  Sn  Sn61  1  0.10871250  0.43711350  0.80459850  1
  Sn  Sn62  1  0.89128750  0.56288650  0.80459850  1
  Sn  Sn63  1  0.56288650  0.89128750  0.69540150  1
