# generated using pymatgen
data_Li2WO4
_symmetry_space_group_name_H-M   'P 1'
_cell_length_a   14.66756814
_cell_length_b   14.66756814
_cell_length_c   9.77428357
_cell_angle_alpha   90.00000000
_cell_angle_beta   90.00000000
_cell_angle_gamma   120.00000000
_symmetry_Int_Tables_number   1
_chemical_formula_structural   Li2WO4
_chemical_formula_sum   'Li36 W18 O72'
_cell_volume   1821.09161664
_cell_formula_units_Z   18
loop_
 _symmetry_equiv_pos_site_id
 _symmetry_equiv_pos_as_xyz
  1  'x, y, z'
loop_
 _atom_site_type_symbol
 _atom_site_label
 _atom_site_symmetry_multiplicity
 _atom_site_fract_x
 _atom_site_fract_y
 _atom_site_fract_z
 _atom_site_occupancy
  Li  Li0  1  0.45372200  0.31159000  0.41920900  1
  Li  Li1  1  0.31159000  0.85786800  0.58079100  1
  Li  Li2  1  0.98196167  0.19379733  0.58462333  1
  Li  Li3  1  0.01803833  0.80620267  0.41537667  1
  Li  Li4  1  0.80620267  0.78816433  0.58462333  1
  Li  Li5  1  0.14213200  0.45372200  0.58079100  1
  Li  Li6  1  0.78816433  0.98196167  0.41537667  1
  Li  Li7  1  0.68841000  0.14213200  0.41920900  1
  Li  Li8  1  0.85786800  0.54627800  0.41920900  1
  Li  Li9  1  0.21183567  0.01803833  0.58462333  1
  Li  Li10  1  0.19379733  0.21183567  0.41537667  1
  Li  Li11  1  0.54627800  0.68841000  0.58079100  1
  Li  Li12  1  0.12038867  0.64492333  0.75254233  1
  Li  Li13  1  0.97825667  0.19120133  0.91412433  1
  Li  Li14  1  0.64862833  0.52713067  0.91795667  1
  Li  Li15  1  0.68470500  0.13953600  0.74871000  1
  Li  Li16  1  0.47286933  0.12149767  0.91795667  1
  Li  Li17  1  0.80879867  0.78705533  0.91412433  1
  Li  Li18  1  0.45483100  0.31529500  0.74871000  1
  Li  Li19  1  0.35507667  0.47546533  0.75254233  1
  Li  Li20  1  0.52453467  0.87961133  0.75254233  1
  Li  Li21  1  0.87850233  0.35137167  0.91795667  1
  Li  Li22  1  0.86046400  0.54516900  0.74871000  1
  Li  Li23  1  0.21294467  0.02174333  0.91412433  1
  Li  Li24  1  0.78705533  0.97825667  0.08587567  1
  Li  Li25  1  0.64492333  0.52453467  0.24745767  1
  Li  Li26  1  0.31529500  0.86046400  0.25129000  1
  Li  Li27  1  0.35137167  0.47286933  0.08204333  1
  Li  Li28  1  0.13953600  0.45483100  0.25129000  1
  Li  Li29  1  0.47546533  0.12038867  0.24745767  1
  Li  Li30  1  0.12149767  0.64862833  0.08204333  1
  Li  Li31  1  0.02174333  0.80879867  0.08587567  1
  Li  Li32  1  0.19120133  0.21294467  0.08587567  1
  Li  Li33  1  0.54516900  0.68470500  0.25129000  1
  Li  Li34  1  0.52713067  0.87850233  0.08204333  1
  Li  Li35  1  0.87961133  0.35507667  0.24745767  1
  W  W36  1  0.21329333  0.01807467  0.24974867  1
  W  W37  1  0.80478133  0.78670667  0.24974867  1
  W  W38  1  0.98192533  0.19521867  0.24974867  1
  W  W39  1  0.78670667  0.98192533  0.75025133  1
  W  W40  1  0.01807467  0.80478133  0.75025133  1
  W  W41  1  0.19521867  0.21329333  0.75025133  1
  W  W42  1  0.87996000  0.35140800  0.58308200  1
  W  W43  1  0.47144800  0.12004000  0.58308200  1
  W  W44  1  0.64859200  0.52855200  0.58308200  1
  W  W45  1  0.45337333  0.31525867  0.08358467  1
  W  W46  1  0.68474133  0.13811467  0.08358467  1
  W  W47  1  0.86188533  0.54662667  0.08358467  1
  W  W48  1  0.54662667  0.68474133  0.91641533  1
  W  W49  1  0.13811467  0.45337333  0.91641533  1
  W  W50  1  0.31525867  0.86188533  0.91641533  1
  W  W51  1  0.12004000  0.64859200  0.41691800  1
  W  W52  1  0.35140800  0.47144800  0.41691800  1
  W  W53  1  0.52855200  0.87996000  0.41691800  1
  O  O54  1  0.45769333  0.87813467  0.57107067  1
  O  O55  1  0.91282100  0.12582800  0.40412900  1
  O  O56  1  0.54230667  0.12186533  0.42892933  1
  O  O57  1  0.20911500  0.09693700  0.74878200  1
  O  O58  1  0.21300700  0.08717900  0.40412900  1
  O  O59  1  0.00524700  0.66486700  0.41841600  1
  O  O60  1  0.33513300  0.34038000  0.41841600  1
  O  O61  1  0.90306300  0.11217800  0.74878200  1
  O  O62  1  0.57955867  0.45769333  0.42892933  1
  O  O63  1  0.11217800  0.20911500  0.25121800  1
  O  O64  1  0.78699300  0.91282100  0.59587100  1
  O  O65  1  0.09693700  0.88782200  0.25121800  1
  O  O66  1  0.12582800  0.21300700  0.59587100  1
  O  O67  1  0.65962000  0.99475300  0.41841600  1
  O  O68  1  0.87417200  0.78699300  0.40412900  1
  O  O69  1  0.34038000  0.00524700  0.58158400  1
  O  O70  1  0.88782200  0.79088500  0.74878200  1
  O  O71  1  0.79088500  0.90306300  0.25121800  1
  O  O72  1  0.12186533  0.57955867  0.57107067  1
  O  O73  1  0.66486700  0.65962000  0.58158400  1
  O  O74  1  0.99475300  0.33513300  0.58158400  1
  O  O75  1  0.08717900  0.87417200  0.59587100  1
  O  O76  1  0.42044133  0.54230667  0.57107067  1
  O  O77  1  0.87813467  0.42044133  0.42892933  1
  O  O78  1  0.12436000  0.21146800  0.90440400  1
  O  O79  1  0.57948767  0.45916133  0.73746233  1
  O  O80  1  0.20897333  0.45519867  0.76226267  1
  O  O81  1  0.87578167  0.43027033  0.08211533  1
  O  O82  1  0.87967367  0.42051233  0.73746233  1
  O  O83  1  0.67191367  0.99820033  0.75174933  1
  O  O84  1  0.00179967  0.67371333  0.75174933  1
  O  O85  1  0.56972967  0.44551133  0.08211533  1
  O  O86  1  0.24622533  0.79102667  0.76226267  1
  O  O87  1  0.77884467  0.54244833  0.58455133  1
  O  O88  1  0.45365967  0.24615433  0.92920433  1
  O  O89  1  0.76360367  0.22115533  0.58455133  1
  O  O90  1  0.79249467  0.54634033  0.92920433  1
  O  O91  1  0.32628667  0.32808633  0.75174933  1
  O  O92  1  0.54083867  0.12032633  0.73746233  1
  O  O93  1  0.00704667  0.33858033  0.91491733  1
  O  O94  1  0.55448867  0.12421833  0.08211533  1
  O  O95  1  0.45755167  0.23639633  0.58455133  1
  O  O96  1  0.78853200  0.91289200  0.90440400  1
  O  O97  1  0.33153367  0.99295333  0.91491733  1
  O  O98  1  0.66141967  0.66846633  0.91491733  1
  O  O99  1  0.75384567  0.20750533  0.92920433  1
  O  O100  1  0.08710800  0.87564000  0.90440400  1
  O  O101  1  0.54480133  0.75377467  0.76226267  1
  O  O102  1  0.79102667  0.54480133  0.23773733  1
  O  O103  1  0.24615433  0.79249467  0.07079567  1
  O  O104  1  0.87564000  0.78853200  0.09559600  1
  O  O105  1  0.54244833  0.76360367  0.41544867  1
  O  O106  1  0.54634033  0.75384567  0.07079567  1
  O  O107  1  0.33858033  0.33153367  0.08508267  1
  O  O108  1  0.66846633  0.00704667  0.08508267  1
  O  O109  1  0.23639633  0.77884467  0.41544867  1
  O  O110  1  0.91289200  0.12436000  0.09559600  1
  O  O111  1  0.44551133  0.87578167  0.91788467  1
  O  O112  1  0.12032633  0.57948767  0.26253767  1
  O  O113  1  0.43027033  0.55448867  0.91788467  1
  O  O114  1  0.45916133  0.87967367  0.26253767  1
  O  O115  1  0.99295333  0.66141967  0.08508267  1
  O  O116  1  0.20750533  0.45365967  0.07079567  1
  O  O117  1  0.67371333  0.67191367  0.24825067  1
  O  O118  1  0.22115533  0.45755167  0.41544867  1
  O  O119  1  0.12421833  0.56972967  0.91788467  1
  O  O120  1  0.45519867  0.24622533  0.23773733  1
  O  O121  1  0.99820033  0.32628667  0.24825067  1
  O  O122  1  0.32808633  0.00179967  0.24825067  1
  O  O123  1  0.42051233  0.54083867  0.26253767  1
  O  O124  1  0.75377467  0.20897333  0.23773733  1
  O  O125  1  0.21146800  0.08710800  0.09559600  1
