# generated using pymatgen
data_Sr3Sn2O7
_symmetry_space_group_name_H-M   'P 1'
_cell_length_a   5.88769200
_cell_length_b   20.70826400
_cell_length_c   5.80140300
_cell_angle_alpha   90.00000000
_cell_angle_beta   90.00000000
_cell_angle_gamma   90.00000000
_symmetry_Int_Tables_number   1
_chemical_formula_structural   Sr3Sn2O7
_chemical_formula_sum   'Sr12 Sn8 O28'
_cell_volume   707.32956487
_cell_formula_units_Z   4
loop_
 _symmetry_equiv_pos_site_id
 _symmetry_equiv_pos_as_xyz
  1  'x, y, z'
loop_
 _atom_site_type_symbol
 _atom_site_label
 _atom_site_symmetry_multiplicity
 _atom_site_fract_x
 _atom_site_fract_y
 _atom_site_fract_z
 _atom_site_occupancy
  Sr  Sr0  1  0.75705900  0.00000000  0.25000000  1
  Sr  Sr1  1  0.24294100  0.00000000  0.75000000  1
  Sr  Sr2  1  0.76257850  0.18724250  0.25000000  1
  Sr  Sr3  1  0.73742150  0.31275750  0.75000000  1
  Sr  Sr4  1  0.23742150  0.18724250  0.75000000  1
  Sr  Sr5  1  0.26257850  0.31275750  0.25000000  1
  Sr  Sr6  1  0.25705900  0.50000000  0.25000000  1
  Sr  Sr7  1  0.74294100  0.50000000  0.75000000  1
  Sr  Sr8  1  0.26257850  0.68724250  0.25000000  1
  Sr  Sr9  1  0.23742150  0.81275750  0.75000000  1
  Sr  Sr10  1  0.73742150  0.68724250  0.75000000  1
  Sr  Sr11  1  0.76257850  0.81275750  0.25000000  1
  Sn  Sn12  1  0.25172850  0.09878150  0.25000000  1
  Sn  Sn13  1  0.24827150  0.40121850  0.75000000  1
  Sn  Sn14  1  0.75172850  0.40121850  0.25000000  1
  Sn  Sn15  1  0.74827150  0.09878150  0.75000000  1
  Sn  Sn16  1  0.75172850  0.59878150  0.25000000  1
  Sn  Sn17  1  0.74827150  0.90121850  0.75000000  1
  Sn  Sn18  1  0.25172850  0.90121850  0.25000000  1
  Sn  Sn19  1  0.24827150  0.59878150  0.75000000  1
  O  O20  1  0.00000000  0.08246200  0.00000000  1
  O  O21  1  0.50000000  0.41753800  0.50000000  1
  O  O22  1  0.50000000  0.41753800  0.00000000  1
  O  O23  1  0.00000000  0.08246200  0.50000000  1
  O  O24  1  0.00000000  0.38661000  0.50000000  1
  O  O25  1  0.50000000  0.11339000  0.00000000  1
  O  O26  1  0.50000000  0.11339000  0.50000000  1
  O  O27  1  0.00000000  0.38661000  0.00000000  1
  O  O28  1  0.81086550  0.19725450  0.75000000  1
  O  O29  1  0.68913450  0.30274550  0.25000000  1
  O  O30  1  0.32638900  0.00000000  0.25000000  1
  O  O31  1  0.67361100  0.00000000  0.75000000  1
  O  O32  1  0.18913450  0.19725450  0.25000000  1
  O  O33  1  0.31086550  0.30274550  0.75000000  1
  O  O34  1  0.50000000  0.58246200  0.00000000  1
  O  O35  1  0.00000000  0.91753800  0.50000000  1
  O  O36  1  0.00000000  0.91753800  0.00000000  1
  O  O37  1  0.50000000  0.58246200  0.50000000  1
  O  O38  1  0.50000000  0.88661000  0.50000000  1
  O  O39  1  0.00000000  0.61339000  0.00000000  1
  O  O40  1  0.00000000  0.61339000  0.50000000  1
  O  O41  1  0.50000000  0.88661000  0.00000000  1
  O  O42  1  0.31086550  0.69725450  0.75000000  1
  O  O43  1  0.18913450  0.80274550  0.25000000  1
  O  O44  1  0.82638900  0.50000000  0.25000000  1
  O  O45  1  0.17361100  0.50000000  0.75000000  1
  O  O46  1  0.68913450  0.69725450  0.25000000  1
  O  O47  1  0.81086550  0.80274550  0.75000000  1
