# generated using pymatgen
data_UF5
_symmetry_space_group_name_H-M   'P 1'
_cell_length_a   6.88040000
_cell_length_b   6.88040000
_cell_length_c   4.53501800
_cell_angle_alpha   90.00000000
_cell_angle_beta   90.00000000
_cell_angle_gamma   90.00000000
_symmetry_Int_Tables_number   1
_chemical_formula_structural   UF5
_chemical_formula_sum   'U2 F10'
_cell_volume   214.68731748
_cell_formula_units_Z   2
loop_
 _symmetry_equiv_pos_site_id
 _symmetry_equiv_pos_as_xyz
  1  'x, y, z'
loop_
 _atom_site_type_symbol
 _atom_site_label
 _atom_site_symmetry_multiplicity
 _atom_site_fract_x
 _atom_site_fract_y
 _atom_site_fract_z
 _atom_site_occupancy
  U  U0  1  0.00000000  0.00000000  0.00000000  1
  U  U1  1  0.50000000  0.50000000  0.50000000  1
  F  F2  1  0.72424700  0.10431400  0.00000000  1
  F  F3  1  0.00000000  0.00000000  0.50000000  1
  F  F4  1  0.27575300  0.89568600  0.00000000  1
  F  F5  1  0.39568600  0.22424700  0.50000000  1
  F  F6  1  0.60431400  0.77575300  0.50000000  1
  F  F7  1  0.22424700  0.60431400  0.50000000  1
  F  F8  1  0.50000000  0.50000000  0.00000000  1
  F  F9  1  0.77575300  0.39568600  0.50000000  1
  F  F10  1  0.89568600  0.72424700  0.00000000  1
  F  F11  1  0.10431400  0.27575300  0.00000000  1
