# generated using pymatgen
data_K2SN2O5
_symmetry_space_group_name_H-M   'P 1'
_cell_length_a   7.21728100
_cell_length_b   8.24090800
_cell_length_c   10.11494600
_cell_angle_alpha   90.00000000
_cell_angle_beta   90.00000000
_cell_angle_gamma   90.00000000
_symmetry_Int_Tables_number   1
_chemical_formula_structural   K2SN2O5
_chemical_formula_sum   'K8 S4 N8 O20'
_cell_volume   601.60612466
_cell_formula_units_Z   4
loop_
 _symmetry_equiv_pos_site_id
 _symmetry_equiv_pos_as_xyz
  1  'x, y, z'
loop_
 _atom_site_type_symbol
 _atom_site_label
 _atom_site_symmetry_multiplicity
 _atom_site_fract_x
 _atom_site_fract_y
 _atom_site_fract_z
 _atom_site_occupancy
  K  K0  1  0.55353700  0.48836000  0.18970600  1
  K  K1  1  0.94646300  0.01164000  0.68970600  1
  K  K2  1  0.44646300  0.98836000  0.81029400  1
  K  K3  1  0.05353700  0.51164000  0.31029400  1
  K  K4  1  0.44646300  0.51164000  0.81029400  1
  K  K5  1  0.05353700  0.98836000  0.31029400  1
  K  K6  1  0.55353700  0.01164000  0.18970600  1
  K  K7  1  0.94646300  0.48836000  0.68970600  1
  S  S8  1  0.35569700  0.25000000  0.49692600  1
  S  S9  1  0.14430300  0.25000000  0.99692600  1
  S  S10  1  0.64430300  0.75000000  0.50307400  1
  S  S11  1  0.85569700  0.75000000  0.00307400  1
  N  N12  1  0.59813500  0.25000000  0.53548900  1
  N  N13  1  0.90186500  0.25000000  0.03548900  1
  N  N14  1  0.40186500  0.75000000  0.46451100  1
  N  N15  1  0.09813500  0.75000000  0.96451100  1
  N  N16  1  0.71419500  0.25000000  0.43647100  1
  N  N17  1  0.78580500  0.25000000  0.93647100  1
  N  N18  1  0.28580500  0.75000000  0.56352900  1
  N  N19  1  0.21419500  0.75000000  0.06352900  1
  O  O20  1  0.34407000  0.25000000  0.35221500  1
  O  O21  1  0.15593000  0.25000000  0.85221500  1
  O  O22  1  0.65593000  0.75000000  0.64778500  1
  O  O23  1  0.84407000  0.75000000  0.14778500  1
  O  O24  1  0.28934400  0.39884400  0.55885400  1
  O  O25  1  0.21065600  0.10115600  0.05885400  1
  O  O26  1  0.71065600  0.89884400  0.44114600  1
  O  O27  1  0.78934400  0.60115600  0.94114600  1
  O  O28  1  0.71065600  0.60115600  0.44114600  1
  O  O29  1  0.78934400  0.89884400  0.94114600  1
  O  O30  1  0.28934400  0.10115600  0.55885400  1
  O  O31  1  0.21065600  0.39884400  0.05885400  1
  O  O32  1  0.63953100  0.25000000  0.66112900  1
  O  O33  1  0.86046900  0.25000000  0.16112900  1
  O  O34  1  0.36046900  0.75000000  0.33887100  1
  O  O35  1  0.13953100  0.75000000  0.83887100  1
  O  O36  1  0.88674100  0.25000000  0.47245000  1
  O  O37  1  0.61325900  0.25000000  0.97245000  1
  O  O38  1  0.11325900  0.75000000  0.52755000  1
  O  O39  1  0.38674100  0.75000000  0.02755000  1
