# generated using pymatgen
data_SrTi4(PO4)6
_symmetry_space_group_name_H-M   'P 1'
_cell_length_a   8.47994519
_cell_length_b   8.47994519
_cell_length_c   22.77594075
_cell_angle_alpha   90.00000000
_cell_angle_beta   90.00000000
_cell_angle_gamma   120.00000000
_symmetry_Int_Tables_number   1
_chemical_formula_structural   SrTi4(PO4)6
_chemical_formula_sum   'Sr3 Ti12 P18 O72'
_cell_volume   1418.38146367
_cell_formula_units_Z   3
loop_
 _symmetry_equiv_pos_site_id
 _symmetry_equiv_pos_as_xyz
  1  'x, y, z'
loop_
 _atom_site_type_symbol
 _atom_site_label
 _atom_site_symmetry_multiplicity
 _atom_site_fract_x
 _atom_site_fract_y
 _atom_site_fract_z
 _atom_site_occupancy
  Sr  Sr0  1  0.00000000  0.00000000  0.00000000  1
  Sr  Sr1  1  0.66666667  0.33333333  0.33333333  1
  Sr  Sr2  1  0.33333333  0.66666667  0.66666667  1
  Ti  Ti3  1  0.33333333  0.66666667  0.31058767  1
  Ti  Ti4  1  0.33333333  0.66666667  0.02274567  1
  Ti  Ti5  1  0.00000000  0.00000000  0.14972200  1
  Ti  Ti6  1  0.66666667  0.33333333  0.18361133  1
  Ti  Ti7  1  0.00000000  0.00000000  0.64392100  1
  Ti  Ti8  1  0.00000000  0.00000000  0.35607900  1
  Ti  Ti9  1  0.66666667  0.33333333  0.48305533  1
  Ti  Ti10  1  0.33333333  0.66666667  0.51694467  1
  Ti  Ti11  1  0.66666667  0.33333333  0.97725433  1
  Ti  Ti12  1  0.66666667  0.33333333  0.68941233  1
  Ti  Ti13  1  0.33333333  0.66666667  0.81638867  1
  Ti  Ti14  1  0.00000000  0.00000000  0.85027800  1
  P  P15  1  0.71769867  0.71448233  0.25177033  1
  P  P16  1  0.99678367  0.28230133  0.25177033  1
  P  P17  1  0.28551767  0.00321633  0.25177033  1
  P  P18  1  0.94896800  0.61885100  0.08156300  1
  P  P19  1  0.66988300  0.05103200  0.08156300  1
  P  P20  1  0.38114900  0.33011700  0.08156300  1
  P  P21  1  0.38436533  0.04781567  0.58510367  1
  P  P22  1  0.66345033  0.61563467  0.58510367  1
  P  P23  1  0.95218433  0.33654967  0.58510367  1
  P  P24  1  0.61563467  0.95218433  0.41489633  1
  P  P25  1  0.33654967  0.38436533  0.41489633  1
  P  P26  1  0.04781567  0.66345033  0.41489633  1
  P  P27  1  0.05103200  0.38114900  0.91843700  1
  P  P28  1  0.33011700  0.94896800  0.91843700  1
  P  P29  1  0.61885100  0.66988300  0.91843700  1
  P  P30  1  0.28230133  0.28551767  0.74822967  1
  P  P31  1  0.00321633  0.71769867  0.74822967  1
  P  P32  1  0.71448233  0.99678367  0.74822967  1
  O  O33  1  0.18156600  0.45353800  0.26460300  1
  O  O34  1  0.27197200  0.81843400  0.26460300  1
  O  O35  1  0.54646200  0.72802800  0.26460300  1
  O  O36  1  0.48510067  0.87979533  0.06873033  1
  O  O37  1  0.39469467  0.51489933  0.06873033  1
  O  O38  1  0.12020467  0.60530533  0.06873033  1
  O  O39  1  0.00317900  0.82073000  0.09074100  1
  O  O40  1  0.81755100  0.99682100  0.09074100  1
  O  O41  1  0.17927000  0.18244900  0.09074100  1
  O  O42  1  0.66348767  0.51260333  0.24259233  1
  O  O43  1  0.84911567  0.33651233  0.24259233  1
  O  O44  1  0.48801400  0.34960900  0.13877700  1
  O  O45  1  0.65039100  0.13840500  0.13877700  1
  O  O46  1  0.86159500  0.51198600  0.13877700  1
  O  O47  1  0.17865267  0.98372433  0.19455633  1
  O  O48  1  0.01627567  0.19492833  0.19455633  1
  O  O49  1  0.80507167  0.82134733  0.19455633  1
  O  O50  1  0.93300133  0.14769167  0.30360567  1
  O  O51  1  0.85230833  0.78530967  0.30360567  1
  O  O52  1  0.21469033  0.06699867  0.30360567  1
  O  O53  1  0.73366533  0.18564167  0.02972767  1
  O  O54  1  0.81435833  0.54802367  0.02972767  1
  O  O55  1  0.45197633  0.26633467  0.02972767  1
  O  O56  1  0.48739667  0.15088433  0.24259233  1
  O  O57  1  0.84823267  0.78687133  0.59793633  1
  O  O58  1  0.93863867  0.15176733  0.59793633  1
  O  O59  1  0.21312867  0.06136133  0.59793633  1
  O  O60  1  0.15176733  0.21312867  0.40206367  1
  O  O61  1  0.06136133  0.84823267  0.40206367  1
  O  O62  1  0.78687133  0.93863867  0.40206367  1
  O  O63  1  0.66984567  0.15406333  0.42407433  1
  O  O64  1  0.48421767  0.33015433  0.42407433  1
  O  O65  1  0.84593667  0.51578233  0.42407433  1
  O  O66  1  0.33015433  0.84593667  0.57592567  1
  O  O67  1  0.51578233  0.66984567  0.57592567  1
  O  O68  1  0.15468067  0.68294233  0.47211033  1
  O  O69  1  0.31705767  0.47173833  0.47211033  1
  O  O70  1  0.52826167  0.84531933  0.47211033  1
  O  O71  1  0.84531933  0.31705767  0.52788967  1
  O  O72  1  0.68294233  0.52826167  0.52788967  1
  O  O73  1  0.47173833  0.15468067  0.52788967  1
  O  O74  1  0.59966800  0.48102500  0.63693900  1
  O  O75  1  0.51897500  0.11864300  0.63693900  1
  O  O76  1  0.88135700  0.40033200  0.63693900  1
  O  O77  1  0.40033200  0.51897500  0.36306100  1
  O  O78  1  0.48102500  0.88135700  0.36306100  1
  O  O79  1  0.11864300  0.59966800  0.36306100  1
  O  O80  1  0.15406333  0.48421767  0.57592567  1
  O  O81  1  0.51489933  0.12020467  0.93126967  1
  O  O82  1  0.60530533  0.48510067  0.93126967  1
  O  O83  1  0.87979533  0.39469467  0.93126967  1
  O  O84  1  0.81843400  0.54646200  0.73539700  1
  O  O85  1  0.72802800  0.18156600  0.73539700  1
  O  O86  1  0.45353800  0.27197200  0.73539700  1
  O  O87  1  0.33651233  0.48739667  0.75740767  1
  O  O88  1  0.15088433  0.66348767  0.75740767  1
  O  O89  1  0.51260333  0.84911567  0.75740767  1
  O  O90  1  0.99682100  0.17927000  0.90925900  1
  O  O91  1  0.18244900  0.00317900  0.90925900  1
  O  O92  1  0.82134733  0.01627567  0.80544367  1
  O  O93  1  0.98372433  0.80507167  0.80544367  1
  O  O94  1  0.19492833  0.17865267  0.80544367  1
  O  O95  1  0.51198600  0.65039100  0.86122300  1
  O  O96  1  0.34960900  0.86159500  0.86122300  1
  O  O97  1  0.13840500  0.48801400  0.86122300  1
  O  O98  1  0.26633467  0.81435833  0.97027233  1
  O  O99  1  0.18564167  0.45197633  0.97027233  1
  O  O100  1  0.54802367  0.73366533  0.97027233  1
  O  O101  1  0.06699867  0.85230833  0.69639433  1
  O  O102  1  0.14769167  0.21469033  0.69639433  1
  O  O103  1  0.78530967  0.93300133  0.69639433  1
  O  O104  1  0.82073000  0.81755100  0.90925900  1
