# generated using pymatgen
data_Pr4Si2Se3O7
_symmetry_space_group_name_H-M   'P 1'
_cell_length_a   12.26314800
_cell_length_b   12.26314800
_cell_length_c   14.65739000
_cell_angle_alpha   90.00000000
_cell_angle_beta   90.00000000
_cell_angle_gamma   90.00000000
_symmetry_Int_Tables_number   1
_chemical_formula_structural   Pr4Si2Se3O7
_chemical_formula_sum   'Pr32 Si16 Se24 O56'
_cell_volume   2204.24864711
_cell_formula_units_Z   8
loop_
 _symmetry_equiv_pos_site_id
 _symmetry_equiv_pos_as_xyz
  1  'x, y, z'
loop_
 _atom_site_type_symbol
 _atom_site_label
 _atom_site_symmetry_multiplicity
 _atom_site_fract_x
 _atom_site_fract_y
 _atom_site_fract_z
 _atom_site_occupancy
  Pr  Pr0  1  0.17237000  0.67237000  0.25000000  1
  Pr  Pr1  1  0.32763000  0.67237000  0.50000000  1
  Pr  Pr2  1  0.67237000  0.32763000  0.50000000  1
  Pr  Pr3  1  0.82763000  0.32763000  0.25000000  1
  Pr  Pr4  1  0.32763000  0.32763000  0.50000000  1
  Pr  Pr5  1  0.17237000  0.32763000  0.25000000  1
  Pr  Pr6  1  0.82763000  0.67237000  0.25000000  1
  Pr  Pr7  1  0.17237000  0.17237000  0.00000000  1
  Pr  Pr8  1  0.26023600  0.50000000  0.04077800  1
  Pr  Pr9  1  0.23976400  0.00000000  0.54077800  1
  Pr  Pr10  1  0.00000000  0.23976400  0.45922200  1
  Pr  Pr11  1  0.50000000  0.23976400  0.29077800  1
  Pr  Pr12  1  0.50000000  0.76023600  0.29077800  1
  Pr  Pr13  1  0.26023600  0.00000000  0.20922200  1
  Pr  Pr14  1  0.73976400  0.00000000  0.20922200  1
  Pr  Pr15  1  0.50000000  0.26023600  0.95922200  1
  Pr  Pr16  1  0.67237000  0.17237000  0.75000000  1
  Pr  Pr17  1  0.82763000  0.17237000  0.00000000  1
  Pr  Pr18  1  0.17237000  0.82763000  0.00000000  1
  Pr  Pr19  1  0.32763000  0.82763000  0.75000000  1
  Pr  Pr20  1  0.82763000  0.82763000  0.00000000  1
  Pr  Pr21  1  0.67237000  0.82763000  0.75000000  1
  Pr  Pr22  1  0.32763000  0.17237000  0.75000000  1
  Pr  Pr23  1  0.67237000  0.67237000  0.50000000  1
  Pr  Pr24  1  0.76023600  0.00000000  0.54077800  1
  Pr  Pr25  1  0.73976400  0.50000000  0.04077800  1
  Pr  Pr26  1  0.50000000  0.73976400  0.95922200  1
  Pr  Pr27  1  0.00000000  0.73976400  0.79077800  1
  Pr  Pr28  1  0.00000000  0.26023600  0.79077800  1
  Pr  Pr29  1  0.76023600  0.50000000  0.70922200  1
  Pr  Pr30  1  0.23976400  0.50000000  0.70922200  1
  Pr  Pr31  1  0.00000000  0.76023600  0.45922200  1
  Si  Si32  1  0.12380500  0.00000000  0.78110100  1
  Si  Si33  1  0.37619500  0.50000000  0.28110100  1
  Si  Si34  1  0.50000000  0.37619500  0.71889900  1
  Si  Si35  1  0.00000000  0.37619500  0.03110100  1
  Si  Si36  1  0.00000000  0.62380500  0.03110100  1
  Si  Si37  1  0.12380500  0.50000000  0.46889900  1
  Si  Si38  1  0.87619500  0.50000000  0.46889900  1
  Si  Si39  1  0.00000000  0.12380500  0.21889900  1
  Si  Si40  1  0.62380500  0.50000000  0.28110100  1
  Si  Si41  1  0.87619500  0.00000000  0.78110100  1
  Si  Si42  1  0.00000000  0.87619500  0.21889900  1
  Si  Si43  1  0.50000000  0.87619500  0.53110100  1
  Si  Si44  1  0.50000000  0.12380500  0.53110100  1
  Si  Si45  1  0.62380500  0.00000000  0.96889900  1
  Si  Si46  1  0.37619500  0.00000000  0.96889900  1
  Si  Si47  1  0.50000000  0.62380500  0.71889900  1
  Se  Se48  1  0.00000000  0.00000000  0.00000000  1
  Se  Se49  1  0.00000000  0.50000000  0.25000000  1
  Se  Se50  1  0.50000000  0.00000000  0.25000000  1
  Se  Se51  1  0.00000000  0.00000000  0.50000000  1
  Se  Se52  1  0.35365400  0.25000000  0.12500000  1
  Se  Se53  1  0.25000000  0.35365400  0.87500000  1
  Se  Se54  1  0.25000000  0.14634600  0.37500000  1
  Se  Se55  1  0.14634600  0.25000000  0.62500000  1
  Se  Se56  1  0.64634600  0.25000000  0.12500000  1
  Se  Se57  1  0.25000000  0.64634600  0.87500000  1
  Se  Se58  1  0.25000000  0.85365400  0.37500000  1
  Se  Se59  1  0.85365400  0.25000000  0.62500000  1
  Se  Se60  1  0.50000000  0.50000000  0.50000000  1
  Se  Se61  1  0.50000000  0.00000000  0.75000000  1
  Se  Se62  1  0.00000000  0.50000000  0.75000000  1
  Se  Se63  1  0.50000000  0.50000000  0.00000000  1
  Se  Se64  1  0.85365400  0.75000000  0.62500000  1
  Se  Se65  1  0.75000000  0.85365400  0.37500000  1
  Se  Se66  1  0.75000000  0.64634600  0.87500000  1
  Se  Se67  1  0.64634600  0.75000000  0.12500000  1
  Se  Se68  1  0.14634600  0.75000000  0.62500000  1
  Se  Se69  1  0.75000000  0.14634600  0.37500000  1
  Se  Se70  1  0.75000000  0.35365400  0.87500000  1
  Se  Se71  1  0.35365400  0.75000000  0.12500000  1
  O  O72  1  0.00000000  0.00000000  0.26460900  1
  O  O73  1  0.50000000  0.00000000  0.01460900  1
  O  O74  1  0.50000000  0.00000000  0.48539100  1
  O  O75  1  0.00000000  0.00000000  0.73539100  1
  O  O76  1  0.27496300  0.50000000  0.20536300  1
  O  O77  1  0.22503700  0.00000000  0.70536300  1
  O  O78  1  0.00000000  0.22503700  0.29463700  1
  O  O79  1  0.50000000  0.22503700  0.45536300  1
  O  O80  1  0.50000000  0.77496300  0.45536300  1
  O  O81  1  0.27496300  0.00000000  0.04463700  1
  O  O82  1  0.72503700  0.00000000  0.04463700  1
  O  O83  1  0.50000000  0.27496300  0.79463700  1
  O  O84  1  0.14057300  0.38235600  0.41656500  1
  O  O85  1  0.35942700  0.11764400  0.91656500  1
  O  O86  1  0.11764400  0.35942700  0.08343500  1
  O  O87  1  0.38235600  0.35942700  0.66656500  1
  O  O88  1  0.11764400  0.14057300  0.16656500  1
  O  O89  1  0.14057300  0.11764400  0.83343500  1
  O  O90  1  0.35942700  0.38235600  0.33343500  1
  O  O91  1  0.38235600  0.14057300  0.58343500  1
  O  O92  1  0.35942700  0.61764400  0.33343500  1
  O  O93  1  0.14057300  0.88235600  0.83343500  1
  O  O94  1  0.88235600  0.14057300  0.16656500  1
  O  O95  1  0.11764400  0.64057300  0.08343500  1
  O  O96  1  0.38235600  0.85942700  0.58343500  1
  O  O97  1  0.85942700  0.38235600  0.41656500  1
  O  O98  1  0.64057300  0.11764400  0.91656500  1
  O  O99  1  0.61764400  0.35942700  0.66656500  1
  O  O100  1  0.50000000  0.50000000  0.76460900  1
  O  O101  1  0.00000000  0.50000000  0.51460900  1
  O  O102  1  0.00000000  0.50000000  0.98539100  1
  O  O103  1  0.50000000  0.50000000  0.23539100  1
  O  O104  1  0.77496300  0.00000000  0.70536300  1
  O  O105  1  0.72503700  0.50000000  0.20536300  1
  O  O106  1  0.50000000  0.72503700  0.79463700  1
  O  O107  1  0.00000000  0.72503700  0.95536300  1
  O  O108  1  0.00000000  0.27496300  0.95536300  1
  O  O109  1  0.77496300  0.50000000  0.54463700  1
  O  O110  1  0.22503700  0.50000000  0.54463700  1
  O  O111  1  0.00000000  0.77496300  0.29463700  1
  O  O112  1  0.64057300  0.88235600  0.91656500  1
  O  O113  1  0.85942700  0.61764400  0.41656500  1
  O  O114  1  0.61764400  0.85942700  0.58343500  1
  O  O115  1  0.88235600  0.85942700  0.16656500  1
  O  O116  1  0.61764400  0.64057300  0.66656500  1
  O  O117  1  0.64057300  0.61764400  0.33343500  1
  O  O118  1  0.85942700  0.88235600  0.83343500  1
  O  O119  1  0.88235600  0.64057300  0.08343500  1
  O  O120  1  0.85942700  0.11764400  0.83343500  1
  O  O121  1  0.64057300  0.38235600  0.33343500  1
  O  O122  1  0.38235600  0.64057300  0.66656500  1
  O  O123  1  0.61764400  0.14057300  0.58343500  1
  O  O124  1  0.88235600  0.35942700  0.08343500  1
  O  O125  1  0.35942700  0.88235600  0.91656500  1
  O  O126  1  0.14057300  0.61764400  0.41656500  1
  O  O127  1  0.11764400  0.85942700  0.16656500  1
