# generated using pymatgen
data_Na6Ge2Se7
_symmetry_space_group_name_H-M   'P 1'
_cell_length_a   9.55032800
_cell_length_b   11.08904600
_cell_length_c   16.08266305
_cell_angle_alpha   90.00000000
_cell_angle_beta   104.23882449
_cell_angle_gamma   90.00000000
_symmetry_Int_Tables_number   1
_chemical_formula_structural   Na6Ge2Se7
_chemical_formula_sum   'Na24 Ge8 Se28'
_cell_volume   1650.89402495
_cell_formula_units_Z   4
loop_
 _symmetry_equiv_pos_site_id
 _symmetry_equiv_pos_as_xyz
  1  'x, y, z'
loop_
 _atom_site_type_symbol
 _atom_site_label
 _atom_site_symmetry_multiplicity
 _atom_site_fract_x
 _atom_site_fract_y
 _atom_site_fract_z
 _atom_site_occupancy
  Na  Na0  1  0.50000000  0.00000000  0.00000000  1
  Na  Na1  1  0.50000000  0.00000000  0.50000000  1
  Na  Na2  1  0.61627800  0.64711800  0.07134600  1
  Na  Na3  1  0.38372200  0.64711800  0.42865400  1
  Na  Na4  1  0.38372200  0.35288200  0.92865400  1
  Na  Na5  1  0.61627800  0.35288200  0.57134600  1
  Na  Na6  1  0.50000000  0.08021300  0.25000000  1
  Na  Na7  1  0.50000000  0.91978700  0.75000000  1
  Na  Na8  1  0.73160700  0.77672400  0.35871300  1
  Na  Na9  1  0.26839300  0.77672400  0.14128700  1
  Na  Na10  1  0.26839300  0.22327600  0.64128700  1
  Na  Na11  1  0.73160700  0.22327600  0.85871300  1
  Na  Na12  1  0.00000000  0.50000000  0.00000000  1
  Na  Na13  1  0.00000000  0.50000000  0.50000000  1
  Na  Na14  1  0.11627800  0.14711800  0.07134600  1
  Na  Na15  1  0.88372200  0.14711800  0.42865400  1
  Na  Na16  1  0.88372200  0.85288200  0.92865400  1
  Na  Na17  1  0.11627800  0.85288200  0.57134600  1
  Na  Na18  1  0.00000000  0.58021300  0.25000000  1
  Na  Na19  1  0.00000000  0.41978700  0.75000000  1
  Na  Na20  1  0.23160700  0.27672400  0.35871300  1
  Na  Na21  1  0.76839300  0.27672400  0.14128700  1
  Na  Na22  1  0.76839300  0.72327600  0.64128700  1
  Na  Na23  1  0.23160700  0.72327600  0.85871300  1
  Ge  Ge24  1  0.84168250  0.91770050  0.13982600  1
  Ge  Ge25  1  0.15831750  0.91770050  0.36017400  1
  Ge  Ge26  1  0.15831750  0.08229950  0.86017400  1
  Ge  Ge27  1  0.84168250  0.08229950  0.63982600  1
  Ge  Ge28  1  0.34168250  0.41770050  0.13982600  1
  Ge  Ge29  1  0.65831750  0.41770050  0.36017400  1
  Ge  Ge30  1  0.65831750  0.58229950  0.86017400  1
  Ge  Ge31  1  0.34168250  0.58229950  0.63982600  1
  Se  Se32  1  0.62398500  0.87207100  0.17983000  1
  Se  Se33  1  0.37601500  0.87207100  0.32017000  1
  Se  Se34  1  0.37601500  0.12792900  0.82017000  1
  Se  Se35  1  0.62398500  0.12792900  0.67983000  1
  Se  Se36  1  0.80324500  0.06653400  0.02890400  1
  Se  Se37  1  0.19675500  0.06653400  0.47109600  1
  Se  Se38  1  0.19675500  0.93346600  0.97109600  1
  Se  Se39  1  0.80324500  0.93346600  0.52890400  1
  Se  Se40  1  0.44886750  0.23882550  0.10445000  1
  Se  Se41  1  0.55113250  0.23882550  0.39555000  1
  Se  Se42  1  0.55113250  0.76117450  0.89555000  1
  Se  Se43  1  0.44886750  0.76117450  0.60445000  1
  Se  Se44  1  0.50000000  0.53942200  0.25000000  1
  Se  Se45  1  0.50000000  0.46057800  0.75000000  1
  Se  Se46  1  0.12398500  0.37207100  0.17983000  1
  Se  Se47  1  0.87601500  0.37207100  0.32017000  1
  Se  Se48  1  0.87601500  0.62792900  0.82017000  1
  Se  Se49  1  0.12398500  0.62792900  0.67983000  1
  Se  Se50  1  0.30324500  0.56653400  0.02890400  1
  Se  Se51  1  0.69675500  0.56653400  0.47109600  1
  Se  Se52  1  0.69675500  0.43346600  0.97109600  1
  Se  Se53  1  0.30324500  0.43346600  0.52890400  1
  Se  Se54  1  0.94886750  0.73882550  0.10445000  1
  Se  Se55  1  0.05113250  0.73882550  0.39555000  1
  Se  Se56  1  0.05113250  0.26117450  0.89555000  1
  Se  Se57  1  0.94886750  0.26117450  0.60445000  1
  Se  Se58  1  0.00000000  0.03942200  0.25000000  1
  Se  Se59  1  0.00000000  0.96057800  0.75000000  1
