# generated using pymatgen
data_Th3P4
_symmetry_space_group_name_H-M   'P 1'
_cell_length_a   8.64637200
_cell_length_b   8.64637200
_cell_length_c   8.64637200
_cell_angle_alpha   90.00000000
_cell_angle_beta   90.00000000
_cell_angle_gamma   90.00000000
_symmetry_Int_Tables_number   1
_chemical_formula_structural   Th3P4
_chemical_formula_sum   'Th12 P16'
_cell_volume   646.40059843
_cell_formula_units_Z   4
loop_
 _symmetry_equiv_pos_site_id
 _symmetry_equiv_pos_as_xyz
  1  'x, y, z'
loop_
 _atom_site_type_symbol
 _atom_site_label
 _atom_site_symmetry_multiplicity
 _atom_site_fract_x
 _atom_site_fract_y
 _atom_site_fract_z
 _atom_site_occupancy
  Th  Th0  1  0.00000000  0.25000000  0.37500000  1
  Th  Th1  1  0.37500000  0.00000000  0.25000000  1
  Th  Th2  1  0.12500000  0.00000000  0.75000000  1
  Th  Th3  1  0.75000000  0.12500000  0.00000000  1
  Th  Th4  1  0.25000000  0.37500000  0.00000000  1
  Th  Th5  1  0.00000000  0.75000000  0.12500000  1
  Th  Th6  1  0.50000000  0.75000000  0.87500000  1
  Th  Th7  1  0.87500000  0.50000000  0.75000000  1
  Th  Th8  1  0.62500000  0.50000000  0.25000000  1
  Th  Th9  1  0.25000000  0.62500000  0.50000000  1
  Th  Th10  1  0.75000000  0.87500000  0.50000000  1
  Th  Th11  1  0.50000000  0.25000000  0.62500000  1
  P  P12  1  0.07922250  0.07922250  0.07922250  1
  P  P13  1  0.17077750  0.67077750  0.82922250  1
  P  P14  1  0.82922250  0.17077750  0.67077750  1
  P  P15  1  0.67077750  0.82922250  0.17077750  1
  P  P16  1  0.07922250  0.92077750  0.42077750  1
  P  P17  1  0.42077750  0.07922250  0.92077750  1
  P  P18  1  0.92077750  0.42077750  0.07922250  1
  P  P19  1  0.32922250  0.32922250  0.32922250  1
  P  P20  1  0.57922250  0.57922250  0.57922250  1
  P  P21  1  0.67077750  0.17077750  0.32922250  1
  P  P22  1  0.32922250  0.67077750  0.17077750  1
  P  P23  1  0.17077750  0.32922250  0.67077750  1
  P  P24  1  0.57922250  0.42077750  0.92077750  1
  P  P25  1  0.92077750  0.57922250  0.42077750  1
  P  P26  1  0.42077750  0.92077750  0.57922250  1
  P  P27  1  0.82922250  0.82922250  0.82922250  1
