# generated using pymatgen
data_BaNaNd(GeO3)3
_symmetry_space_group_name_H-M   'P 1'
_cell_length_a   5.94402000
_cell_length_b   11.87215600
_cell_length_c   13.06412900
_cell_angle_alpha   90.00000000
_cell_angle_beta   90.00000000
_cell_angle_gamma   90.00000000
_symmetry_Int_Tables_number   1
_chemical_formula_structural   BaNaNd(GeO3)3
_chemical_formula_sum   'Ba4 Na4 Nd4 Ge12 O36'
_cell_volume   921.91380180
_cell_formula_units_Z   4
loop_
 _symmetry_equiv_pos_site_id
 _symmetry_equiv_pos_as_xyz
  1  'x, y, z'
loop_
 _atom_site_type_symbol
 _atom_site_label
 _atom_site_symmetry_multiplicity
 _atom_site_fract_x
 _atom_site_fract_y
 _atom_site_fract_z
 _atom_site_occupancy
  Ba  Ba0  1  0.10657400  0.61394000  0.08194600  1
  Ba  Ba1  1  0.60657400  0.88606000  0.91805400  1
  Ba  Ba2  1  0.89342600  0.11394000  0.41805400  1
  Ba  Ba3  1  0.39342600  0.38606000  0.58194600  1
  Na  Na4  1  0.06248500  0.27884100  0.11440700  1
  Na  Na5  1  0.56248500  0.22115900  0.88559300  1
  Na  Na6  1  0.43751500  0.72115900  0.61440700  1
  Na  Na7  1  0.93751500  0.77884100  0.38559300  1
  Nd  Nd8  1  0.38317100  0.03619600  0.64154500  1
  Nd  Nd9  1  0.88317100  0.46380400  0.35845500  1
  Nd  Nd10  1  0.61682900  0.53619600  0.85845500  1
  Nd  Nd11  1  0.11682900  0.96380400  0.14154500  1
  Ge  Ge12  1  0.10103300  0.08983600  0.88367900  1
  Ge  Ge13  1  0.60805800  0.79595500  0.18813300  1
  Ge  Ge14  1  0.89194200  0.20404500  0.68813300  1
  Ge  Ge15  1  0.10805800  0.70404500  0.81186700  1
  Ge  Ge16  1  0.40232800  0.63975600  0.36081500  1
  Ge  Ge17  1  0.90232800  0.86024400  0.63918500  1
  Ge  Ge18  1  0.59767200  0.13975600  0.13918500  1
  Ge  Ge19  1  0.09767200  0.36024400  0.86081500  1
  Ge  Ge20  1  0.39896700  0.91016400  0.38367900  1
  Ge  Ge21  1  0.89896700  0.58983600  0.61632100  1
  Ge  Ge22  1  0.39194200  0.29595500  0.31186700  1
  Ge  Ge23  1  0.60103300  0.41016400  0.11632100  1
  O  O24  1  0.14222700  0.93704000  0.32329500  1
  O  O25  1  0.64222700  0.56296000  0.67670500  1
  O  O26  1  0.85777300  0.43704000  0.17670500  1
  O  O27  1  0.35777300  0.06296000  0.82329500  1
  O  O28  1  0.35473400  0.68868700  0.88219300  1
  O  O29  1  0.85473400  0.81131300  0.11780700  1
  O  O30  1  0.64526600  0.18868700  0.61780700  1
  O  O31  1  0.14526600  0.31131300  0.38219300  1
  O  O32  1  0.50061200  0.50738600  0.02896000  1
  O  O33  1  0.00061200  0.99261400  0.97104000  1
  O  O34  1  0.49938800  0.00738600  0.47104000  1
  O  O35  1  0.99938800  0.49261400  0.52896000  1
  O  O36  1  0.38312600  0.76859500  0.43848600  1
  O  O37  1  0.88312600  0.73140500  0.56151400  1
  O  O38  1  0.11446300  0.83381800  0.73778600  1
  O  O39  1  0.61687400  0.26859500  0.06151400  1
  O  O40  1  0.36066200  0.80297000  0.11709400  1
  O  O41  1  0.86066200  0.69703000  0.88290600  1
  O  O42  1  0.63933800  0.30297000  0.38290600  1
  O  O43  1  0.13933800  0.19703000  0.61709400  1
  O  O44  1  0.12402600  0.60014600  0.70988500  1
  O  O45  1  0.62402600  0.89985400  0.29011500  1
  O  O46  1  0.87597400  0.10014600  0.79011500  1
  O  O47  1  0.37597400  0.39985400  0.20988500  1
  O  O48  1  0.36777200  0.38324200  0.81245800  1
  O  O49  1  0.86777200  0.11675800  0.18754200  1
  O  O50  1  0.63222800  0.88324200  0.68754200  1
  O  O51  1  0.13222800  0.61675800  0.31245800  1
  O  O52  1  0.95973700  0.46133700  0.93350500  1
  O  O53  1  0.45973700  0.03866300  0.06649500  1
  O  O54  1  0.04026300  0.96133700  0.56649500  1
  O  O55  1  0.54026300  0.53866300  0.43350500  1
  O  O56  1  0.38553700  0.16618200  0.23778600  1
  O  O57  1  0.88553700  0.33381800  0.76221400  1
  O  O58  1  0.61446300  0.66618200  0.26221400  1
  O  O59  1  0.11687400  0.23140500  0.93848600  1
