# generated using pymatgen
data_Mn2MoP12
_symmetry_space_group_name_H-M   'P 1'
_cell_length_a   16.00079000
_cell_length_b   5.73658200
_cell_length_c   10.58746165
_cell_angle_alpha   90.00000000
_cell_angle_beta   115.88553152
_cell_angle_gamma   90.00000000
_symmetry_Int_Tables_number   1
_chemical_formula_structural   Mn2MoP12
_chemical_formula_sum   'Mn8 Mo4 P48'
_cell_volume   874.31671290
_cell_formula_units_Z   4
loop_
 _symmetry_equiv_pos_site_id
 _symmetry_equiv_pos_as_xyz
  1  'x, y, z'
loop_
 _atom_site_type_symbol
 _atom_site_label
 _atom_site_symmetry_multiplicity
 _atom_site_fract_x
 _atom_site_fract_y
 _atom_site_fract_z
 _atom_site_occupancy
  Mn  Mn0  1  0.81954450  0.80823450  0.45438900  1
  Mn  Mn1  1  0.68045550  0.30823450  0.04561100  1
  Mn  Mn2  1  0.18045550  0.19176550  0.54561100  1
  Mn  Mn3  1  0.31954450  0.69176550  0.95438900  1
  Mn  Mn4  1  0.31954450  0.30823450  0.45438900  1
  Mn  Mn5  1  0.18045550  0.80823450  0.04561100  1
  Mn  Mn6  1  0.68045550  0.69176550  0.54561100  1
  Mn  Mn7  1  0.81954450  0.19176550  0.95438900  1
  Mo  Mo8  1  0.00000000  0.69509800  0.25000000  1
  Mo  Mo9  1  0.00000000  0.30490200  0.75000000  1
  Mo  Mo10  1  0.50000000  0.19509800  0.25000000  1
  Mo  Mo11  1  0.50000000  0.80490200  0.75000000  1
  P  P12  1  0.72715450  0.67604150  0.07553800  1
  P  P13  1  0.77284550  0.17604150  0.42446200  1
  P  P14  1  0.27284550  0.32395850  0.92446200  1
  P  P15  1  0.22715450  0.82395850  0.57553800  1
  P  P16  1  0.06107500  0.36028900  0.16613400  1
  P  P17  1  0.93892500  0.36028900  0.33386600  1
  P  P18  1  0.34776850  0.67673250  0.76001400  1
  P  P19  1  0.15223150  0.17673250  0.73998600  1
  P  P20  1  0.65223150  0.32326750  0.23998600  1
  P  P21  1  0.84776850  0.82326750  0.26001400  1
  P  P22  1  0.03340550  0.95611750  0.92601700  1
  P  P23  1  0.96659450  0.95611750  0.57398300  1
  P  P24  1  0.96659450  0.04388250  0.07398300  1
  P  P25  1  0.03340550  0.04388250  0.42601700  1
  P  P26  1  0.11628500  0.55149400  0.50299200  1
  P  P27  1  0.38371500  0.05149400  0.99700800  1
  P  P28  1  0.88371500  0.44850600  0.49700800  1
  P  P29  1  0.61628500  0.94850600  0.00299200  1
  P  P30  1  0.17784800  0.82508900  0.83527400  1
  P  P31  1  0.32215200  0.32508900  0.66472600  1
  P  P32  1  0.82215200  0.17491100  0.16472600  1
  P  P33  1  0.67784800  0.67491100  0.33527400  1
  P  P34  1  0.06107500  0.63971100  0.66613400  1
  P  P35  1  0.93892500  0.63971100  0.83386600  1
  P  P36  1  0.22715450  0.17604150  0.07553800  1
  P  P37  1  0.27284550  0.67604150  0.42446200  1
  P  P38  1  0.77284550  0.82395850  0.92446200  1
  P  P39  1  0.72715450  0.32395850  0.57553800  1
  P  P40  1  0.56107500  0.86028900  0.16613400  1
  P  P41  1  0.43892500  0.86028900  0.33386600  1
  P  P42  1  0.84776850  0.17673250  0.76001400  1
  P  P43  1  0.65223150  0.67673250  0.73998600  1
  P  P44  1  0.15223150  0.82326750  0.23998600  1
  P  P45  1  0.34776850  0.32326750  0.26001400  1
  P  P46  1  0.53340550  0.45611750  0.92601700  1
  P  P47  1  0.46659450  0.45611750  0.57398300  1
  P  P48  1  0.46659450  0.54388250  0.07398300  1
  P  P49  1  0.53340550  0.54388250  0.42601700  1
  P  P50  1  0.61628500  0.05149400  0.50299200  1
  P  P51  1  0.88371500  0.55149400  0.99700800  1
  P  P52  1  0.38371500  0.94850600  0.49700800  1
  P  P53  1  0.11628500  0.44850600  0.00299200  1
  P  P54  1  0.67784800  0.32508900  0.83527400  1
  P  P55  1  0.82215200  0.82508900  0.66472600  1
  P  P56  1  0.32215200  0.67491100  0.16472600  1
  P  P57  1  0.17784800  0.17491100  0.33527400  1
  P  P58  1  0.56107500  0.13971100  0.66613400  1
  P  P59  1  0.43892500  0.13971100  0.83386600  1
