# generated using pymatgen
data_PdF4
_symmetry_space_group_name_H-M   'P 1'
_cell_length_a   6.04991000
_cell_length_b   9.38284000
_cell_length_c   9.54271000
_cell_angle_alpha   90.00000000
_cell_angle_beta   90.00000000
_cell_angle_gamma   90.00000000
_symmetry_Int_Tables_number   1
_chemical_formula_structural   PdF4
_chemical_formula_sum   'Pd8 F32'
_cell_volume   541.69515424
_cell_formula_units_Z   8
loop_
 _symmetry_equiv_pos_site_id
 _symmetry_equiv_pos_as_xyz
  1  'x, y, z'
loop_
 _atom_site_type_symbol
 _atom_site_label
 _atom_site_symmetry_multiplicity
 _atom_site_fract_x
 _atom_site_fract_y
 _atom_site_fract_z
 _atom_site_occupancy
  Pd  Pd0  1  0.73820600  0.00000000  0.50000000  1
  Pd  Pd1  1  0.48820600  0.75000000  0.75000000  1
  Pd  Pd2  1  0.23820600  0.00000000  0.00000000  1
  Pd  Pd3  1  0.98820600  0.75000000  0.25000000  1
  Pd  Pd4  1  0.23820600  0.50000000  0.50000000  1
  Pd  Pd5  1  0.98820600  0.25000000  0.75000000  1
  Pd  Pd6  1  0.73820600  0.50000000  0.00000000  1
  Pd  Pd7  1  0.48820600  0.25000000  0.25000000  1
  F  F8  1  0.27508500  0.85980500  0.65556100  1
  F  F9  1  0.27508500  0.64019500  0.84443900  1
  F  F10  1  0.99431200  0.10936300  0.59421600  1
  F  F11  1  0.49431200  0.89063700  0.90578400  1
  F  F12  1  0.24431200  0.14063700  0.84421600  1
  F  F13  1  0.24431200  0.35936300  0.65578400  1
  F  F14  1  0.02508500  0.60980500  0.59443900  1
  F  F15  1  0.02508500  0.89019500  0.90556100  1
  F  F16  1  0.77508500  0.85980500  0.15556100  1
  F  F17  1  0.77508500  0.64019500  0.34443900  1
  F  F18  1  0.49431200  0.10936300  0.09421600  1
  F  F19  1  0.99431200  0.89063700  0.40578400  1
  F  F20  1  0.74431200  0.14063700  0.34421600  1
  F  F21  1  0.74431200  0.35936300  0.15578400  1
  F  F22  1  0.52508500  0.60980500  0.09443900  1
  F  F23  1  0.52508500  0.89019500  0.40556100  1
  F  F24  1  0.77508500  0.35980500  0.65556100  1
  F  F25  1  0.77508500  0.14019500  0.84443900  1
  F  F26  1  0.49431200  0.60936300  0.59421600  1
  F  F27  1  0.99431200  0.39063700  0.90578400  1
  F  F28  1  0.74431200  0.64063700  0.84421600  1
  F  F29  1  0.74431200  0.85936300  0.65578400  1
  F  F30  1  0.52508500  0.10980500  0.59443900  1
  F  F31  1  0.52508500  0.39019500  0.90556100  1
  F  F32  1  0.27508500  0.35980500  0.15556100  1
  F  F33  1  0.27508500  0.14019500  0.34443900  1
  F  F34  1  0.99431200  0.60936300  0.09421600  1
  F  F35  1  0.49431200  0.39063700  0.40578400  1
  F  F36  1  0.24431200  0.64063700  0.34421600  1
  F  F37  1  0.24431200  0.85936300  0.15578400  1
  F  F38  1  0.02508500  0.10980500  0.09443900  1
  F  F39  1  0.02508500  0.39019500  0.40556100  1
