# generated using pymatgen
data_Na2GeF6
_symmetry_space_group_name_H-M   'P 1'
_cell_length_a   9.23232303
_cell_length_b   9.23232303
_cell_length_c   5.19043900
_cell_angle_alpha   90.00000000
_cell_angle_beta   90.00000000
_cell_angle_gamma   120.00000000
_symmetry_Int_Tables_number   1
_chemical_formula_structural   Na2GeF6
_chemical_formula_sum   'Na6 Ge3 F18'
_cell_volume   383.13930434
_cell_formula_units_Z   3
loop_
 _symmetry_equiv_pos_site_id
 _symmetry_equiv_pos_as_xyz
  1  'x, y, z'
loop_
 _atom_site_type_symbol
 _atom_site_label
 _atom_site_symmetry_multiplicity
 _atom_site_fract_x
 _atom_site_fract_y
 _atom_site_fract_z
 _atom_site_occupancy
  Na  Na0  1  0.62501700  0.62501700  0.00000000  1
  Na  Na1  1  0.00000000  0.37498300  0.00000000  1
  Na  Na2  1  0.37498300  0.00000000  0.00000000  1
  Na  Na3  1  0.29031300  0.29031300  0.50000000  1
  Na  Na4  1  0.00000000  0.70968700  0.50000000  1
  Na  Na5  1  0.70968700  0.00000000  0.50000000  1
  Ge  Ge6  1  0.66666667  0.33333333  0.50477400  1
  Ge  Ge7  1  0.33333333  0.66666667  0.49522600  1
  Ge  Ge8  1  0.00000000  0.00000000  0.00000000  1
  F  F9  1  0.08637500  0.18845000  0.20064700  1
  F  F10  1  0.81155000  0.89792500  0.20064700  1
  F  F11  1  0.10207500  0.91362500  0.20064700  1
  F  F12  1  0.89792500  0.81155000  0.79935300  1
  F  F13  1  0.91362500  0.10207500  0.79935300  1
  F  F14  1  0.18845000  0.08637500  0.79935300  1
  F  F15  1  0.55326000  0.40677700  0.70761300  1
  F  F16  1  0.59322300  0.14648300  0.70761300  1
  F  F17  1  0.85351700  0.44674000  0.70761300  1
  F  F18  1  0.47873400  0.22482800  0.30260700  1
  F  F19  1  0.77517200  0.25390600  0.30260700  1
  F  F20  1  0.74609400  0.52126600  0.30260700  1
  F  F21  1  0.25390600  0.77517200  0.69739300  1
  F  F22  1  0.52126600  0.74609400  0.69739300  1
  F  F23  1  0.22482800  0.47873400  0.69739300  1
  F  F24  1  0.40677700  0.55326000  0.29238700  1
  F  F25  1  0.44674000  0.85351700  0.29238700  1
  F  F26  1  0.14648300  0.59322300  0.29238700  1
