# generated using pymatgen
data_Sr2Cu(SeO3)3
_symmetry_space_group_name_H-M   'P 1'
_cell_length_a   7.32926900
_cell_length_b   7.89418920
_cell_length_c   8.77806827
_cell_angle_alpha   102.26333304
_cell_angle_beta   105.34951555
_cell_angle_gamma   96.66863653
_symmetry_Int_Tables_number   1
_chemical_formula_structural   Sr2Cu(SeO3)3
_chemical_formula_sum   'Sr4 Cu2 Se6 O18'
_cell_volume   470.52126120
_cell_formula_units_Z   2
loop_
 _symmetry_equiv_pos_site_id
 _symmetry_equiv_pos_as_xyz
  1  'x, y, z'
loop_
 _atom_site_type_symbol
 _atom_site_label
 _atom_site_symmetry_multiplicity
 _atom_site_fract_x
 _atom_site_fract_y
 _atom_site_fract_z
 _atom_site_occupancy
  Sr  Sr0  1  0.62437200  0.48444700  0.80737600  1
  Sr  Sr1  1  0.37562800  0.51555300  0.19262400  1
  Sr  Sr2  1  0.75886300  0.90989500  0.60921000  1
  Sr  Sr3  1  0.24113700  0.09010500  0.39079000  1
  Cu  Cu4  1  0.08561600  0.34106700  0.74757800  1
  Cu  Cu5  1  0.91438400  0.65893300  0.25242200  1
  Se  Se6  1  0.89992400  0.20210200  0.03001800  1
  Se  Se7  1  0.22679800  0.63129300  0.58675600  1
  Se  Se8  1  0.36516700  0.08175300  0.79536000  1
  Se  Se9  1  0.63483300  0.91824700  0.20464000  1
  Se  Se10  1  0.77320200  0.36870700  0.41324400  1
  Se  Se11  1  0.10007600  0.79789800  0.96998200  1
  O  O12  1  0.17100300  0.62296800  0.37943900  1
  O  O13  1  0.82899700  0.37703200  0.62056100  1
  O  O14  1  0.22330400  0.40655800  0.59019400  1
  O  O15  1  0.77669600  0.59344200  0.40980600  1
  O  O16  1  0.47092800  0.70144400  0.64857000  1
  O  O17  1  0.52907200  0.29855600  0.35143000  1
  O  O18  1  0.05754200  0.81846700  0.15867800  1
  O  O19  1  0.94245800  0.18153300  0.84132200  1
  O  O20  1  0.18450400  0.60268600  0.94230400  1
  O  O21  1  0.81549600  0.39731400  0.05769600  1
  O  O22  1  0.87467300  0.75166100  0.83341900  1
  O  O23  1  0.12532700  0.24833900  0.16658100  1
  O  O24  1  0.48459700  0.87070100  0.31800600  1
  O  O25  1  0.51540300  0.12929900  0.68199400  1
  O  O26  1  0.84741100  0.99823100  0.35816800  1
  O  O27  1  0.15258900  0.00176900  0.64183200  1
  O  O28  1  0.66155600  0.70173100  0.11911300  1
  O  O29  1  0.33844400  0.29826900  0.88088700  1
