# generated using pymatgen
data_Sr2VN3
_symmetry_space_group_name_H-M   'P 1'
_cell_length_a   5.75561800
_cell_length_b   11.07400200
_cell_length_c   12.36163624
_cell_angle_alpha   90.00000000
_cell_angle_beta   90.78636543
_cell_angle_gamma   90.00000000
_symmetry_Int_Tables_number   1
_chemical_formula_structural   Sr2VN3
_chemical_formula_sum   'Sr16 V8 N24'
_cell_volume   787.82836821
_cell_formula_units_Z   8
loop_
 _symmetry_equiv_pos_site_id
 _symmetry_equiv_pos_as_xyz
  1  'x, y, z'
loop_
 _atom_site_type_symbol
 _atom_site_label
 _atom_site_symmetry_multiplicity
 _atom_site_fract_x
 _atom_site_fract_y
 _atom_site_fract_z
 _atom_site_occupancy
  Sr  Sr0  1  0.25248300  0.69745400  0.14575500  1
  Sr  Sr1  1  0.75248300  0.80254600  0.64575500  1
  Sr  Sr2  1  0.24751700  0.80254600  0.85424500  1
  Sr  Sr3  1  0.74751700  0.69745400  0.35424500  1
  Sr  Sr4  1  0.25603850  0.61056350  0.57743300  1
  Sr  Sr5  1  0.74396150  0.61056350  0.92256700  1
  Sr  Sr6  1  0.24396150  0.88943650  0.42256700  1
  Sr  Sr7  1  0.75603850  0.88943650  0.07743300  1
  Sr  Sr8  1  0.75248300  0.19745400  0.14575500  1
  Sr  Sr9  1  0.25248300  0.30254600  0.64575500  1
  Sr  Sr10  1  0.74751700  0.30254600  0.85424500  1
  Sr  Sr11  1  0.24751700  0.19745400  0.35424500  1
  Sr  Sr12  1  0.75603850  0.11056350  0.57743300  1
  Sr  Sr13  1  0.24396150  0.11056350  0.92256700  1
  Sr  Sr14  1  0.74396150  0.38943650  0.42256700  1
  Sr  Sr15  1  0.25603850  0.38943650  0.07743300  1
  V  V16  1  0.24386900  0.50271500  0.33605000  1
  V  V17  1  0.25613100  0.99728500  0.66395000  1
  V  V18  1  0.75613100  0.50271500  0.16395000  1
  V  V19  1  0.74386900  0.99728500  0.83605000  1
  V  V20  1  0.74386900  0.00271500  0.33605000  1
  V  V21  1  0.75613100  0.49728500  0.66395000  1
  V  V22  1  0.25613100  0.00271500  0.16395000  1
  V  V23  1  0.24386900  0.49728500  0.83605000  1
  N  N24  1  0.26304050  0.58951450  0.95385400  1
  N  N25  1  0.73695950  0.58951450  0.54614600  1
  N  N26  1  0.23695950  0.91048550  0.04614600  1
  N  N27  1  0.76304050  0.91048550  0.45385400  1
  N  N28  1  0.50000000  0.52022900  0.75000000  1
  N  N29  1  0.00000000  0.97977100  0.25000000  1
  N  N30  1  0.00000000  0.55296000  0.75000000  1
  N  N31  1  0.78156300  0.66078300  0.13266200  1
  N  N32  1  0.28156300  0.83921700  0.63266200  1
  N  N33  1  0.71843700  0.83921700  0.86733800  1
  N  N34  1  0.21843700  0.66078300  0.36733800  1
  N  N35  1  0.50000000  0.94704000  0.25000000  1
  N  N36  1  0.76304050  0.08951450  0.95385400  1
  N  N37  1  0.23695950  0.08951450  0.54614600  1
  N  N38  1  0.73695950  0.41048550  0.04614600  1
  N  N39  1  0.26304050  0.41048550  0.45385400  1
  N  N40  1  0.00000000  0.02022900  0.75000000  1
  N  N41  1  0.50000000  0.47977100  0.25000000  1
  N  N42  1  0.50000000  0.05296000  0.75000000  1
  N  N43  1  0.28156300  0.16078300  0.13266200  1
  N  N44  1  0.78156300  0.33921700  0.63266200  1
  N  N45  1  0.21843700  0.33921700  0.86733800  1
  N  N46  1  0.71843700  0.16078300  0.36733800  1
  N  N47  1  0.00000000  0.44704000  0.25000000  1
