# generated using pymatgen
data_NaErPO4F
_symmetry_space_group_name_H-M   'P 1'
_cell_length_a   8.95937200
_cell_length_b   6.94817000
_cell_length_c   6.50182419
_cell_angle_alpha   90.00000000
_cell_angle_beta   106.17150749
_cell_angle_gamma   90.00000000
_symmetry_Int_Tables_number   1
_chemical_formula_structural   NaErPO4F
_chemical_formula_sum   'Na4 Er4 P4 O16 F4'
_cell_volume   388.73172619
_cell_formula_units_Z   4
loop_
 _symmetry_equiv_pos_site_id
 _symmetry_equiv_pos_as_xyz
  1  'x, y, z'
loop_
 _atom_site_type_symbol
 _atom_site_label
 _atom_site_symmetry_multiplicity
 _atom_site_fract_x
 _atom_site_fract_y
 _atom_site_fract_z
 _atom_site_occupancy
  Na  Na0  1  0.00000000  0.70720200  0.50000000  1
  Na  Na1  1  0.00000000  0.29279800  0.50000000  1
  Na  Na2  1  0.50000000  0.20720200  0.50000000  1
  Na  Na3  1  0.50000000  0.79279800  0.50000000  1
  Er  Er4  1  0.21705400  0.50000000  0.11613500  1
  Er  Er5  1  0.78294600  0.50000000  0.88386500  1
  Er  Er6  1  0.71705400  0.00000000  0.11613500  1
  Er  Er7  1  0.28294600  0.00000000  0.88386500  1
  P  P8  1  0.65425300  0.50000000  0.27613900  1
  P  P9  1  0.34574700  0.50000000  0.72386100  1
  P  P10  1  0.15425300  0.00000000  0.27613900  1
  P  P11  1  0.84574700  0.00000000  0.72386100  1
  O  O12  1  0.69626050  0.67646250  0.15461300  1
  O  O13  1  0.30373950  0.67646250  0.84538700  1
  O  O14  1  0.48097400  0.50000000  0.26969400  1
  O  O15  1  0.51902600  0.50000000  0.73030600  1
  O  O16  1  0.75686700  0.50000000  0.51020900  1
  O  O17  1  0.24313300  0.50000000  0.48979100  1
  O  O18  1  0.30373950  0.32353750  0.84538700  1
  O  O19  1  0.69626050  0.32353750  0.15461300  1
  O  O20  1  0.19626050  0.17646250  0.15461300  1
  O  O21  1  0.80373950  0.17646250  0.84538700  1
  O  O22  1  0.98097400  0.00000000  0.26969400  1
  O  O23  1  0.01902600  0.00000000  0.73030600  1
  O  O24  1  0.25686700  0.00000000  0.51020900  1
  O  O25  1  0.74313300  0.00000000  0.48979100  1
  O  O26  1  0.80373950  0.82353750  0.84538700  1
  O  O27  1  0.19626050  0.82353750  0.15461300  1
  F  F28  1  0.98224700  0.50000000  0.18738100  1
  F  F29  1  0.01775300  0.50000000  0.81261900  1
  F  F30  1  0.48224700  0.00000000  0.18738100  1
  F  F31  1  0.51775300  0.00000000  0.81261900  1
