# generated using pymatgen
data_CsZn4(BO3)3
_symmetry_space_group_name_H-M   'P 1'
_cell_length_a   7.00511900
_cell_length_b   5.07204000
_cell_length_c   13.17553717
_cell_angle_alpha   90.00000000
_cell_angle_beta   93.42345326
_cell_angle_gamma   90.00000000
_symmetry_Int_Tables_number   1
_chemical_formula_structural   CsZn4(BO3)3
_chemical_formula_sum   'Cs2 Zn8 B6 O18'
_cell_volume   467.29465436
_cell_formula_units_Z   2
loop_
 _symmetry_equiv_pos_site_id
 _symmetry_equiv_pos_as_xyz
  1  'x, y, z'
loop_
 _atom_site_type_symbol
 _atom_site_label
 _atom_site_symmetry_multiplicity
 _atom_site_fract_x
 _atom_site_fract_y
 _atom_site_fract_z
 _atom_site_occupancy
  Cs  Cs0  1  0.00000000  0.73457600  0.75000000  1
  Cs  Cs1  1  0.00000000  0.26542400  0.25000000  1
  Zn  Zn2  1  0.78941400  0.83094600  0.43943500  1
  Zn  Zn3  1  0.21058600  0.83094600  0.06056500  1
  Zn  Zn4  1  0.21058600  0.16905400  0.56056500  1
  Zn  Zn5  1  0.78941400  0.16905400  0.93943500  1
  Zn  Zn6  1  0.48849600  0.64702800  0.62573000  1
  Zn  Zn7  1  0.51150400  0.64702800  0.87427000  1
  Zn  Zn8  1  0.51150400  0.35297200  0.37427000  1
  Zn  Zn9  1  0.48849600  0.35297200  0.12573000  1
  B  B10  1  0.50000000  0.15249800  0.75000000  1
  B  B11  1  0.50000000  0.84750200  0.25000000  1
  B  B12  1  0.19273400  0.65534500  0.45800300  1
  B  B13  1  0.80726600  0.65534500  0.04199700  1
  B  B14  1  0.80726600  0.34465500  0.54199700  1
  B  B15  1  0.19273400  0.34465500  0.95800300  1
  O  O16  1  0.27737700  0.79988400  0.53920700  1
  O  O17  1  0.72262300  0.79988400  0.96079300  1
  O  O18  1  0.72262300  0.20011600  0.46079300  1
  O  O19  1  0.27737700  0.20011600  0.03920700  1
  O  O20  1  0.50000000  0.87664600  0.75000000  1
  O  O21  1  0.50000000  0.12335400  0.25000000  1
  O  O22  1  0.72900800  0.59840200  0.55771900  1
  O  O23  1  0.27099200  0.59840200  0.94228100  1
  O  O24  1  0.27099200  0.40159800  0.44228100  1
  O  O25  1  0.72900800  0.40159800  0.05771900  1
  O  O26  1  0.40601400  0.29004000  0.67105500  1
  O  O27  1  0.59398600  0.29004000  0.82894500  1
  O  O28  1  0.59398600  0.70996000  0.32894500  1
  O  O29  1  0.40601400  0.70996000  0.17105500  1
  O  O30  1  0.04311300  0.74776300  0.39863500  1
  O  O31  1  0.95688700  0.74776300  0.10136500  1
  O  O32  1  0.95688700  0.25223700  0.60136500  1
  O  O33  1  0.04311300  0.25223700  0.89863500  1
