# generated using pymatgen
data_KAuF6
_symmetry_space_group_name_H-M   'P 1'
_cell_length_a   7.84312061
_cell_length_b   7.84312061
_cell_length_c   7.48355979
_cell_angle_alpha   90.00000000
_cell_angle_beta   90.00000000
_cell_angle_gamma   120.00000000
_symmetry_Int_Tables_number   1
_chemical_formula_structural   KAuF6
_chemical_formula_sum   'K3 Au3 F18'
_cell_volume   398.67284148
_cell_formula_units_Z   3
loop_
 _symmetry_equiv_pos_site_id
 _symmetry_equiv_pos_as_xyz
  1  'x, y, z'
loop_
 _atom_site_type_symbol
 _atom_site_label
 _atom_site_symmetry_multiplicity
 _atom_site_fract_x
 _atom_site_fract_y
 _atom_site_fract_z
 _atom_site_occupancy
  K  K0  1  0.00000000  0.00000000  0.50000000  1
  K  K1  1  0.66666667  0.33333333  0.83333333  1
  K  K2  1  0.33333333  0.66666667  0.16666667  1
  Au  Au3  1  0.00000000  0.00000000  0.00000000  1
  Au  Au4  1  0.66666667  0.33333333  0.33333333  1
  Au  Au5  1  0.33333333  0.66666667  0.66666667  1
  F  F6  1  0.21895333  0.43790667  0.50897267  1
  F  F7  1  0.56209333  0.78104667  0.50897267  1
  F  F8  1  0.78104667  0.21895333  0.49102733  1
  F  F9  1  0.43790667  0.21895333  0.49102733  1
  F  F10  1  0.78104667  0.56209333  0.49102733  1
  F  F11  1  0.21895333  0.78104667  0.50897267  1
  F  F12  1  0.88562000  0.77124000  0.84230600  1
  F  F13  1  0.22876000  0.11438000  0.84230600  1
  F  F14  1  0.44771333  0.55228667  0.82436067  1
  F  F15  1  0.10457333  0.55228667  0.82436067  1
  F  F16  1  0.44771333  0.89542667  0.82436067  1
  F  F17  1  0.88562000  0.11438000  0.84230600  1
  F  F18  1  0.55228667  0.10457333  0.17563933  1
  F  F19  1  0.89542667  0.44771333  0.17563933  1
  F  F20  1  0.11438000  0.88562000  0.15769400  1
  F  F21  1  0.77124000  0.88562000  0.15769400  1
  F  F22  1  0.11438000  0.22876000  0.15769400  1
  F  F23  1  0.55228667  0.44771333  0.17563933  1
