# generated using pymatgen
data_NaS2
_symmetry_space_group_name_H-M   'P 1'
_cell_length_a   9.69314600
_cell_length_b   9.69314600
_cell_length_c   11.97410000
_cell_angle_alpha   90.00000000
_cell_angle_beta   90.00000000
_cell_angle_gamma   90.00000000
_symmetry_Int_Tables_number   1
_chemical_formula_structural   NaS2
_chemical_formula_sum   'Na16 S32'
_cell_volume   1125.05146417
_cell_formula_units_Z   16
loop_
 _symmetry_equiv_pos_site_id
 _symmetry_equiv_pos_as_xyz
  1  'x, y, z'
loop_
 _atom_site_type_symbol
 _atom_site_label
 _atom_site_symmetry_multiplicity
 _atom_site_fract_x
 _atom_site_fract_y
 _atom_site_fract_z
 _atom_site_occupancy
  Na  Na0  1  0.00000000  0.50000000  0.42016200  1
  Na  Na1  1  0.00000000  0.50000000  0.07983800  1
  Na  Na2  1  0.00000000  0.00000000  0.82983800  1
  Na  Na3  1  0.00000000  0.00000000  0.17016200  1
  Na  Na4  1  0.25000000  0.27318500  0.87500000  1
  Na  Na5  1  0.77318500  0.25000000  0.62500000  1
  Na  Na6  1  0.72681500  0.25000000  0.12500000  1
  Na  Na7  1  0.25000000  0.22681500  0.37500000  1
  Na  Na8  1  0.50000000  0.00000000  0.92016200  1
  Na  Na9  1  0.50000000  0.00000000  0.57983800  1
  Na  Na10  1  0.50000000  0.50000000  0.32983800  1
  Na  Na11  1  0.50000000  0.50000000  0.67016200  1
  Na  Na12  1  0.75000000  0.77318500  0.37500000  1
  Na  Na13  1  0.27318500  0.75000000  0.12500000  1
  Na  Na14  1  0.22681500  0.75000000  0.62500000  1
  Na  Na15  1  0.75000000  0.72681500  0.87500000  1
  S  S16  1  0.24854300  0.03288800  0.04556800  1
  S  S17  1  0.53288800  0.25145700  0.45443200  1
  S  S18  1  0.46711200  0.74854300  0.45443200  1
  S  S19  1  0.24854300  0.46711200  0.20443200  1
  S  S20  1  0.25145700  0.03288800  0.70443200  1
  S  S21  1  0.75145700  0.96711200  0.04556800  1
  S  S22  1  0.96711200  0.25145700  0.29556800  1
  S  S23  1  0.53288800  0.24854300  0.79556800  1
  S  S24  1  0.38199250  0.14687850  0.14691950  1
  S  S25  1  0.64687850  0.11800750  0.35308050  1
  S  S26  1  0.35312150  0.88199250  0.35308050  1
  S  S27  1  0.38199250  0.35312150  0.10308050  1
  S  S28  1  0.11800750  0.14687850  0.60308050  1
  S  S29  1  0.61800750  0.85312150  0.14691950  1
  S  S30  1  0.35312150  0.61800750  0.89691950  1
  S  S31  1  0.14687850  0.88199250  0.39691950  1
  S  S32  1  0.74854300  0.53288800  0.54556800  1
  S  S33  1  0.03288800  0.75145700  0.95443200  1
  S  S34  1  0.96711200  0.24854300  0.95443200  1
  S  S35  1  0.74854300  0.96711200  0.70443200  1
  S  S36  1  0.75145700  0.53288800  0.20443200  1
  S  S37  1  0.25145700  0.46711200  0.54556800  1
  S  S38  1  0.46711200  0.75145700  0.79556800  1
  S  S39  1  0.03288800  0.74854300  0.29556800  1
  S  S40  1  0.88199250  0.64687850  0.64691950  1
  S  S41  1  0.14687850  0.61800750  0.85308050  1
  S  S42  1  0.85312150  0.38199250  0.85308050  1
  S  S43  1  0.88199250  0.85312150  0.60308050  1
  S  S44  1  0.61800750  0.64687850  0.10308050  1
  S  S45  1  0.11800750  0.35312150  0.64691950  1
  S  S46  1  0.85312150  0.11800750  0.39691950  1
  S  S47  1  0.64687850  0.38199250  0.89691950  1
