# generated using pymatgen
data_Ba2LaTaO6
_symmetry_space_group_name_H-M   'P 1'
_cell_length_a   10.62278600
_cell_length_b   6.14851000
_cell_length_c   6.20929437
_cell_angle_alpha   90.00000000
_cell_angle_beta   125.11305155
_cell_angle_gamma   90.00000000
_symmetry_Int_Tables_number   1
_chemical_formula_structural   Ba2LaTaO6
_chemical_formula_sum   'Ba4 La2 Ta2 O12'
_cell_volume   331.75219518
_cell_formula_units_Z   2
loop_
 _symmetry_equiv_pos_site_id
 _symmetry_equiv_pos_as_xyz
  1  'x, y, z'
loop_
 _atom_site_type_symbol
 _atom_site_label
 _atom_site_symmetry_multiplicity
 _atom_site_fract_x
 _atom_site_fract_y
 _atom_site_fract_z
 _atom_site_occupancy
  Ba  Ba0  1  0.24809000  0.00000000  0.74112800  1
  Ba  Ba1  1  0.25191000  0.50000000  0.25887200  1
  Ba  Ba2  1  0.74809000  0.50000000  0.74112800  1
  Ba  Ba3  1  0.75191000  0.00000000  0.25887200  1
  La  La4  1  0.00000000  0.00000000  0.00000000  1
  La  La5  1  0.50000000  0.50000000  0.00000000  1
  Ta  Ta6  1  0.50000000  0.00000000  0.50000000  1
  Ta  Ta7  1  0.00000000  0.50000000  0.50000000  1
  O  O8  1  0.96244400  0.73136700  0.68854700  1
  O  O9  1  0.03755600  0.73136700  0.31145300  1
  O  O10  1  0.53755600  0.76863300  0.31145300  1
  O  O11  1  0.46244400  0.76863300  0.68854700  1
  O  O12  1  0.77289400  0.50000000  0.20474800  1
  O  O13  1  0.72710600  0.00000000  0.79525200  1
  O  O14  1  0.46244400  0.23136700  0.68854700  1
  O  O15  1  0.53755600  0.23136700  0.31145300  1
  O  O16  1  0.03755600  0.26863300  0.31145300  1
  O  O17  1  0.96244400  0.26863300  0.68854700  1
  O  O18  1  0.27289400  0.00000000  0.20474800  1
  O  O19  1  0.22710600  0.50000000  0.79525200  1
