# generated using pymatgen
data_Ca2Sb2O7
_symmetry_space_group_name_H-M   'P 1'
_cell_length_a   7.40481400
_cell_length_b   7.56054800
_cell_length_c   10.34738200
_cell_angle_alpha   90.00000000
_cell_angle_beta   90.00000000
_cell_angle_gamma   90.00000000
_symmetry_Int_Tables_number   1
_chemical_formula_structural   Ca2Sb2O7
_chemical_formula_sum   'Ca8 Sb8 O28'
_cell_volume   579.29250757
_cell_formula_units_Z   4
loop_
 _symmetry_equiv_pos_site_id
 _symmetry_equiv_pos_as_xyz
  1  'x, y, z'
loop_
 _atom_site_type_symbol
 _atom_site_label
 _atom_site_symmetry_multiplicity
 _atom_site_fract_x
 _atom_site_fract_y
 _atom_site_fract_z
 _atom_site_occupancy
  Ca  Ca0  1  0.25000000  0.75000000  0.75000000  1
  Ca  Ca1  1  0.25000000  0.25000000  0.25000000  1
  Ca  Ca2  1  0.00000000  0.00000000  0.00000000  1
  Ca  Ca3  1  0.00000000  0.00000000  0.50000000  1
  Ca  Ca4  1  0.75000000  0.25000000  0.25000000  1
  Ca  Ca5  1  0.75000000  0.75000000  0.75000000  1
  Ca  Ca6  1  0.50000000  0.50000000  0.50000000  1
  Ca  Ca7  1  0.50000000  0.50000000  0.00000000  1
  Sb  Sb8  1  0.75000000  0.75000000  0.25000000  1
  Sb  Sb9  1  0.25000000  0.75000000  0.25000000  1
  Sb  Sb10  1  0.00000000  0.50000000  0.00000000  1
  Sb  Sb11  1  0.50000000  0.00000000  0.00000000  1
  Sb  Sb12  1  0.25000000  0.25000000  0.75000000  1
  Sb  Sb13  1  0.75000000  0.25000000  0.75000000  1
  Sb  Sb14  1  0.50000000  0.00000000  0.50000000  1
  Sb  Sb15  1  0.00000000  0.50000000  0.50000000  1
  O  O16  1  0.21012400  0.43806000  0.88181800  1
  O  O17  1  0.21012400  0.56194000  0.11818200  1
  O  O18  1  0.28987600  0.93806000  0.11818200  1
  O  O19  1  0.78987600  0.56194000  0.38181800  1
  O  O20  1  0.28987600  0.06194000  0.61818200  1
  O  O21  1  0.28987600  0.93806000  0.38181800  1
  O  O22  1  0.21012400  0.56194000  0.38181800  1
  O  O23  1  0.71012400  0.93806000  0.11818200  1
  O  O24  1  0.50000000  0.65137700  0.25000000  1
  O  O25  1  0.00000000  0.84862300  0.25000000  1
  O  O26  1  0.50000000  0.22915400  0.40583700  1
  O  O27  1  0.00000000  0.27084600  0.09416300  1
  O  O28  1  0.00000000  0.72915400  0.59416300  1
  O  O29  1  0.50000000  0.77084600  0.90583700  1
  O  O30  1  0.71012400  0.93806000  0.38181800  1
  O  O31  1  0.71012400  0.06194000  0.61818200  1
  O  O32  1  0.78987600  0.43806000  0.61818200  1
  O  O33  1  0.28987600  0.06194000  0.88181800  1
  O  O34  1  0.78987600  0.56194000  0.11818200  1
  O  O35  1  0.78987600  0.43806000  0.88181800  1
  O  O36  1  0.71012400  0.06194000  0.88181800  1
  O  O37  1  0.21012400  0.43806000  0.61818200  1
  O  O38  1  0.00000000  0.15137700  0.75000000  1
  O  O39  1  0.50000000  0.34862300  0.75000000  1
  O  O40  1  0.00000000  0.72915400  0.90583700  1
  O  O41  1  0.50000000  0.77084600  0.59416300  1
  O  O42  1  0.50000000  0.22915400  0.09416300  1
  O  O43  1  0.00000000  0.27084600  0.40583700  1
