# generated using pymatgen
data_Ba2CaWO6
_symmetry_space_group_name_H-M   'P 1'
_cell_length_a   6.02407400
_cell_length_b   6.02407400
_cell_length_c   8.53708000
_cell_angle_alpha   90.00000000
_cell_angle_beta   90.00000000
_cell_angle_gamma   90.00000000
_symmetry_Int_Tables_number   1
_chemical_formula_structural   Ba2CaWO6
_chemical_formula_sum   'Ba4 Ca2 W2 O12'
_cell_volume   309.80608770
_cell_formula_units_Z   2
loop_
 _symmetry_equiv_pos_site_id
 _symmetry_equiv_pos_as_xyz
  1  'x, y, z'
loop_
 _atom_site_type_symbol
 _atom_site_label
 _atom_site_symmetry_multiplicity
 _atom_site_fract_x
 _atom_site_fract_y
 _atom_site_fract_z
 _atom_site_occupancy
  Ba  Ba0  1  0.50000000  0.00000000  0.25000000  1
  Ba  Ba1  1  0.00000000  0.50000000  0.25000000  1
  Ba  Ba2  1  0.00000000  0.50000000  0.75000000  1
  Ba  Ba3  1  0.50000000  0.00000000  0.75000000  1
  Ca  Ca4  1  0.00000000  0.00000000  0.00000000  1
  Ca  Ca5  1  0.50000000  0.50000000  0.50000000  1
  W  W6  1  0.50000000  0.50000000  0.00000000  1
  W  W7  1  0.00000000  0.00000000  0.50000000  1
  O  O8  1  0.00000000  0.00000000  0.27034000  1
  O  O9  1  0.50000000  0.50000000  0.22966000  1
  O  O10  1  0.27920700  0.26090500  0.00000000  1
  O  O11  1  0.72079300  0.73909500  0.00000000  1
  O  O12  1  0.73909500  0.27920700  0.00000000  1
  O  O13  1  0.26090500  0.72079300  0.00000000  1
  O  O14  1  0.50000000  0.50000000  0.77034000  1
  O  O15  1  0.00000000  0.00000000  0.72966000  1
  O  O16  1  0.77920700  0.76090500  0.50000000  1
  O  O17  1  0.22079300  0.23909500  0.50000000  1
  O  O18  1  0.23909500  0.77920700  0.50000000  1
  O  O19  1  0.76090500  0.22079300  0.50000000  1
