# generated using pymatgen
data_BaDy2CoO5
_symmetry_space_group_name_H-M   'P 1'
_cell_length_a   5.76064900
_cell_length_b   7.13412800
_cell_length_c   12.37552600
_cell_angle_alpha   90.00000000
_cell_angle_beta   90.00000000
_cell_angle_gamma   90.00000000
_symmetry_Int_Tables_number   1
_chemical_formula_structural   BaDy2CoO5
_chemical_formula_sum   'Ba4 Dy8 Co4 O20'
_cell_volume   508.59955783
_cell_formula_units_Z   4
loop_
 _symmetry_equiv_pos_site_id
 _symmetry_equiv_pos_as_xyz
  1  'x, y, z'
loop_
 _atom_site_type_symbol
 _atom_site_label
 _atom_site_symmetry_multiplicity
 _atom_site_fract_x
 _atom_site_fract_y
 _atom_site_fract_z
 _atom_site_occupancy
  Ba  Ba0  1  0.75000000  0.07985900  0.09971300  1
  Ba  Ba1  1  0.25000000  0.57985900  0.40028700  1
  Ba  Ba2  1  0.25000000  0.92014100  0.90028700  1
  Ba  Ba3  1  0.75000000  0.42014100  0.59971300  1
  Dy  Dy4  1  0.25000000  0.37993200  0.79172600  1
  Dy  Dy5  1  0.25000000  0.09833300  0.57456700  1
  Dy  Dy6  1  0.75000000  0.59833300  0.92543300  1
  Dy  Dy7  1  0.75000000  0.87993200  0.70827400  1
  Dy  Dy8  1  0.25000000  0.40166700  0.07456700  1
  Dy  Dy9  1  0.75000000  0.90166700  0.42543300  1
  Dy  Dy10  1  0.75000000  0.62006800  0.20827400  1
  Dy  Dy11  1  0.25000000  0.12006800  0.29172600  1
  Co  Co12  1  0.75000000  0.30852900  0.34768200  1
  Co  Co13  1  0.25000000  0.69147100  0.65231800  1
  Co  Co14  1  0.75000000  0.19147100  0.84768200  1
  Co  Co15  1  0.25000000  0.80852900  0.15231800  1
  O  O16  1  0.75000000  0.57595500  0.39784800  1
  O  O17  1  0.49590100  0.66658800  0.06557000  1
  O  O18  1  0.00122600  0.86091400  0.27510300  1
  O  O19  1  0.50409900  0.16658800  0.43443000  1
  O  O20  1  0.50122600  0.36091400  0.22489700  1
  O  O21  1  0.00409900  0.66658800  0.06557000  1
  O  O22  1  0.99877400  0.36091400  0.22489700  1
  O  O23  1  0.49590100  0.83341200  0.56557000  1
  O  O24  1  0.99590100  0.33341200  0.93443000  1
  O  O25  1  0.75000000  0.92404500  0.89784800  1
  O  O26  1  0.25000000  0.42404500  0.60215200  1
  O  O27  1  0.49877400  0.86091400  0.27510300  1
  O  O28  1  0.00409900  0.83341200  0.56557000  1
  O  O29  1  0.25000000  0.07595500  0.10215200  1
  O  O30  1  0.99590100  0.16658800  0.43443000  1
  O  O31  1  0.49877400  0.63908600  0.77510300  1
  O  O32  1  0.99877400  0.13908600  0.72489700  1
  O  O33  1  0.00122600  0.63908600  0.77510300  1
  O  O34  1  0.50409900  0.33341200  0.93443000  1
  O  O35  1  0.50122600  0.13908600  0.72489700  1
