# generated using pymatgen
data_KSm(PO3)4
_symmetry_space_group_name_H-M   'P 1'
_cell_length_a   8.03516600
_cell_length_b   12.73865400
_cell_length_c   10.70902437
_cell_angle_alpha   90.00000000
_cell_angle_beta   110.87629804
_cell_angle_gamma   90.00000000
_symmetry_Int_Tables_number   1
_chemical_formula_structural   KSm(PO3)4
_chemical_formula_sum   'K4 Sm4 P16 O48'
_cell_volume   1024.18593355
_cell_formula_units_Z   4
loop_
 _symmetry_equiv_pos_site_id
 _symmetry_equiv_pos_as_xyz
  1  'x, y, z'
loop_
 _atom_site_type_symbol
 _atom_site_label
 _atom_site_symmetry_multiplicity
 _atom_site_fract_x
 _atom_site_fract_y
 _atom_site_fract_z
 _atom_site_occupancy
  K  K0  1  0.50000000  0.18939600  0.25000000  1
  K  K1  1  0.50000000  0.81060400  0.75000000  1
  K  K2  1  0.00000000  0.68939600  0.25000000  1
  K  K3  1  0.00000000  0.31060400  0.75000000  1
  Sm  Sm4  1  0.50000000  0.87931300  0.25000000  1
  Sm  Sm5  1  0.50000000  0.12068700  0.75000000  1
  Sm  Sm6  1  0.00000000  0.37931300  0.25000000  1
  Sm  Sm7  1  0.00000000  0.62068700  0.75000000  1
  P  P8  1  0.54569750  0.33254950  0.99553000  1
  P  P9  1  0.45430250  0.33254950  0.50447000  1
  P  P10  1  0.45430250  0.66745050  0.00447000  1
  P  P11  1  0.54569750  0.66745050  0.49553000  1
  P  P12  1  0.22180650  0.02656650  0.94964400  1
  P  P13  1  0.77819350  0.02656650  0.55035600  1
  P  P14  1  0.77819350  0.97343350  0.05035600  1
  P  P15  1  0.22180650  0.97343350  0.44964400  1
  P  P16  1  0.04569750  0.83254950  0.99553000  1
  P  P17  1  0.95430250  0.83254950  0.50447000  1
  P  P18  1  0.95430250  0.16745050  0.00447000  1
  P  P19  1  0.04569750  0.16745050  0.49553000  1
  P  P20  1  0.72180650  0.52656650  0.94964400  1
  P  P21  1  0.27819350  0.52656650  0.55035600  1
  P  P22  1  0.27819350  0.47343350  0.05035600  1
  P  P23  1  0.72180650  0.47343350  0.44964400  1
  O  O24  1  0.07718100  0.93163800  0.91392500  1
  O  O25  1  0.92281900  0.93163800  0.58607500  1
  O  O26  1  0.92281900  0.06836200  0.08607500  1
  O  O27  1  0.07718100  0.06836200  0.41392500  1
  O  O28  1  0.59541000  0.62729100  0.93726300  1
  O  O29  1  0.40459000  0.62729100  0.56273700  1
  O  O30  1  0.40459000  0.37270900  0.06273700  1
  O  O31  1  0.59541000  0.37270900  0.43726300  1
  O  O32  1  0.29212700  0.03515300  0.83888900  1
  O  O33  1  0.70787300  0.03515300  0.66111100  1
  O  O34  1  0.70787300  0.96484700  0.16111100  1
  O  O35  1  0.29212700  0.96484700  0.33888900  1
  O  O36  1  0.34644300  0.98449100  0.59225800  1
  O  O37  1  0.65355700  0.98449100  0.90774200  1
  O  O38  1  0.65355700  0.01550900  0.40774200  1
  O  O39  1  0.34644300  0.01550900  0.09225800  1
  O  O40  1  0.44948550  0.74970750  0.39544300  1
  O  O41  1  0.55051450  0.74970750  0.10455700  1
  O  O42  1  0.55051450  0.25029250  0.60455700  1
  O  O43  1  0.44948550  0.25029250  0.89544300  1
  O  O44  1  0.20914150  0.19666950  0.61217100  1
  O  O45  1  0.79085850  0.19666950  0.88782900  1
  O  O46  1  0.79085850  0.80333050  0.38782900  1
  O  O47  1  0.20914150  0.80333050  0.11217100  1
  O  O48  1  0.57718100  0.43163800  0.91392500  1
  O  O49  1  0.42281900  0.43163800  0.58607500  1
  O  O50  1  0.42281900  0.56836200  0.08607500  1
  O  O51  1  0.57718100  0.56836200  0.41392500  1
  O  O52  1  0.09541000  0.12729100  0.93726300  1
  O  O53  1  0.90459000  0.12729100  0.56273700  1
  O  O54  1  0.90459000  0.87270900  0.06273700  1
  O  O55  1  0.09541000  0.87270900  0.43726300  1
  O  O56  1  0.79212700  0.53515300  0.83888900  1
  O  O57  1  0.20787300  0.53515300  0.66111100  1
  O  O58  1  0.20787300  0.46484700  0.16111100  1
  O  O59  1  0.79212700  0.46484700  0.33888900  1
  O  O60  1  0.84644300  0.48449100  0.59225800  1
  O  O61  1  0.15355700  0.48449100  0.90774200  1
  O  O62  1  0.15355700  0.51550900  0.40774200  1
  O  O63  1  0.84644300  0.51550900  0.09225800  1
  O  O64  1  0.94948550  0.24970750  0.39544300  1
  O  O65  1  0.05051450  0.24970750  0.10455700  1
  O  O66  1  0.05051450  0.75029250  0.60455700  1
  O  O67  1  0.94948550  0.75029250  0.89544300  1
  O  O68  1  0.70914150  0.69666950  0.61217100  1
  O  O69  1  0.29085850  0.69666950  0.88782900  1
  O  O70  1  0.29085850  0.30333050  0.38782900  1
  O  O71  1  0.70914150  0.30333050  0.11217100  1
