# generated using pymatgen
data_Ba2SrTeO6
_symmetry_space_group_name_H-M   'P 1'
_cell_length_a   6.18894203
_cell_length_b   6.18894203
_cell_length_c   14.89983295
_cell_angle_alpha   90.00000000
_cell_angle_beta   90.00000000
_cell_angle_gamma   120.00000000
_symmetry_Int_Tables_number   1
_chemical_formula_structural   Ba2SrTeO6
_chemical_formula_sum   'Ba6 Sr3 Te3 O18'
_cell_volume   494.24793263
_cell_formula_units_Z   3
loop_
 _symmetry_equiv_pos_site_id
 _symmetry_equiv_pos_as_xyz
  1  'x, y, z'
loop_
 _atom_site_type_symbol
 _atom_site_label
 _atom_site_symmetry_multiplicity
 _atom_site_fract_x
 _atom_site_fract_y
 _atom_site_fract_z
 _atom_site_occupancy
  Ba  Ba0  1  0.33333333  0.66666667  0.91872667  1
  Ba  Ba1  1  0.33333333  0.66666667  0.41460667  1
  Ba  Ba2  1  0.00000000  0.00000000  0.25206000  1
  Ba  Ba3  1  0.00000000  0.00000000  0.74794000  1
  Ba  Ba4  1  0.66666667  0.33333333  0.58539333  1
  Ba  Ba5  1  0.66666667  0.33333333  0.08127333  1
  Sr  Sr6  1  0.00000000  0.00000000  0.00000000  1
  Sr  Sr7  1  0.66666667  0.33333333  0.33333333  1
  Sr  Sr8  1  0.33333333  0.66666667  0.66666667  1
  Te  Te9  1  0.33333333  0.66666667  0.16666667  1
  Te  Te10  1  1.00000000  0.00000000  0.50000000  1
  Te  Te11  1  0.66666667  0.33333333  0.83333333  1
  O  O12  1  0.23767867  0.86442233  0.09076233  1
  O  O13  1  0.62674367  0.76232133  0.09076233  1
  O  O14  1  0.13557767  0.37325633  0.09076233  1
  O  O15  1  0.42898800  0.46891100  0.24257100  1
  O  O16  1  0.53108900  0.96007700  0.24257100  1
  O  O17  1  0.03992300  0.57101200  0.24257100  1
  O  O18  1  0.90434533  0.19775567  0.42409567  1
  O  O19  1  0.29341033  0.09565467  0.42409567  1
  O  O20  1  0.80224433  0.70658967  0.42409567  1
  O  O21  1  0.09565467  0.80224433  0.57590433  1
  O  O22  1  0.19775567  0.29341033  0.57590433  1
  O  O23  1  0.70658967  0.90434533  0.57590433  1
  O  O24  1  0.57101200  0.53108900  0.75742900  1
  O  O25  1  0.96007700  0.42898800  0.75742900  1
  O  O26  1  0.46891100  0.03992300  0.75742900  1
  O  O27  1  0.76232133  0.13557767  0.90923767  1
  O  O28  1  0.86442233  0.62674367  0.90923767  1
  O  O29  1  0.37325633  0.23767867  0.90923767  1
