# generated using pymatgen
data_NdLuSe3
_symmetry_space_group_name_H-M   'P 1'
_cell_length_a   4.02916200
_cell_length_b   13.12643800
_cell_length_c   9.96825200
_cell_angle_alpha   90.00000000
_cell_angle_beta   90.00000000
_cell_angle_gamma   90.00000000
_symmetry_Int_Tables_number   1
_chemical_formula_structural   NdLuSe3
_chemical_formula_sum   'Nd4 Lu4 Se12'
_cell_volume   527.20634632
_cell_formula_units_Z   4
loop_
 _symmetry_equiv_pos_site_id
 _symmetry_equiv_pos_as_xyz
  1  'x, y, z'
loop_
 _atom_site_type_symbol
 _atom_site_label
 _atom_site_symmetry_multiplicity
 _atom_site_fract_x
 _atom_site_fract_y
 _atom_site_fract_z
 _atom_site_occupancy
  Nd  Nd0  1  0.50000000  0.24837900  0.25000000  1
  Nd  Nd1  1  0.00000000  0.25162100  0.75000000  1
  Nd  Nd2  1  0.00000000  0.74837900  0.25000000  1
  Nd  Nd3  1  0.50000000  0.75162100  0.75000000  1
  Lu  Lu4  1  0.00000000  0.00000000  0.50000000  1
  Lu  Lu5  1  0.00000000  0.00000000  0.00000000  1
  Lu  Lu6  1  0.50000000  0.50000000  0.50000000  1
  Lu  Lu7  1  0.50000000  0.50000000  0.00000000  1
  Se  Se8  1  0.50000000  0.41332100  0.75000000  1
  Se  Se9  1  0.00000000  0.08667900  0.25000000  1
  Se  Se10  1  0.00000000  0.35668300  0.06212200  1
  Se  Se11  1  0.50000000  0.14331700  0.93787800  1
  Se  Se12  1  0.00000000  0.35668300  0.43787800  1
  Se  Se13  1  0.50000000  0.14331700  0.56212200  1
  Se  Se14  1  0.00000000  0.91332100  0.75000000  1
  Se  Se15  1  0.50000000  0.58667900  0.25000000  1
  Se  Se16  1  0.50000000  0.85668300  0.06212200  1
  Se  Se17  1  0.00000000  0.64331700  0.93787800  1
  Se  Se18  1  0.50000000  0.85668300  0.43787800  1
  Se  Se19  1  0.00000000  0.64331700  0.56212200  1
