# generated using pymatgen
data_Nd3Ga5O12
_symmetry_space_group_name_H-M   'P 1'
_cell_length_a   12.65683000
_cell_length_b   12.65683000
_cell_length_c   12.65683000
_cell_angle_alpha   90.00000000
_cell_angle_beta   90.00000000
_cell_angle_gamma   90.00000000
_symmetry_Int_Tables_number   1
_chemical_formula_structural   Nd3Ga5O12
_chemical_formula_sum   'Nd24 Ga40 O96'
_cell_volume   2027.56525667
_cell_formula_units_Z   8
loop_
 _symmetry_equiv_pos_site_id
 _symmetry_equiv_pos_as_xyz
  1  'x, y, z'
loop_
 _atom_site_type_symbol
 _atom_site_label
 _atom_site_symmetry_multiplicity
 _atom_site_fract_x
 _atom_site_fract_y
 _atom_site_fract_z
 _atom_site_occupancy
  Nd  Nd0  1  0.00000000  0.25000000  0.62500000  1
  Nd  Nd1  1  0.25000000  0.62500000  0.00000000  1
  Nd  Nd2  1  0.25000000  0.37500000  0.50000000  1
  Nd  Nd3  1  0.37500000  0.50000000  0.25000000  1
  Nd  Nd4  1  0.62500000  0.00000000  0.25000000  1
  Nd  Nd5  1  0.50000000  0.25000000  0.37500000  1
  Nd  Nd6  1  0.50000000  0.25000000  0.87500000  1
  Nd  Nd7  1  0.25000000  0.87500000  0.50000000  1
  Nd  Nd8  1  0.25000000  0.12500000  0.00000000  1
  Nd  Nd9  1  0.12500000  0.00000000  0.25000000  1
  Nd  Nd10  1  0.87500000  0.50000000  0.25000000  1
  Nd  Nd11  1  0.00000000  0.25000000  0.12500000  1
  Nd  Nd12  1  0.50000000  0.75000000  0.12500000  1
  Nd  Nd13  1  0.75000000  0.12500000  0.50000000  1
  Nd  Nd14  1  0.75000000  0.87500000  0.00000000  1
  Nd  Nd15  1  0.87500000  0.00000000  0.75000000  1
  Nd  Nd16  1  0.12500000  0.50000000  0.75000000  1
  Nd  Nd17  1  0.00000000  0.75000000  0.87500000  1
  Nd  Nd18  1  0.00000000  0.75000000  0.37500000  1
  Nd  Nd19  1  0.75000000  0.37500000  0.00000000  1
  Nd  Nd20  1  0.75000000  0.62500000  0.50000000  1
  Nd  Nd21  1  0.62500000  0.50000000  0.75000000  1
  Nd  Nd22  1  0.37500000  0.00000000  0.75000000  1
  Nd  Nd23  1  0.50000000  0.75000000  0.62500000  1
  Ga  Ga24  1  0.50000000  0.75000000  0.37500000  1
  Ga  Ga25  1  0.00000000  0.75000000  0.12500000  1
  Ga  Ga26  1  0.37500000  0.00000000  0.25000000  1
  Ga  Ga27  1  0.25000000  0.37500000  0.00000000  1
  Ga  Ga28  1  0.12500000  0.00000000  0.75000000  1
  Ga  Ga29  1  0.75000000  0.12500000  0.00000000  1
  Ga  Ga30  1  0.50000000  0.25000000  0.12500000  1
  Ga  Ga31  1  0.25000000  0.12500000  0.50000000  1
  Ga  Ga32  1  0.75000000  0.37500000  0.50000000  1
  Ga  Ga33  1  0.37500000  0.50000000  0.75000000  1
  Ga  Ga34  1  0.12500000  0.50000000  0.25000000  1
  Ga  Ga35  1  0.00000000  0.25000000  0.37500000  1
  Ga  Ga36  1  0.25000000  0.25000000  0.25000000  1
  Ga  Ga37  1  0.00000000  0.50000000  0.00000000  1
  Ga  Ga38  1  0.50000000  0.00000000  0.00000000  1
  Ga  Ga39  1  0.00000000  0.00000000  0.50000000  1
  Ga  Ga40  1  0.25000000  0.25000000  0.75000000  1
  Ga  Ga41  1  0.25000000  0.75000000  0.25000000  1
  Ga  Ga42  1  0.75000000  0.25000000  0.25000000  1
  Ga  Ga43  1  0.00000000  0.00000000  0.00000000  1
  Ga  Ga44  1  0.00000000  0.25000000  0.87500000  1
  Ga  Ga45  1  0.50000000  0.25000000  0.62500000  1
  Ga  Ga46  1  0.87500000  0.50000000  0.75000000  1
  Ga  Ga47  1  0.75000000  0.87500000  0.50000000  1
  Ga  Ga48  1  0.62500000  0.50000000  0.25000000  1
  Ga  Ga49  1  0.25000000  0.62500000  0.50000000  1
  Ga  Ga50  1  0.00000000  0.75000000  0.62500000  1
  Ga  Ga51  1  0.75000000  0.62500000  0.00000000  1
  Ga  Ga52  1  0.25000000  0.87500000  0.00000000  1
  Ga  Ga53  1  0.87500000  0.00000000  0.25000000  1
  Ga  Ga54  1  0.62500000  0.00000000  0.75000000  1
  Ga  Ga55  1  0.50000000  0.75000000  0.87500000  1
  Ga  Ga56  1  0.75000000  0.75000000  0.75000000  1
  Ga  Ga57  1  0.50000000  0.00000000  0.50000000  1
  Ga  Ga58  1  0.00000000  0.50000000  0.50000000  1
  Ga  Ga59  1  0.50000000  0.50000000  0.00000000  1
  Ga  Ga60  1  0.75000000  0.75000000  0.25000000  1
  Ga  Ga61  1  0.75000000  0.25000000  0.75000000  1
  Ga  Ga62  1  0.25000000  0.75000000  0.75000000  1
  Ga  Ga63  1  0.50000000  0.50000000  0.50000000  1
  O  O64  1  0.10103550  0.19752850  0.27948750  1
  O  O65  1  0.30247150  0.72051250  0.60103550  1
  O  O66  1  0.22051250  0.89896450  0.69752850  1
  O  O67  1  0.89896450  0.30247150  0.27948750  1
  O  O68  1  0.05247150  0.14896450  0.97051250  1
  O  O69  1  0.30247150  0.27948750  0.89896450  1
  O  O70  1  0.44752850  0.14896450  0.02948750  1
  O  O71  1  0.27948750  0.89896450  0.30247150  1
  O  O72  1  0.55247150  0.35103550  0.02948750  1
  O  O73  1  0.85103550  0.47051250  0.44752850  1
  O  O74  1  0.47051250  0.44752850  0.85103550  1
  O  O75  1  0.97051250  0.05247150  0.14896450  1
  O  O76  1  0.14896450  0.02948750  0.44752850  1
  O  O77  1  0.02948750  0.55247150  0.35103550  1
  O  O78  1  0.14896450  0.97051250  0.05247150  1
  O  O79  1  0.02948750  0.44752850  0.14896450  1
  O  O80  1  0.35103550  0.02948750  0.55247150  1
  O  O81  1  0.60103550  0.30247150  0.72051250  1
  O  O82  1  0.89896450  0.69752850  0.22051250  1
  O  O83  1  0.94752850  0.14896450  0.47051250  1
  O  O84  1  0.69752850  0.22051250  0.89896450  1
  O  O85  1  0.27948750  0.10103550  0.19752850  1
  O  O86  1  0.72051250  0.60103550  0.30247150  1
  O  O87  1  0.44752850  0.85103550  0.47051250  1
  O  O88  1  0.39896450  0.30247150  0.22051250  1
  O  O89  1  0.19752850  0.77948750  0.89896450  1
  O  O90  1  0.27948750  0.60103550  0.80247150  1
  O  O91  1  0.60103550  0.19752850  0.22051250  1
  O  O92  1  0.44752850  0.35103550  0.52948750  1
  O  O93  1  0.19752850  0.22051250  0.60103550  1
  O  O94  1  0.05247150  0.35103550  0.47051250  1
  O  O95  1  0.22051250  0.60103550  0.19752850  1
  O  O96  1  0.05247150  0.64896450  0.02948750  1
  O  O97  1  0.77948750  0.89896450  0.19752850  1
  O  O98  1  0.22051250  0.39896450  0.30247150  1
  O  O99  1  0.30247150  0.22051250  0.39896450  1
  O  O100  1  0.80247150  0.27948750  0.60103550  1
  O  O101  1  0.60103550  0.80247150  0.27948750  1
  O  O102  1  0.89896450  0.19752850  0.77948750  1
  O  O103  1  0.14896450  0.47051250  0.94752850  1
  O  O104  1  0.47051250  0.05247150  0.35103550  1
  O  O105  1  0.35103550  0.52948750  0.44752850  1
  O  O106  1  0.47051250  0.94752850  0.14896450  1
  O  O107  1  0.35103550  0.47051250  0.05247150  1
  O  O108  1  0.52948750  0.44752850  0.35103550  1
  O  O109  1  0.02948750  0.05247150  0.64896450  1
  O  O110  1  0.64896450  0.02948750  0.05247150  1
  O  O111  1  0.19752850  0.27948750  0.10103550  1
  O  O112  1  0.60103550  0.69752850  0.77948750  1
  O  O113  1  0.80247150  0.22051250  0.10103550  1
  O  O114  1  0.72051250  0.39896450  0.19752850  1
  O  O115  1  0.39896450  0.80247150  0.77948750  1
  O  O116  1  0.55247150  0.64896450  0.47051250  1
  O  O117  1  0.80247150  0.77948750  0.39896450  1
  O  O118  1  0.94752850  0.64896450  0.52948750  1
  O  O119  1  0.77948750  0.39896450  0.80247150  1
  O  O120  1  0.05247150  0.85103550  0.52948750  1
  O  O121  1  0.35103550  0.97051250  0.94752850  1
  O  O122  1  0.97051250  0.94752850  0.35103550  1
  O  O123  1  0.47051250  0.55247150  0.64896450  1
  O  O124  1  0.64896450  0.52948750  0.94752850  1
  O  O125  1  0.52948750  0.05247150  0.85103550  1
  O  O126  1  0.64896450  0.47051250  0.55247150  1
  O  O127  1  0.52948750  0.94752850  0.64896450  1
  O  O128  1  0.85103550  0.52948750  0.05247150  1
  O  O129  1  0.10103550  0.80247150  0.22051250  1
  O  O130  1  0.39896450  0.19752850  0.72051250  1
  O  O131  1  0.44752850  0.64896450  0.97051250  1
  O  O132  1  0.19752850  0.72051250  0.39896450  1
  O  O133  1  0.77948750  0.60103550  0.69752850  1
  O  O134  1  0.22051250  0.10103550  0.80247150  1
  O  O135  1  0.94752850  0.35103550  0.97051250  1
  O  O136  1  0.89896450  0.80247150  0.72051250  1
  O  O137  1  0.69752850  0.27948750  0.39896450  1
  O  O138  1  0.77948750  0.10103550  0.30247150  1
  O  O139  1  0.10103550  0.69752850  0.72051250  1
  O  O140  1  0.94752850  0.85103550  0.02948750  1
  O  O141  1  0.69752850  0.72051250  0.10103550  1
  O  O142  1  0.55247150  0.85103550  0.97051250  1
  O  O143  1  0.72051250  0.10103550  0.69752850  1
  O  O144  1  0.55247150  0.14896450  0.52948750  1
  O  O145  1  0.27948750  0.39896450  0.69752850  1
  O  O146  1  0.72051250  0.89896450  0.80247150  1
  O  O147  1  0.80247150  0.72051250  0.89896450  1
  O  O148  1  0.30247150  0.77948750  0.10103550  1
  O  O149  1  0.10103550  0.30247150  0.77948750  1
  O  O150  1  0.39896450  0.69752850  0.27948750  1
  O  O151  1  0.64896450  0.97051250  0.44752850  1
  O  O152  1  0.97051250  0.55247150  0.85103550  1
  O  O153  1  0.85103550  0.02948750  0.94752850  1
  O  O154  1  0.97051250  0.44752850  0.64896450  1
  O  O155  1  0.85103550  0.97051250  0.55247150  1
  O  O156  1  0.02948750  0.94752850  0.85103550  1
  O  O157  1  0.52948750  0.55247150  0.14896450  1
  O  O158  1  0.14896450  0.52948750  0.55247150  1
  O  O159  1  0.69752850  0.77948750  0.60103550  1
