# generated using pymatgen
data_Na2PdS2
_symmetry_space_group_name_H-M   'P 1'
_cell_length_a   3.58954800
_cell_length_b   10.44722600
_cell_length_c   10.98050300
_cell_angle_alpha   90.00000000
_cell_angle_beta   90.00000000
_cell_angle_gamma   90.00000000
_symmetry_Int_Tables_number   1
_chemical_formula_structural   Na2PdS2
_chemical_formula_sum   'Na8 Pd4 S8'
_cell_volume   411.77785766
_cell_formula_units_Z   4
loop_
 _symmetry_equiv_pos_site_id
 _symmetry_equiv_pos_as_xyz
  1  'x, y, z'
loop_
 _atom_site_type_symbol
 _atom_site_label
 _atom_site_symmetry_multiplicity
 _atom_site_fract_x
 _atom_site_fract_y
 _atom_site_fract_z
 _atom_site_occupancy
  Na  Na0  1  0.00000000  0.43004500  0.12357000  1
  Na  Na1  1  0.50000000  0.06995500  0.62357000  1
  Na  Na2  1  0.50000000  0.32794500  0.41190900  1
  Na  Na3  1  0.00000000  0.17205500  0.91190900  1
  Na  Na4  1  0.50000000  0.93004500  0.12357000  1
  Na  Na5  1  0.00000000  0.56995500  0.62357000  1
  Na  Na6  1  0.00000000  0.82794500  0.41190900  1
  Na  Na7  1  0.50000000  0.67205500  0.91190900  1
  Pd  Pd8  1  0.00000000  0.13360200  0.24888800  1
  Pd  Pd9  1  0.50000000  0.36639800  0.74888800  1
  Pd  Pd10  1  0.50000000  0.63360200  0.24888800  1
  Pd  Pd11  1  0.00000000  0.86639800  0.74888800  1
  S  S12  1  0.50000000  0.04815000  0.36563400  1
  S  S13  1  0.00000000  0.45185000  0.86563400  1
  S  S14  1  0.50000000  0.21734100  0.12999900  1
  S  S15  1  0.00000000  0.28265900  0.62999900  1
  S  S16  1  0.00000000  0.54815000  0.36563400  1
  S  S17  1  0.50000000  0.95185000  0.86563400  1
  S  S18  1  0.00000000  0.71734100  0.12999900  1
  S  S19  1  0.50000000  0.78265900  0.62999900  1
