# generated using pymatgen
data_NaCr3O8
_symmetry_space_group_name_H-M   'P 1'
_cell_length_a   8.71281365
_cell_length_b   5.54916841
_cell_length_c   7.02820227
_cell_angle_alpha   90.00000000
_cell_angle_beta   90.09868151
_cell_angle_gamma   90.00000000
_symmetry_Int_Tables_number   1
_chemical_formula_structural   NaCr3O8
_chemical_formula_sum   'Na2 Cr6 O16'
_cell_volume   339.80513620
_cell_formula_units_Z   2
loop_
 _symmetry_equiv_pos_site_id
 _symmetry_equiv_pos_as_xyz
  1  'x, y, z'
loop_
 _atom_site_type_symbol
 _atom_site_label
 _atom_site_symmetry_multiplicity
 _atom_site_fract_x
 _atom_site_fract_y
 _atom_site_fract_z
 _atom_site_occupancy
  Na  Na0  1  0.00000000  0.00000000  0.00000000  1
  Na  Na1  1  0.50000000  0.50000000  0.00000000  1
  Cr  Cr2  1  0.50000000  0.50000000  0.50000000  1
  Cr  Cr3  1  0.14273425  0.50000000  0.72428600  1
  Cr  Cr4  1  0.85726575  0.50000000  0.27571400  1
  Cr  Cr5  1  0.00000000  0.00000000  0.50000000  1
  Cr  Cr6  1  0.64273425  0.00000000  0.72428600  1
  Cr  Cr7  1  0.35726575  0.00000000  0.27571400  1
  O  O8  1  0.27634125  0.50000000  0.55627900  1
  O  O9  1  0.72365875  0.50000000  0.44372100  1
  O  O10  1  0.77831350  0.50000000  0.06769100  1
  O  O11  1  0.22168650  0.50000000  0.93230900  1
  O  O12  1  0.96740125  0.75233575  0.29554500  1
  O  O13  1  0.03259875  0.75233575  0.70445500  1
  O  O14  1  0.03259875  0.24766425  0.70445500  1
  O  O15  1  0.96740125  0.24766425  0.29554500  1
  O  O16  1  0.77634125  0.00000000  0.55627900  1
  O  O17  1  0.22365875  0.00000000  0.44372100  1
  O  O18  1  0.27831350  0.00000000  0.06769100  1
  O  O19  1  0.72168650  0.00000000  0.93230900  1
  O  O20  1  0.46740125  0.25233575  0.29554500  1
  O  O21  1  0.53259875  0.25233575  0.70445500  1
  O  O22  1  0.53259875  0.74766425  0.70445500  1
  O  O23  1  0.46740125  0.74766425  0.29554500  1
