# generated using pymatgen
data_Na4ReN3
_symmetry_space_group_name_H-M   'P 1'
_cell_length_a   11.00124200
_cell_length_b   6.09725000
_cell_length_c   8.93019510
_cell_angle_alpha   90.00000000
_cell_angle_beta   115.03643135
_cell_angle_gamma   90.00000000
_symmetry_Int_Tables_number   1
_chemical_formula_structural   Na4ReN3
_chemical_formula_sum   'Na16 Re4 N12'
_cell_volume   542.72959469
_cell_formula_units_Z   4
loop_
 _symmetry_equiv_pos_site_id
 _symmetry_equiv_pos_as_xyz
  1  'x, y, z'
loop_
 _atom_site_type_symbol
 _atom_site_label
 _atom_site_symmetry_multiplicity
 _atom_site_fract_x
 _atom_site_fract_y
 _atom_site_fract_z
 _atom_site_occupancy
  Na  Na0  1  0.31144850  0.31451050  0.86462700  1
  Na  Na1  1  0.11521400  0.32080200  0.47295500  1
  Na  Na2  1  0.89516000  0.63780300  0.54306500  1
  Na  Na3  1  0.89516000  0.36219700  0.04306500  1
  Na  Na4  1  0.70448750  0.66436550  0.13850900  1
  Na  Na5  1  0.20448750  0.83563450  0.63850900  1
  Na  Na6  1  0.11521400  0.67919800  0.97295500  1
  Na  Na7  1  0.81144850  0.18548950  0.36462700  1
  Na  Na8  1  0.81144850  0.81451050  0.86462700  1
  Na  Na9  1  0.61521400  0.82080200  0.47295500  1
  Na  Na10  1  0.39516000  0.13780300  0.54306500  1
  Na  Na11  1  0.39516000  0.86219700  0.04306500  1
  Na  Na12  1  0.20448750  0.16436550  0.13850900  1
  Na  Na13  1  0.70448750  0.33563450  0.63850900  1
  Na  Na14  1  0.61521400  0.17919800  0.97295500  1
  Na  Na15  1  0.31144850  0.68548950  0.36462700  1
  Re  Re16  1  0.99010500  0.85428200  0.24998700  1
  Re  Re17  1  0.99010500  0.14571800  0.74998700  1
  Re  Re18  1  0.49010500  0.35428200  0.24998700  1
  Re  Re19  1  0.49010500  0.64571800  0.74998700  1
  N  N20  1  0.96053550  0.58462350  0.31149300  1
  N  N21  1  0.96053550  0.41537650  0.81149300  1
  N  N22  1  0.15422200  0.98514200  0.35419500  1
  N  N23  1  0.15422200  0.01485800  0.85419500  1
  N  N24  1  0.83962650  0.01298850  0.13306800  1
  N  N25  1  0.83962650  0.98701150  0.63306800  1
  N  N26  1  0.46053550  0.08462350  0.31149300  1
  N  N27  1  0.46053550  0.91537650  0.81149300  1
  N  N28  1  0.65422200  0.48514200  0.35419500  1
  N  N29  1  0.65422200  0.51485800  0.85419500  1
  N  N30  1  0.33962650  0.51298850  0.13306800  1
  N  N31  1  0.33962650  0.48701150  0.63306800  1
