# generated using pymatgen
data_Si2Os
_symmetry_space_group_name_H-M   'P 1'
_cell_length_a   8.16044000
_cell_length_b   10.22081400
_cell_length_c   8.27555900
_cell_angle_alpha   90.00000000
_cell_angle_beta   90.00000000
_cell_angle_gamma   90.00000000
_symmetry_Int_Tables_number   1
_chemical_formula_structural   Si2Os
_chemical_formula_sum   'Si32 Os16'
_cell_volume   690.23408266
_cell_formula_units_Z   16
loop_
 _symmetry_equiv_pos_site_id
 _symmetry_equiv_pos_as_xyz
  1  'x, y, z'
loop_
 _atom_site_type_symbol
 _atom_site_label
 _atom_site_symmetry_multiplicity
 _atom_site_fract_x
 _atom_site_fract_y
 _atom_site_fract_z
 _atom_site_occupancy
  Si  Si0  1  0.55225450  0.62691250  0.72443200  1
  Si  Si1  1  0.44774550  0.87308750  0.22443200  1
  Si  Si2  1  0.55225450  0.87308750  0.77556800  1
  Si  Si3  1  0.44774550  0.62691250  0.27556800  1
  Si  Si4  1  0.44774550  0.37308750  0.27556800  1
  Si  Si5  1  0.55225450  0.12691250  0.77556800  1
  Si  Si6  1  0.44774550  0.12691250  0.22443200  1
  Si  Si7  1  0.55225450  0.37308750  0.72443200  1
  Si  Si8  1  0.72245100  0.12804800  0.05815800  1
  Si  Si9  1  0.77754900  0.87195200  0.55815800  1
  Si  Si10  1  0.22245100  0.87195200  0.44184200  1
  Si  Si11  1  0.27754900  0.12804800  0.94184200  1
  Si  Si12  1  0.27754900  0.87195200  0.94184200  1
  Si  Si13  1  0.22245100  0.12804800  0.44184200  1
  Si  Si14  1  0.77754900  0.12804800  0.55815800  1
  Si  Si15  1  0.72245100  0.87195200  0.05815800  1
  Si  Si16  1  0.05225450  0.12691250  0.72443200  1
  Si  Si17  1  0.94774550  0.37308750  0.22443200  1
  Si  Si18  1  0.05225450  0.37308750  0.77556800  1
  Si  Si19  1  0.94774550  0.12691250  0.27556800  1
  Si  Si20  1  0.94774550  0.87308750  0.27556800  1
  Si  Si21  1  0.05225450  0.62691250  0.77556800  1
  Si  Si22  1  0.94774550  0.62691250  0.22443200  1
  Si  Si23  1  0.05225450  0.87308750  0.72443200  1
  Si  Si24  1  0.22245100  0.62804800  0.05815800  1
  Si  Si25  1  0.27754900  0.37195200  0.55815800  1
  Si  Si26  1  0.72245100  0.37195200  0.44184200  1
  Si  Si27  1  0.77754900  0.62804800  0.94184200  1
  Si  Si28  1  0.77754900  0.37195200  0.94184200  1
  Si  Si29  1  0.72245100  0.62804800  0.44184200  1
  Si  Si30  1  0.27754900  0.62804800  0.55815800  1
  Si  Si31  1  0.22245100  0.37195200  0.05815800  1
  Os  Os32  1  0.81127500  0.00000000  0.81755700  1
  Os  Os33  1  0.68872500  0.00000000  0.31755700  1
  Os  Os34  1  0.31127500  0.00000000  0.68244300  1
  Os  Os35  1  0.18872500  0.00000000  0.18244300  1
  Os  Os36  1  0.50000000  0.78457400  0.50000000  1
  Os  Os37  1  0.50000000  0.71542600  0.00000000  1
  Os  Os38  1  0.50000000  0.21542600  0.50000000  1
  Os  Os39  1  0.50000000  0.28457400  0.00000000  1
  Os  Os40  1  0.31127500  0.50000000  0.81755700  1
  Os  Os41  1  0.18872500  0.50000000  0.31755700  1
  Os  Os42  1  0.81127500  0.50000000  0.68244300  1
  Os  Os43  1  0.68872500  0.50000000  0.18244300  1
  Os  Os44  1  0.00000000  0.28457400  0.50000000  1
  Os  Os45  1  0.00000000  0.21542600  0.00000000  1
  Os  Os46  1  0.00000000  0.71542600  0.50000000  1
  Os  Os47  1  0.00000000  0.78457400  0.00000000  1
