# generated using pymatgen
data_SrLi4N2
_symmetry_space_group_name_H-M   'P 1'
_cell_length_a   3.82971200
_cell_length_b   3.82971200
_cell_length_c   27.06402400
_cell_angle_alpha   90.00000000
_cell_angle_beta   90.00000000
_cell_angle_gamma   90.00000000
_symmetry_Int_Tables_number   1
_chemical_formula_structural   SrLi4N2
_chemical_formula_sum   'Sr4 Li16 N8'
_cell_volume   396.93975850
_cell_formula_units_Z   4
loop_
 _symmetry_equiv_pos_site_id
 _symmetry_equiv_pos_as_xyz
  1  'x, y, z'
loop_
 _atom_site_type_symbol
 _atom_site_label
 _atom_site_symmetry_multiplicity
 _atom_site_fract_x
 _atom_site_fract_y
 _atom_site_fract_z
 _atom_site_occupancy
  Sr  Sr0  1  0.00000000  0.50000000  0.25000000  1
  Sr  Sr1  1  0.00000000  0.00000000  0.00000000  1
  Sr  Sr2  1  0.50000000  0.00000000  0.75000000  1
  Sr  Sr3  1  0.50000000  0.50000000  0.50000000  1
  Li  Li4  1  0.00000000  0.50000000  0.35372200  1
  Li  Li5  1  0.00000000  0.00000000  0.10372200  1
  Li  Li6  1  0.50000000  0.00000000  0.17782900  1
  Li  Li7  1  0.00000000  0.00000000  0.42782900  1
  Li  Li8  1  0.50000000  0.50000000  0.07217100  1
  Li  Li9  1  0.50000000  0.50000000  0.39627800  1
  Li  Li10  1  0.00000000  0.50000000  0.14627800  1
  Li  Li11  1  0.50000000  0.00000000  0.32217100  1
  Li  Li12  1  0.50000000  0.00000000  0.85372200  1
  Li  Li13  1  0.50000000  0.50000000  0.60372200  1
  Li  Li14  1  0.00000000  0.50000000  0.67782900  1
  Li  Li15  1  0.50000000  0.50000000  0.92782900  1
  Li  Li16  1  0.00000000  0.00000000  0.57217100  1
  Li  Li17  1  0.00000000  0.00000000  0.89627800  1
  Li  Li18  1  0.50000000  0.00000000  0.64627800  1
  Li  Li19  1  0.00000000  0.50000000  0.82217100  1
  N  N20  1  0.50000000  0.50000000  0.31802900  1
  N  N21  1  0.00000000  0.50000000  0.06802900  1
  N  N22  1  0.00000000  0.50000000  0.43197100  1
  N  N23  1  0.00000000  0.00000000  0.18197100  1
  N  N24  1  0.00000000  0.00000000  0.81802900  1
  N  N25  1  0.50000000  0.00000000  0.56802900  1
  N  N26  1  0.50000000  0.00000000  0.93197100  1
  N  N27  1  0.50000000  0.50000000  0.68197100  1
