# generated using pymatgen
data_KTb(PO3)4
_symmetry_space_group_name_H-M   'P 1'
_cell_length_a   7.35640300
_cell_length_b   8.45038900
_cell_length_c   7.97634631
_cell_angle_alpha   90.00000000
_cell_angle_beta   91.50466060
_cell_angle_gamma   90.00000000
_symmetry_Int_Tables_number   1
_chemical_formula_structural   KTb(PO3)4
_chemical_formula_sum   'K2 Tb2 P8 O24'
_cell_volume   495.67434534
_cell_formula_units_Z   2
loop_
 _symmetry_equiv_pos_site_id
 _symmetry_equiv_pos_as_xyz
  1  'x, y, z'
loop_
 _atom_site_type_symbol
 _atom_site_label
 _atom_site_symmetry_multiplicity
 _atom_site_fract_x
 _atom_site_fract_y
 _atom_site_fract_z
 _atom_site_occupancy
  K  K0  1  0.26722400  0.06168300  0.71676200  1
  K  K1  1  0.73277600  0.56168300  0.28323800  1
  Tb  Tb2  1  0.23815100  0.74968100  0.24206700  1
  Tb  Tb3  1  0.76184900  0.24968100  0.75793300  1
  P  P4  1  0.99515700  0.09794400  0.38168700  1
  P  P5  1  0.00484300  0.59794400  0.61831300  1
  P  P6  1  0.61337900  0.00125100  0.39739700  1
  P  P7  1  0.38662100  0.50125100  0.60260300  1
  P  P8  1  0.43393400  0.12387400  0.09213300  1
  P  P9  1  0.56606600  0.62387400  0.90786700  1
  P  P10  1  0.09771000  0.33106100  0.09915800  1
  P  P11  1  0.90229000  0.83106100  0.90084200  1
  O  O12  1  0.60827500  0.06070700  0.57404500  1
  O  O13  1  0.39172500  0.56070700  0.42595500  1
  O  O14  1  0.01946700  0.29993900  0.92646500  1
  O  O15  1  0.98053300  0.79993900  0.07353500  1
  O  O16  1  0.52397500  0.84705700  0.35317100  1
  O  O17  1  0.47602500  0.34705700  0.64682900  1
  O  O18  1  0.53522000  0.13916600  0.27370300  1
  O  O19  1  0.46478000  0.63916600  0.72629700  1
  O  O20  1  0.82088700  0.98838600  0.33902200  1
  O  O21  1  0.17911300  0.48838600  0.66097800  1
  O  O22  1  0.96491100  0.19377800  0.53717600  1
  O  O23  1  0.03508900  0.69377800  0.46282400  1
  O  O24  1  0.90911700  0.99400800  0.82816200  1
  O  O25  1  0.09088300  0.49400800  0.17183800  1
  O  O26  1  0.69223100  0.77870200  0.89260500  1
  O  O27  1  0.30776900  0.27870200  0.10739500  1
  O  O28  1  0.00980000  0.71177400  0.77914200  1
  O  O29  1  0.99020000  0.21177400  0.22085800  1
  O  O30  1  0.83975600  0.49343700  0.61713400  1
  O  O31  1  0.16024400  0.99343700  0.38286600  1
  O  O32  1  0.67905600  0.47722200  0.92810300  1
  O  O33  1  0.32094400  0.97722200  0.07189700  1
  O  O34  1  0.43189300  0.65373000  0.04293100  1
  O  O35  1  0.56810700  0.15373000  0.95706900  1
