# generated using pymatgen
data_BeSe
_symmetry_space_group_name_H-M   'P 1'
_cell_length_a   5.18376000
_cell_length_b   5.18376000
_cell_length_c   5.18376000
_cell_angle_alpha   90.00000000
_cell_angle_beta   90.00000000
_cell_angle_gamma   90.00000000
_symmetry_Int_Tables_number   1
_chemical_formula_structural   BeSe
_chemical_formula_sum   'Be4 Se4'
_cell_volume   139.29472122
_cell_formula_units_Z   4
loop_
 _symmetry_equiv_pos_site_id
 _symmetry_equiv_pos_as_xyz
  1  'x, y, z'
loop_
 _atom_site_type_symbol
 _atom_site_label
 _atom_site_symmetry_multiplicity
 _atom_site_fract_x
 _atom_site_fract_y
 _atom_site_fract_z
 _atom_site_occupancy
  Be  Be0  1  0.00000000  0.00000000  0.00000000  1
  Be  Be1  1  0.00000000  0.50000000  0.50000000  1
  Be  Be2  1  0.50000000  0.00000000  0.50000000  1
  Be  Be3  1  0.50000000  0.50000000  0.00000000  1
  Se  Se4  1  0.25000000  0.25000000  0.25000000  1
  Se  Se5  1  0.25000000  0.75000000  0.75000000  1
  Se  Se6  1  0.75000000  0.25000000  0.75000000  1
  Se  Se7  1  0.75000000  0.75000000  0.25000000  1
