# generated using pymatgen
data_K2Li14Zr3O14
_symmetry_space_group_name_H-M   'P 1'
_cell_length_a   7.35848200
_cell_length_b   7.90361200
_cell_length_c   12.64820200
_cell_angle_alpha   90.00000000
_cell_angle_beta   90.00000000
_cell_angle_gamma   90.00000000
_symmetry_Int_Tables_number   1
_chemical_formula_structural   K2Li14Zr3O14
_chemical_formula_sum   'K4 Li28 Zr6 O28'
_cell_volume   735.60155182
_cell_formula_units_Z   2
loop_
 _symmetry_equiv_pos_site_id
 _symmetry_equiv_pos_as_xyz
  1  'x, y, z'
loop_
 _atom_site_type_symbol
 _atom_site_label
 _atom_site_symmetry_multiplicity
 _atom_site_fract_x
 _atom_site_fract_y
 _atom_site_fract_z
 _atom_site_occupancy
  K  K0  1  0.75922100  0.50000000  0.00000000  1
  K  K1  1  0.24077900  0.50000000  0.00000000  1
  K  K2  1  0.25922100  0.00000000  0.50000000  1
  K  K3  1  0.74077900  0.00000000  0.50000000  1
  Li  Li4  1  0.27170000  0.84124300  0.86452300  1
  Li  Li5  1  0.22830000  0.34124300  0.63547700  1
  Li  Li6  1  0.72830000  0.15875700  0.86452300  1
  Li  Li7  1  0.77170000  0.65875700  0.63547700  1
  Li  Li8  1  0.27170000  0.15875700  0.86452300  1
  Li  Li9  1  0.50000000  0.84555200  0.00000000  1
  Li  Li10  1  0.50000000  0.15444800  0.00000000  1
  Li  Li11  1  0.00000000  0.64253000  0.77092400  1
  Li  Li12  1  0.50000000  0.85747000  0.72907600  1
  Li  Li13  1  0.50000000  0.14253000  0.72907600  1
  Li  Li14  1  0.00000000  0.35747000  0.77092400  1
  Li  Li15  1  0.72830000  0.84124300  0.86452300  1
  Li  Li16  1  0.22830000  0.65875700  0.63547700  1
  Li  Li17  1  0.77170000  0.34124300  0.63547700  1
  Li  Li18  1  0.77170000  0.34124300  0.36452300  1
  Li  Li19  1  0.72830000  0.84124300  0.13547700  1
  Li  Li20  1  0.22830000  0.65875700  0.36452300  1
  Li  Li21  1  0.27170000  0.15875700  0.13547700  1
  Li  Li22  1  0.77170000  0.65875700  0.36452300  1
  Li  Li23  1  0.00000000  0.34555200  0.50000000  1
  Li  Li24  1  0.00000000  0.65444800  0.50000000  1
  Li  Li25  1  0.50000000  0.14253000  0.27092400  1
  Li  Li26  1  0.00000000  0.35747000  0.22907600  1
  Li  Li27  1  0.00000000  0.64253000  0.22907600  1
  Li  Li28  1  0.50000000  0.85747000  0.27092400  1
  Li  Li29  1  0.22830000  0.34124300  0.36452300  1
  Li  Li30  1  0.72830000  0.15875700  0.13547700  1
  Li  Li31  1  0.27170000  0.84124300  0.13547700  1
  Zr  Zr32  1  0.00000000  0.00000000  0.00000000  1
  Zr  Zr33  1  0.50000000  0.50000000  0.77214800  1
  Zr  Zr34  1  0.00000000  0.00000000  0.72785200  1
  Zr  Zr35  1  0.50000000  0.50000000  0.50000000  1
  Zr  Zr36  1  0.00000000  0.00000000  0.27214800  1
  Zr  Zr37  1  0.50000000  0.50000000  0.22785200  1
  O  O38  1  0.00000000  0.17929100  0.87243000  1
  O  O39  1  0.00000000  0.79132200  0.62933700  1
  O  O40  1  0.00000000  0.20867800  0.62933700  1
  O  O41  1  0.50000000  0.70867800  0.87066300  1
  O  O42  1  0.50000000  0.29132200  0.87066300  1
  O  O43  1  0.28575100  0.00000000  0.74466500  1
  O  O44  1  0.78575100  0.50000000  0.75533500  1
  O  O45  1  0.21424900  0.50000000  0.75533500  1
  O  O46  1  0.71424900  0.00000000  0.74466500  1
  O  O47  1  0.71225700  0.00000000  0.00000000  1
  O  O48  1  0.28774300  0.00000000  0.00000000  1
  O  O49  1  0.00000000  0.82070900  0.87243000  1
  O  O50  1  0.50000000  0.67929100  0.62757000  1
  O  O51  1  0.50000000  0.32070900  0.62757000  1
  O  O52  1  0.50000000  0.67929100  0.37243000  1
  O  O53  1  0.50000000  0.29132200  0.12933700  1
  O  O54  1  0.50000000  0.70867800  0.12933700  1
  O  O55  1  0.00000000  0.20867800  0.37066300  1
  O  O56  1  0.00000000  0.79132200  0.37066300  1
  O  O57  1  0.78575100  0.50000000  0.24466500  1
  O  O58  1  0.28575100  0.00000000  0.25533500  1
  O  O59  1  0.71424900  0.00000000  0.25533500  1
  O  O60  1  0.21424900  0.50000000  0.24466500  1
  O  O61  1  0.21225700  0.50000000  0.50000000  1
  O  O62  1  0.78774300  0.50000000  0.50000000  1
  O  O63  1  0.50000000  0.32070900  0.37243000  1
  O  O64  1  0.00000000  0.17929100  0.12757000  1
  O  O65  1  0.00000000  0.82070900  0.12757000  1
