# generated using pymatgen
data_Sr3CdPtO6
_symmetry_space_group_name_H-M   'P 1'
_cell_length_a   9.73825171
_cell_length_b   9.73825171
_cell_length_c   11.85224546
_cell_angle_alpha   90.00000000
_cell_angle_beta   90.00000000
_cell_angle_gamma   120.00000000
_symmetry_Int_Tables_number   1
_chemical_formula_structural   Sr3CdPtO6
_chemical_formula_sum   'Sr18 Cd6 Pt6 O36'
_cell_volume   973.40429971
_cell_formula_units_Z   6
loop_
 _symmetry_equiv_pos_site_id
 _symmetry_equiv_pos_as_xyz
  1  'x, y, z'
loop_
 _atom_site_type_symbol
 _atom_site_label
 _atom_site_symmetry_multiplicity
 _atom_site_fract_x
 _atom_site_fract_y
 _atom_site_fract_z
 _atom_site_occupancy
  Sr  Sr0  1  0.69647933  0.02981267  0.41666667  1
  Sr  Sr1  1  0.33333333  0.30352067  0.41666667  1
  Sr  Sr2  1  0.97018733  0.66666667  0.41666667  1
  Sr  Sr3  1  0.30352067  0.97018733  0.58333333  1
  Sr  Sr4  1  0.02981267  0.33333333  0.58333333  1
  Sr  Sr5  1  0.66666667  0.69647933  0.58333333  1
  Sr  Sr6  1  0.36314600  0.36314600  0.75000000  1
  Sr  Sr7  1  1.00000000  0.63685400  0.75000000  1
  Sr  Sr8  1  0.63685400  0.00000000  0.75000000  1
  Sr  Sr9  1  0.97018733  0.30352067  0.91666667  1
  Sr  Sr10  1  0.69647933  0.66666667  0.91666667  1
  Sr  Sr11  1  0.33333333  0.02981267  0.91666667  1
  Sr  Sr12  1  0.02981267  0.69647933  0.08333333  1
  Sr  Sr13  1  0.66666667  0.97018733  0.08333333  1
  Sr  Sr14  1  0.30352067  0.33333333  0.08333333  1
  Sr  Sr15  1  0.63685400  0.63685400  0.25000000  1
  Sr  Sr16  1  0.36314600  1.00000000  0.25000000  1
  Sr  Sr17  1  0.00000000  0.36314600  0.25000000  1
  Cd  Cd18  1  0.00000000  0.00000000  0.75000000  1
  Cd  Cd19  1  0.00000000  0.00000000  0.25000000  1
  Cd  Cd20  1  0.66666667  0.33333333  0.08333333  1
  Cd  Cd21  1  0.66666667  0.33333333  0.58333333  1
  Cd  Cd22  1  0.33333333  0.66666667  0.41666667  1
  Cd  Cd23  1  0.33333333  0.66666667  0.91666667  1
  Pt  Pt24  1  0.00000000  0.00000000  0.50000000  1
  Pt  Pt25  1  0.00000000  0.00000000  0.00000000  1
  Pt  Pt26  1  0.66666667  0.33333333  0.83333333  1
  Pt  Pt27  1  0.66666667  0.33333333  0.33333333  1
  Pt  Pt28  1  0.33333333  0.66666667  0.16666667  1
  Pt  Pt29  1  0.33333333  0.66666667  0.66666667  1
  O  O30  1  0.64383033  0.49005867  0.43873767  1
  O  O31  1  0.50994133  0.15377167  0.43873767  1
  O  O32  1  0.84622833  0.35616967  0.43873767  1
  O  O33  1  0.82043833  0.84327467  0.39459567  1
  O  O34  1  0.15672533  0.97716367  0.39459567  1
  O  O35  1  0.02283633  0.17956167  0.39459567  1
  O  O36  1  0.35616967  0.50994133  0.56126233  1
  O  O37  1  0.49005867  0.84622833  0.56126233  1
  O  O38  1  0.15377167  0.64383033  0.56126233  1
  O  O39  1  0.17956167  0.15672533  0.60540433  1
  O  O40  1  0.97716367  0.82043833  0.60540433  1
  O  O41  1  0.84327467  0.02283633  0.60540433  1
  O  O42  1  0.31049700  0.82339200  0.77207100  1
  O  O43  1  0.17660800  0.48710500  0.77207100  1
  O  O44  1  0.51289500  0.68950300  0.77207100  1
  O  O45  1  0.48710500  0.17660800  0.72792900  1
  O  O46  1  0.82339200  0.31049700  0.72792900  1
  O  O47  1  0.68950300  0.51289500  0.72792900  1
  O  O48  1  0.02283633  0.84327467  0.89459567  1
  O  O49  1  0.15672533  0.17956167  0.89459567  1
  O  O50  1  0.82043833  0.97716367  0.89459567  1
  O  O51  1  0.84622833  0.49005867  0.93873767  1
  O  O52  1  0.64383033  0.15377167  0.93873767  1
  O  O53  1  0.50994133  0.35616967  0.93873767  1
  O  O54  1  0.97716367  0.15672533  0.10540433  1
  O  O55  1  0.84327467  0.82043833  0.10540433  1
  O  O56  1  0.17956167  0.02283633  0.10540433  1
  O  O57  1  0.15377167  0.50994133  0.06126233  1
  O  O58  1  0.49005867  0.64383033  0.06126233  1
  O  O59  1  0.35616967  0.84622833  0.06126233  1
  O  O60  1  0.68950300  0.17660800  0.22792900  1
  O  O61  1  0.82339200  0.51289500  0.22792900  1
  O  O62  1  0.48710500  0.31049700  0.22792900  1
  O  O63  1  0.51289500  0.82339200  0.27207100  1
  O  O64  1  0.31049700  0.48710500  0.27207100  1
  O  O65  1  0.17660800  0.68950300  0.27207100  1
