# generated using pymatgen
data_Rb2LiAsO4
_symmetry_space_group_name_H-M   'P 1'
_cell_length_a   5.91096600
_cell_length_b   12.02084200
_cell_length_c   8.00859400
_cell_angle_alpha   90.00000000
_cell_angle_beta   90.00000000
_cell_angle_gamma   90.00000000
_symmetry_Int_Tables_number   1
_chemical_formula_structural   Rb2LiAsO4
_chemical_formula_sum   'Rb8 Li4 As4 O16'
_cell_volume   569.04895168
_cell_formula_units_Z   4
loop_
 _symmetry_equiv_pos_site_id
 _symmetry_equiv_pos_as_xyz
  1  'x, y, z'
loop_
 _atom_site_type_symbol
 _atom_site_label
 _atom_site_symmetry_multiplicity
 _atom_site_fract_x
 _atom_site_fract_y
 _atom_site_fract_z
 _atom_site_occupancy
  Rb  Rb0  1  0.00000000  0.06076800  0.15062300  1
  Rb  Rb1  1  0.50000000  0.43923200  0.65062300  1
  Rb  Rb2  1  0.50000000  0.10300200  0.50304900  1
  Rb  Rb3  1  0.00000000  0.39699800  0.00304900  1
  Rb  Rb4  1  0.50000000  0.56076800  0.15062300  1
  Rb  Rb5  1  0.00000000  0.93923200  0.65062300  1
  Rb  Rb6  1  0.00000000  0.60300200  0.50304900  1
  Rb  Rb7  1  0.50000000  0.89699800  0.00304900  1
  Li  Li8  1  0.50000000  0.29598400  0.23057200  1
  Li  Li9  1  0.00000000  0.20401600  0.73057200  1
  Li  Li10  1  0.00000000  0.79598400  0.23057200  1
  Li  Li11  1  0.50000000  0.70401600  0.73057200  1
  As  As12  1  0.50000000  0.18933900  0.94463500  1
  As  As13  1  0.00000000  0.31066100  0.44463500  1
  As  As14  1  0.00000000  0.68933900  0.94463500  1
  As  As15  1  0.50000000  0.81066100  0.44463500  1
  O  O16  1  0.73733900  0.14426600  0.83964800  1
  O  O17  1  0.76266100  0.35573400  0.33964800  1
  O  O18  1  0.50000000  0.13401400  0.14479600  1
  O  O19  1  0.00000000  0.36598600  0.64479600  1
  O  O20  1  0.26266100  0.14426600  0.83964800  1
  O  O21  1  0.23733900  0.35573400  0.33964800  1
  O  O22  1  0.00000000  0.16763200  0.47612900  1
  O  O23  1  0.50000000  0.33236800  0.97612900  1
  O  O24  1  0.23733900  0.64426600  0.83964800  1
  O  O25  1  0.26266100  0.85573400  0.33964800  1
  O  O26  1  0.00000000  0.63401400  0.14479600  1
  O  O27  1  0.50000000  0.86598600  0.64479600  1
  O  O28  1  0.76266100  0.64426600  0.83964800  1
  O  O29  1  0.73733900  0.85573400  0.33964800  1
  O  O30  1  0.50000000  0.66763200  0.47612900  1
  O  O31  1  0.00000000  0.83236800  0.97612900  1
