# generated using pymatgen
data_LiTi2(PO4)3
_symmetry_space_group_name_H-M   'P 1'
_cell_length_a   8.62273444
_cell_length_b   8.62273444
_cell_length_c   21.08164050
_cell_angle_alpha   90.00000000
_cell_angle_beta   90.00000000
_cell_angle_gamma   120.00000000
_symmetry_Int_Tables_number   1
_chemical_formula_structural   LiTi2(PO4)3
_chemical_formula_sum   'Li6 Ti12 P18 O72'
_cell_volume   1357.45379827
_cell_formula_units_Z   6
loop_
 _symmetry_equiv_pos_site_id
 _symmetry_equiv_pos_as_xyz
  1  'x, y, z'
loop_
 _atom_site_type_symbol
 _atom_site_label
 _atom_site_symmetry_multiplicity
 _atom_site_fract_x
 _atom_site_fract_y
 _atom_site_fract_z
 _atom_site_occupancy
  Li  Li0  1  0.00000000  0.00000000  0.00000000  1
  Li  Li1  1  0.33333333  0.66666667  0.16666667  1
  Li  Li2  1  0.66666667  0.33333333  0.33333333  1
  Li  Li3  1  0.00000000  0.00000000  0.50000000  1
  Li  Li4  1  0.33333333  0.66666667  0.66666667  1
  Li  Li5  1  0.66666667  0.33333333  0.83333333  1
  Ti  Ti6  1  0.33333333  0.66666667  0.80812167  1
  Ti  Ti7  1  0.33333333  0.66666667  0.30812167  1
  Ti  Ti8  1  0.33333333  0.66666667  0.52521167  1
  Ti  Ti9  1  0.33333333  0.66666667  0.02521167  1
  Ti  Ti10  1  0.00000000  0.00000000  0.14145500  1
  Ti  Ti11  1  0.00000000  0.00000000  0.64145500  1
  Ti  Ti12  1  0.00000000  0.00000000  0.85854500  1
  Ti  Ti13  1  1.00000000  0.00000000  0.35854500  1
  Ti  Ti14  1  0.66666667  0.33333333  0.47478833  1
  Ti  Ti15  1  0.66666667  0.33333333  0.97478833  1
  Ti  Ti16  1  0.66666667  0.33333333  0.19187833  1
  Ti  Ti17  1  0.66666667  0.33333333  0.69187833  1
  P  P18  1  0.29053400  0.29053400  0.25000000  1
  P  P19  1  0.66666667  0.62386733  0.08333333  1
  P  P20  1  0.37613267  0.04279933  0.08333333  1
  P  P21  1  0.95720067  0.33333333  0.08333333  1
  P  P22  1  0.00000000  0.70946600  0.25000000  1
  P  P23  1  0.70946600  0.00000000  0.25000000  1
  P  P24  1  0.95720067  0.62386733  0.58333333  1
  P  P25  1  0.33333333  0.95720067  0.41666667  1
  P  P26  1  0.04279933  0.37613267  0.41666667  1
  P  P27  1  0.62386733  0.66666667  0.41666667  1
  P  P28  1  0.66666667  0.04279933  0.58333333  1
  P  P29  1  0.37613267  0.33333333  0.58333333  1
  P  P30  1  0.62386733  0.95720067  0.91666667  1
  P  P31  1  0.00000000  0.29053400  0.75000000  1
  P  P32  1  0.70946600  0.70946600  0.75000000  1
  P  P33  1  0.29053400  0.00000000  0.75000000  1
  P  P34  1  0.33333333  0.37613267  0.91666667  1
  P  P35  1  0.04279933  0.66666667  0.91666667  1
  O  O36  1  0.14505933  0.66400167  0.85693667  1
  O  O37  1  0.16874700  0.69054000  0.24709000  1
  O  O38  1  0.30946000  0.47820700  0.24709000  1
  O  O39  1  0.52179300  0.83125300  0.24709000  1
  O  O40  1  0.83125300  0.52179300  0.25291000  1
  O  O41  1  0.47820700  0.30946000  0.25291000  1
  O  O42  1  0.69054000  0.16874700  0.25291000  1
  O  O43  1  0.49791967  0.64279333  0.08624333  1
  O  O44  1  0.35720667  0.85512633  0.08624333  1
  O  O45  1  0.14487367  0.50208033  0.08624333  1
  O  O46  1  0.52160733  0.66933167  0.47639667  1
  O  O47  1  0.51894233  0.85494067  0.85693667  1
  O  O48  1  0.33599833  0.48105767  0.85693667  1
  O  O49  1  0.14772433  0.66933167  0.97639667  1
  O  O50  1  0.52160733  0.85227567  0.97639667  1
  O  O51  1  0.33066833  0.47839267  0.97639667  1
  O  O52  1  0.14772433  0.47839267  0.47639667  1
  O  O53  1  0.18845967  0.02387333  0.08042333  1
  O  O54  1  0.33066833  0.85227567  0.47639667  1
  O  O55  1  0.51894233  0.66400167  0.35693667  1
  O  O56  1  0.14505933  0.48105767  0.35693667  1
  O  O57  1  0.33599833  0.85494067  0.35693667  1
  O  O58  1  0.97612667  0.16458633  0.08042333  1
  O  O59  1  0.83541367  0.81154033  0.08042333  1
  O  O60  1  0.81172600  0.99733500  0.19027000  1
  O  O61  1  0.83541367  0.02387333  0.58042333  1
  O  O62  1  0.97612667  0.81154033  0.58042333  1
  O  O63  1  0.18845967  0.16458633  0.58042333  1
  O  O64  1  0.49791967  0.85512633  0.58624333  1
  O  O65  1  0.14487367  0.64279333  0.58624333  1
  O  O66  1  0.35720667  0.50208033  0.58624333  1
  O  O67  1  0.16458633  0.97612667  0.41957667  1
  O  O68  1  0.02387333  0.18845967  0.41957667  1
  O  O69  1  0.81154033  0.83541367  0.41957667  1
  O  O70  1  0.18827400  0.00266500  0.80973000  1
  O  O71  1  0.18560900  0.18827400  0.19027000  1
  O  O72  1  0.00266500  0.81439100  0.19027000  1
  O  O73  1  0.81439100  0.00266500  0.30973000  1
  O  O74  1  0.18827400  0.18560900  0.30973000  1
  O  O75  1  0.99733500  0.81172600  0.30973000  1
  O  O76  1  0.81439100  0.81172600  0.80973000  1
  O  O77  1  0.85512633  0.35720667  0.41375667  1
  O  O78  1  0.99733500  0.18560900  0.80973000  1
  O  O79  1  0.18560900  0.99733500  0.69027000  1
  O  O80  1  0.81172600  0.81439100  0.69027000  1
  O  O81  1  0.00266500  0.18827400  0.69027000  1
  O  O82  1  0.64279333  0.49791967  0.41375667  1
  O  O83  1  0.50208033  0.14487367  0.41375667  1
  O  O84  1  0.47839267  0.33066833  0.52360333  1
  O  O85  1  0.50208033  0.35720667  0.91375667  1
  O  O86  1  0.64279333  0.14487367  0.91375667  1
  O  O87  1  0.85512633  0.49791967  0.91375667  1
  O  O88  1  0.16458633  0.18845967  0.91957667  1
  O  O89  1  0.81154033  0.97612667  0.91957667  1
  O  O90  1  0.02387333  0.83541367  0.91957667  1
  O  O91  1  0.83125300  0.30946000  0.75291000  1
  O  O92  1  0.69054000  0.52179300  0.75291000  1
  O  O93  1  0.47820700  0.16874700  0.75291000  1
  O  O94  1  0.85494067  0.33599833  0.14306333  1
  O  O95  1  0.85227567  0.52160733  0.52360333  1
  O  O96  1  0.66933167  0.14772433  0.52360333  1
  O  O97  1  0.48105767  0.33599833  0.64306333  1
  O  O98  1  0.85494067  0.51894233  0.64306333  1
  O  O99  1  0.66400167  0.14505933  0.64306333  1
  O  O100  1  0.48105767  0.14505933  0.14306333  1
  O  O101  1  0.52179300  0.69054000  0.74709000  1
  O  O102  1  0.66400167  0.51894233  0.14306333  1
  O  O103  1  0.85227567  0.33066833  0.02360333  1
  O  O104  1  0.47839267  0.14772433  0.02360333  1
  O  O105  1  0.66933167  0.52160733  0.02360333  1
  O  O106  1  0.30946000  0.83125300  0.74709000  1
  O  O107  1  0.16874700  0.47820700  0.74709000  1
