# generated using pymatgen
data_Rb3AlO3
_symmetry_space_group_name_H-M   'P 1'
_cell_length_a   7.33725000
_cell_length_b   11.65426400
_cell_length_c   6.89648606
_cell_angle_alpha   90.00000000
_cell_angle_beta   104.26442018
_cell_angle_gamma   90.00000000
_symmetry_Int_Tables_number   1
_chemical_formula_structural   Rb3AlO3
_chemical_formula_sum   'Rb12 Al4 O12'
_cell_volume   571.53852977
_cell_formula_units_Z   4
loop_
 _symmetry_equiv_pos_site_id
 _symmetry_equiv_pos_as_xyz
  1  'x, y, z'
loop_
 _atom_site_type_symbol
 _atom_site_label
 _atom_site_symmetry_multiplicity
 _atom_site_fract_x
 _atom_site_fract_y
 _atom_site_fract_z
 _atom_site_occupancy
  Rb  Rb0  1  0.37061600  0.00000000  0.65408800  1
  Rb  Rb1  1  0.62938400  0.00000000  0.34591200  1
  Rb  Rb2  1  0.50000000  0.29972400  0.50000000  1
  Rb  Rb3  1  0.50000000  0.70027600  0.50000000  1
  Rb  Rb4  1  0.50000000  0.23479200  0.00000000  1
  Rb  Rb5  1  0.50000000  0.76520800  0.00000000  1
  Rb  Rb6  1  0.87061600  0.50000000  0.65408800  1
  Rb  Rb7  1  0.12938400  0.50000000  0.34591200  1
  Rb  Rb8  1  0.00000000  0.79972400  0.50000000  1
  Rb  Rb9  1  0.00000000  0.20027600  0.50000000  1
  Rb  Rb10  1  0.00000000  0.73479200  0.00000000  1
  Rb  Rb11  1  0.00000000  0.26520800  0.00000000  1
  Al  Al12  1  0.84443100  0.00000000  0.85350300  1
  Al  Al13  1  0.15556900  0.00000000  0.14649700  1
  Al  Al14  1  0.34443100  0.50000000  0.85350300  1
  Al  Al15  1  0.65556900  0.50000000  0.14649700  1
  O  O16  1  0.72751350  0.87438350  0.73831500  1
  O  O17  1  0.27248650  0.87438350  0.26168500  1
  O  O18  1  0.27248650  0.12561650  0.26168500  1
  O  O19  1  0.72751350  0.12561650  0.73831500  1
  O  O20  1  0.89990800  0.00000000  0.13100200  1
  O  O21  1  0.10009200  0.00000000  0.86899800  1
  O  O22  1  0.22751350  0.37438350  0.73831500  1
  O  O23  1  0.77248650  0.37438350  0.26168500  1
  O  O24  1  0.77248650  0.62561650  0.26168500  1
  O  O25  1  0.22751350  0.62561650  0.73831500  1
  O  O26  1  0.39990800  0.50000000  0.13100200  1
  O  O27  1  0.60009200  0.50000000  0.86899800  1
