# generated using pymatgen
data_Sr2NbN3
_symmetry_space_group_name_H-M   'P 1'
_cell_length_a   6.09391600
_cell_length_b   11.30777400
_cell_length_c   12.65584547
_cell_angle_alpha   90.00000000
_cell_angle_beta   92.48823517
_cell_angle_gamma   90.00000000
_symmetry_Int_Tables_number   1
_chemical_formula_structural   Sr2NbN3
_chemical_formula_sum   'Sr16 Nb8 N24'
_cell_volume   871.27465822
_cell_formula_units_Z   8
loop_
 _symmetry_equiv_pos_site_id
 _symmetry_equiv_pos_as_xyz
  1  'x, y, z'
loop_
 _atom_site_type_symbol
 _atom_site_label
 _atom_site_symmetry_multiplicity
 _atom_site_fract_x
 _atom_site_fract_y
 _atom_site_fract_z
 _atom_site_occupancy
  Sr  Sr0  1  0.22689400  0.61552200  0.42253700  1
  Sr  Sr1  1  0.75727850  0.70142550  0.64112900  1
  Sr  Sr2  1  0.25727850  0.79857450  0.14112900  1
  Sr  Sr3  1  0.74272150  0.79857450  0.35887100  1
  Sr  Sr4  1  0.27310600  0.88447800  0.57746300  1
  Sr  Sr5  1  0.72689400  0.88447800  0.92253700  1
  Sr  Sr6  1  0.77310600  0.61552200  0.07746300  1
  Sr  Sr7  1  0.24272150  0.70142550  0.85887100  1
  Sr  Sr8  1  0.72689400  0.11552200  0.42253700  1
  Sr  Sr9  1  0.25727850  0.20142550  0.64112900  1
  Sr  Sr10  1  0.75727850  0.29857450  0.14112900  1
  Sr  Sr11  1  0.24272150  0.29857450  0.35887100  1
  Sr  Sr12  1  0.77310600  0.38447800  0.57746300  1
  Sr  Sr13  1  0.22689400  0.38447800  0.92253700  1
  Sr  Sr14  1  0.27310600  0.11552200  0.07746300  1
  Sr  Sr15  1  0.74272150  0.20142550  0.85887100  1
  Nb  Nb16  1  0.73252900  0.50148700  0.83652800  1
  Nb  Nb17  1  0.26747100  0.50148700  0.66347200  1
  Nb  Nb18  1  0.76747100  0.99851300  0.16347200  1
  Nb  Nb19  1  0.23252900  0.99851300  0.33652800  1
  Nb  Nb20  1  0.23252900  0.00148700  0.83652800  1
  Nb  Nb21  1  0.76747100  0.00148700  0.66347200  1
  Nb  Nb22  1  0.26747100  0.49851300  0.16347200  1
  Nb  Nb23  1  0.73252900  0.49851300  0.33652800  1
  N  N24  1  0.00000000  0.50441600  0.75000000  1
  N  N25  1  0.50000000  0.99558400  0.25000000  1
  N  N26  1  0.00000000  0.91106600  0.75000000  1
  N  N27  1  0.50000000  0.58893400  0.25000000  1
  N  N28  1  0.33729950  0.66211750  0.62317300  1
  N  N29  1  0.66270050  0.66211750  0.87682700  1
  N  N30  1  0.16270050  0.83788250  0.37682700  1
  N  N31  1  0.83729950  0.83788250  0.12317300  1
  N  N32  1  0.29359600  0.90646200  0.95940400  1
  N  N33  1  0.79359600  0.59353800  0.45940400  1
  N  N34  1  0.20640400  0.59353800  0.04059600  1
  N  N35  1  0.70640400  0.90646200  0.54059600  1
  N  N36  1  0.50000000  0.00441600  0.75000000  1
  N  N37  1  0.00000000  0.49558400  0.25000000  1
  N  N38  1  0.50000000  0.41106600  0.75000000  1
  N  N39  1  0.00000000  0.08893400  0.25000000  1
  N  N40  1  0.83729950  0.16211750  0.62317300  1
  N  N41  1  0.16270050  0.16211750  0.87682700  1
  N  N42  1  0.66270050  0.33788250  0.37682700  1
  N  N43  1  0.33729950  0.33788250  0.12317300  1
  N  N44  1  0.79359600  0.40646200  0.95940400  1
  N  N45  1  0.29359600  0.09353800  0.45940400  1
  N  N46  1  0.70640400  0.09353800  0.04059600  1
  N  N47  1  0.20640400  0.40646200  0.54059600  1
