# generated using pymatgen
data_Ba2BrN
_symmetry_space_group_name_H-M   'P 1'
_cell_length_a   4.19584611
_cell_length_b   4.19584611
_cell_length_c   23.94838156
_cell_angle_alpha   90.00000000
_cell_angle_beta   90.00000000
_cell_angle_gamma   120.00000000
_symmetry_Int_Tables_number   1
_chemical_formula_structural   Ba2BrN
_chemical_formula_sum   'Ba6 Br3 N3'
_cell_volume   365.12864271
_cell_formula_units_Z   3
loop_
 _symmetry_equiv_pos_site_id
 _symmetry_equiv_pos_as_xyz
  1  'x, y, z'
loop_
 _atom_site_type_symbol
 _atom_site_label
 _atom_site_symmetry_multiplicity
 _atom_site_fract_x
 _atom_site_fract_y
 _atom_site_fract_z
 _atom_site_occupancy
  Ba  Ba0  1  0.66666667  0.33333333  0.10487533  1
  Ba  Ba1  1  0.00000000  0.00000000  0.22845800  1
  Ba  Ba2  1  0.33333333  0.66666667  0.43820867  1
  Ba  Ba3  1  0.66666667  0.33333333  0.56179133  1
  Ba  Ba4  1  0.00000000  0.00000000  0.77154200  1
  Ba  Ba5  1  0.33333333  0.66666667  0.89512467  1
  Br  Br6  1  0.00000000  0.00000000  0.00000000  1
  Br  Br7  1  0.66666667  0.33333333  0.33333333  1
  Br  Br8  1  0.33333333  0.66666667  0.66666667  1
  N  N9  1  0.33333333  0.66666667  0.16666667  1
  N  N10  1  1.00000000  1.00000000  0.50000000  1
  N  N11  1  0.66666667  0.33333333  0.83333333  1
