# generated using pymatgen
data_Sr3YRhO6
_symmetry_space_group_name_H-M   'P 1'
_cell_length_a   9.87956422
_cell_length_b   9.87956422
_cell_length_c   11.45380362
_cell_angle_alpha   90.00000000
_cell_angle_beta   90.00000000
_cell_angle_gamma   120.00000000
_symmetry_Int_Tables_number   1
_chemical_formula_structural   Sr3YRhO6
_chemical_formula_sum   'Sr18 Y6 Rh6 O36'
_cell_volume   968.17963024
_cell_formula_units_Z   6
loop_
 _symmetry_equiv_pos_site_id
 _symmetry_equiv_pos_as_xyz
  1  'x, y, z'
loop_
 _atom_site_type_symbol
 _atom_site_label
 _atom_site_symmetry_multiplicity
 _atom_site_fract_x
 _atom_site_fract_y
 _atom_site_fract_z
 _atom_site_occupancy
  Sr  Sr0  1  0.29793067  0.33333333  0.58333333  1
  Sr  Sr1  1  0.03540267  0.70206933  0.58333333  1
  Sr  Sr2  1  0.70206933  0.66666667  0.41666667  1
  Sr  Sr3  1  0.33333333  0.03540267  0.41666667  1
  Sr  Sr4  1  0.96459733  0.29793067  0.41666667  1
  Sr  Sr5  1  0.66666667  0.96459733  0.58333333  1
  Sr  Sr6  1  0.96459733  0.66666667  0.91666667  1
  Sr  Sr7  1  0.70206933  0.03540267  0.91666667  1
  Sr  Sr8  1  0.36873600  0.00000000  0.75000000  1
  Sr  Sr9  1  0.00000000  0.36873600  0.75000000  1
  Sr  Sr10  1  0.63126400  0.63126400  0.75000000  1
  Sr  Sr11  1  0.33333333  0.29793067  0.91666667  1
  Sr  Sr12  1  0.63126400  0.00000000  0.25000000  1
  Sr  Sr13  1  0.36873600  0.36873600  0.25000000  1
  Sr  Sr14  1  0.03540267  0.33333333  0.08333333  1
  Sr  Sr15  1  0.66666667  0.70206933  0.08333333  1
  Sr  Sr16  1  0.29793067  0.96459733  0.08333333  1
  Sr  Sr17  1  0.00000000  0.63126400  0.25000000  1
  Y  Y18  1  0.00000000  0.00000000  0.75000000  1
  Y  Y19  1  0.00000000  0.00000000  0.25000000  1
  Y  Y20  1  0.66666667  0.33333333  0.08333333  1
  Y  Y21  1  0.66666667  0.33333333  0.58333333  1
  Y  Y22  1  0.33333333  0.66666667  0.41666667  1
  Y  Y23  1  0.33333333  0.66666667  0.91666667  1
  Rh  Rh24  1  0.00000000  0.00000000  0.50000000  1
  Rh  Rh25  1  0.00000000  0.00000000  0.00000000  1
  Rh  Rh26  1  0.66666667  0.33333333  0.83333333  1
  Rh  Rh27  1  0.66666667  0.33333333  0.33333333  1
  Rh  Rh28  1  0.33333333  0.66666667  0.16666667  1
  Rh  Rh29  1  0.33333333  0.66666667  0.66666667  1
  O  O30  1  0.17923467  0.02244433  0.61273133  1
  O  O31  1  0.97755567  0.15679033  0.61273133  1
  O  O32  1  0.84320967  0.82076533  0.61273133  1
  O  O33  1  0.49012367  0.64422233  0.55393533  1
  O  O34  1  0.35577767  0.84590133  0.55393533  1
  O  O35  1  0.15409867  0.50987633  0.55393533  1
  O  O36  1  0.82076533  0.97755567  0.38726867  1
  O  O37  1  0.02244433  0.84320967  0.38726867  1
  O  O38  1  0.15679033  0.17923467  0.38726867  1
  O  O39  1  0.50987633  0.35577767  0.44606467  1
  O  O40  1  0.84590133  0.49012367  0.44606467  1
  O  O41  1  0.64422233  0.15409867  0.44606467  1
  O  O42  1  0.84590133  0.35577767  0.94606467  1
  O  O43  1  0.64422233  0.49012367  0.94606467  1
  O  O44  1  0.50987633  0.15409867  0.94606467  1
  O  O45  1  0.15679033  0.97755567  0.88726867  1
  O  O46  1  0.02244433  0.17923467  0.88726867  1
  O  O47  1  0.82076533  0.84320967  0.88726867  1
  O  O48  1  0.48743200  0.31088900  0.72060200  1
  O  O49  1  0.68911100  0.17654300  0.72060200  1
  O  O50  1  0.82345700  0.51256800  0.72060200  1
  O  O51  1  0.17654300  0.68911100  0.77939800  1
  O  O52  1  0.51256800  0.82345700  0.77939800  1
  O  O53  1  0.31088900  0.48743200  0.77939800  1
  O  O54  1  0.51256800  0.68911100  0.27939800  1
  O  O55  1  0.31088900  0.82345700  0.27939800  1
  O  O56  1  0.17654300  0.48743200  0.27939800  1
  O  O57  1  0.82345700  0.31088900  0.22060200  1
  O  O58  1  0.68911100  0.51256800  0.22060200  1
  O  O59  1  0.48743200  0.17654300  0.22060200  1
  O  O60  1  0.15409867  0.64422233  0.05393533  1
  O  O61  1  0.35577767  0.50987633  0.05393533  1
  O  O62  1  0.49012367  0.84590133  0.05393533  1
  O  O63  1  0.84320967  0.02244433  0.11273133  1
  O  O64  1  0.17923467  0.15679033  0.11273133  1
  O  O65  1  0.97755567  0.82076533  0.11273133  1
