# generated using pymatgen
data_Rb2Se
_symmetry_space_group_name_H-M   'P 1'
_cell_length_a   8.12221800
_cell_length_b   8.12221800
_cell_length_c   8.12221800
_cell_angle_alpha   90.00000000
_cell_angle_beta   90.00000000
_cell_angle_gamma   90.00000000
_symmetry_Int_Tables_number   1
_chemical_formula_structural   Rb2Se
_chemical_formula_sum   'Rb8 Se4'
_cell_volume   535.82617535
_cell_formula_units_Z   4
loop_
 _symmetry_equiv_pos_site_id
 _symmetry_equiv_pos_as_xyz
  1  'x, y, z'
loop_
 _atom_site_type_symbol
 _atom_site_label
 _atom_site_symmetry_multiplicity
 _atom_site_fract_x
 _atom_site_fract_y
 _atom_site_fract_z
 _atom_site_occupancy
  Rb  Rb0  1  0.25000000  0.75000000  0.75000000  1
  Rb  Rb1  1  0.25000000  0.25000000  0.75000000  1
  Rb  Rb2  1  0.25000000  0.25000000  0.25000000  1
  Rb  Rb3  1  0.25000000  0.75000000  0.25000000  1
  Rb  Rb4  1  0.75000000  0.75000000  0.25000000  1
  Rb  Rb5  1  0.75000000  0.25000000  0.25000000  1
  Rb  Rb6  1  0.75000000  0.25000000  0.75000000  1
  Rb  Rb7  1  0.75000000  0.75000000  0.75000000  1
  Se  Se8  1  0.00000000  0.00000000  0.00000000  1
  Se  Se9  1  0.00000000  0.50000000  0.50000000  1
  Se  Se10  1  0.50000000  0.00000000  0.50000000  1
  Se  Se11  1  0.50000000  0.50000000  0.00000000  1
