# generated using pymatgen
data_Al2(MoO4)3
_symmetry_space_group_name_H-M   'P 1'
_cell_length_a   9.17901006
_cell_length_b   9.26421947
_cell_length_c   12.79893174
_cell_angle_alpha   90.00000000
_cell_angle_beta   90.00000000
_cell_angle_gamma   90.00000000
_symmetry_Int_Tables_number   1
_chemical_formula_structural   Al2(MoO4)3
_chemical_formula_sum   'Al8 Mo12 O48'
_cell_volume   1088.37461458
_cell_formula_units_Z   4
loop_
 _symmetry_equiv_pos_site_id
 _symmetry_equiv_pos_as_xyz
  1  'x, y, z'
loop_
 _atom_site_type_symbol
 _atom_site_label
 _atom_site_symmetry_multiplicity
 _atom_site_fract_x
 _atom_site_fract_y
 _atom_site_fract_z
 _atom_site_occupancy
  Al  Al0  1  0.24986227  0.46594026  0.38129554  1
  Al  Al1  1  0.24986227  0.03405974  0.61870446  1
  Al  Al2  1  0.25013773  0.96594026  0.11870446  1
  Al  Al3  1  0.25013773  0.53405974  0.88129554  1
  Al  Al4  1  0.75013773  0.53405974  0.61870446  1
  Al  Al5  1  0.75013773  0.96594026  0.38129554  1
  Al  Al6  1  0.74986227  0.03405974  0.88129554  1
  Al  Al7  1  0.74986227  0.46594026  0.11870446  1
  Mo  Mo8  1  0.02632158  0.75000000  0.50000000  1
  Mo  Mo9  1  0.52632158  0.75000000  0.00000000  1
  Mo  Mo10  1  0.97367842  0.25000000  0.50000000  1
  Mo  Mo11  1  0.47367842  0.25000000  0.00000000  1
  Mo  Mo12  1  0.39467228  0.11645925  0.35515428  1
  Mo  Mo13  1  0.39467228  0.38354075  0.64484572  1
  Mo  Mo14  1  0.10532772  0.61645925  0.14484572  1
  Mo  Mo15  1  0.10532772  0.88354075  0.85515428  1
  Mo  Mo16  1  0.60532772  0.88354075  0.64484572  1
  Mo  Mo17  1  0.60532772  0.61645925  0.35515428  1
  Mo  Mo18  1  0.89467228  0.38354075  0.85515428  1
  Mo  Mo19  1  0.89467228  0.11645925  0.14484572  1
  O  O20  1  0.85963098  0.30441626  0.16753146  1
  O  O21  1  0.85963098  0.19558374  0.83246854  1
  O  O22  1  0.64036902  0.80441626  0.33246854  1
  O  O23  1  0.64036902  0.69558374  0.66753146  1
  O  O24  1  0.14036902  0.69558374  0.83246854  1
  O  O25  1  0.14036902  0.80441626  0.16753146  1
  O  O26  1  0.35963098  0.19558374  0.66753146  1
  O  O27  1  0.35963098  0.30441626  0.33246854  1
  O  O28  1  0.81692893  0.06864014  0.02161857  1
  O  O29  1  0.81692893  0.43135986  0.97838143  1
  O  O30  1  0.68307107  0.56864014  0.47838143  1
  O  O31  1  0.68307107  0.93135986  0.52161857  1
  O  O32  1  0.18307107  0.93135986  0.97838143  1
  O  O33  1  0.18307107  0.56864014  0.02161857  1
  O  O34  1  0.31692893  0.43135986  0.52161857  1
  O  O35  1  0.31692893  0.06864014  0.47838143  1
  O  O36  1  0.41279804  0.65974302  0.90653290  1
  O  O37  1  0.58720196  0.15974302  0.90653290  1
  O  O38  1  0.91279804  0.84025698  0.40653290  1
  O  O39  1  0.91279804  0.65974302  0.59346710  1
  O  O40  1  0.08777557  0.08962571  0.14039903  1
  O  O41  1  0.08777557  0.41037429  0.85960097  1
  O  O42  1  0.41222443  0.58962571  0.35960097  1
  O  O43  1  0.41222443  0.91037429  0.64039903  1
  O  O44  1  0.91222443  0.91037429  0.85960097  1
  O  O45  1  0.91222443  0.58962571  0.14039903  1
  O  O46  1  0.58777557  0.41037429  0.64039903  1
  O  O47  1  0.58777557  0.08962571  0.35960097  1
  O  O48  1  0.36181426  0.12292676  0.06763074  1
  O  O49  1  0.36181426  0.37707324  0.93236926  1
  O  O50  1  0.13818574  0.62292676  0.43236926  1
  O  O51  1  0.13818574  0.87707324  0.56763074  1
  O  O52  1  0.63818574  0.87707324  0.93236926  1
  O  O53  1  0.63818574  0.62292676  0.06763074  1
  O  O54  1  0.86181426  0.37707324  0.56763074  1
  O  O55  1  0.86181426  0.12292676  0.43236926  1
  O  O56  1  0.31578633  0.00579792  0.25528201  1
  O  O57  1  0.31578633  0.49420208  0.74471799  1
  O  O58  1  0.18421367  0.50579792  0.24471799  1
  O  O59  1  0.18421367  0.99420208  0.75528201  1
  O  O60  1  0.68421367  0.99420208  0.74471799  1
  O  O61  1  0.68421367  0.50579792  0.25528201  1
  O  O62  1  0.81578633  0.49420208  0.75528201  1
  O  O63  1  0.81578633  0.00579792  0.24471799  1
  O  O64  1  0.08720196  0.34025698  0.40653290  1
  O  O65  1  0.08720196  0.15974302  0.59346710  1
  O  O66  1  0.41279804  0.84025698  0.09346710  1
  O  O67  1  0.58720196  0.34025698  0.09346710  1
