# generated using pymatgen
data_BaCu2SnSe4
_symmetry_space_group_name_H-M   'P 1'
_cell_length_a   6.84032600
_cell_length_b   11.42013800
_cell_length_c   11.21363200
_cell_angle_alpha   90.00000000
_cell_angle_beta   90.00000000
_cell_angle_gamma   90.00000000
_symmetry_Int_Tables_number   1
_chemical_formula_structural   BaCu2SnSe4
_chemical_formula_sum   'Ba4 Cu8 Sn4 Se16'
_cell_volume   875.98052642
_cell_formula_units_Z   4
loop_
 _symmetry_equiv_pos_site_id
 _symmetry_equiv_pos_as_xyz
  1  'x, y, z'
loop_
 _atom_site_type_symbol
 _atom_site_label
 _atom_site_symmetry_multiplicity
 _atom_site_fract_x
 _atom_site_fract_y
 _atom_site_fract_z
 _atom_site_occupancy
  Ba  Ba0  1  0.63234700  0.00000000  0.50000000  1
  Ba  Ba1  1  0.63234700  0.00000000  0.00000000  1
  Ba  Ba2  1  0.13234700  0.50000000  0.50000000  1
  Ba  Ba3  1  0.13234700  0.50000000  0.00000000  1
  Cu  Cu4  1  0.22868600  0.77927200  0.12965000  1
  Cu  Cu5  1  0.22868600  0.77927200  0.37035000  1
  Cu  Cu6  1  0.22868600  0.22072800  0.62965000  1
  Cu  Cu7  1  0.22868600  0.22072800  0.87035000  1
  Cu  Cu8  1  0.72868600  0.27927200  0.12965000  1
  Cu  Cu9  1  0.72868600  0.27927200  0.37035000  1
  Cu  Cu10  1  0.72868600  0.72072800  0.62965000  1
  Cu  Cu11  1  0.72868600  0.72072800  0.87035000  1
  Sn  Sn12  1  0.23024500  0.14884300  0.25000000  1
  Sn  Sn13  1  0.23024500  0.85115700  0.75000000  1
  Sn  Sn14  1  0.73024500  0.64884300  0.25000000  1
  Sn  Sn15  1  0.73024500  0.35115700  0.75000000  1
  Se  Se16  1  0.37862850  0.06202850  0.75000000  1
  Se  Se17  1  0.85621250  0.11269350  0.25000000  1
  Se  Se18  1  0.37862850  0.93797150  0.25000000  1
  Se  Se19  1  0.85621250  0.88730650  0.75000000  1
  Se  Se20  1  0.38741250  0.74510050  0.93149300  1
  Se  Se21  1  0.38741250  0.25489950  0.06850700  1
  Se  Se22  1  0.38741250  0.74510050  0.56850700  1
  Se  Se23  1  0.38741250  0.25489950  0.43149300  1
  Se  Se24  1  0.87862850  0.56202850  0.75000000  1
  Se  Se25  1  0.35621250  0.61269350  0.25000000  1
  Se  Se26  1  0.87862850  0.43797150  0.25000000  1
  Se  Se27  1  0.35621250  0.38730650  0.75000000  1
  Se  Se28  1  0.88741250  0.24510050  0.93149300  1
  Se  Se29  1  0.88741250  0.75489950  0.06850700  1
  Se  Se30  1  0.88741250  0.24510050  0.56850700  1
  Se  Se31  1  0.88741250  0.75489950  0.43149300  1
