# generated using pymatgen
data_CsLaCdTe3
_symmetry_space_group_name_H-M   'P 1'
_cell_length_a   4.71615000
_cell_length_b   17.32324800
_cell_length_c   12.30546400
_cell_angle_alpha   90.00000000
_cell_angle_beta   90.00000000
_cell_angle_gamma   90.00000000
_symmetry_Int_Tables_number   1
_chemical_formula_structural   CsLaCdTe3
_chemical_formula_sum   'Cs4 La4 Cd4 Te12'
_cell_volume   1005.34454701
_cell_formula_units_Z   4
loop_
 _symmetry_equiv_pos_site_id
 _symmetry_equiv_pos_as_xyz
  1  'x, y, z'
loop_
 _atom_site_type_symbol
 _atom_site_label
 _atom_site_symmetry_multiplicity
 _atom_site_fract_x
 _atom_site_fract_y
 _atom_site_fract_z
 _atom_site_occupancy
  Cs  Cs0  1  0.50000000  0.24978300  0.25000000  1
  Cs  Cs1  1  0.00000000  0.25021700  0.75000000  1
  Cs  Cs2  1  0.00000000  0.74978300  0.25000000  1
  Cs  Cs3  1  0.50000000  0.75021700  0.75000000  1
  La  La4  1  0.00000000  0.00000000  0.00000000  1
  La  La5  1  0.00000000  0.00000000  0.50000000  1
  La  La6  1  0.50000000  0.50000000  0.00000000  1
  La  La7  1  0.50000000  0.50000000  0.50000000  1
  Cd  Cd8  1  0.00000000  0.46557700  0.25000000  1
  Cd  Cd9  1  0.50000000  0.03442300  0.75000000  1
  Cd  Cd10  1  0.50000000  0.96557700  0.25000000  1
  Cd  Cd11  1  0.00000000  0.53442300  0.75000000  1
  Te  Te12  1  0.50000000  0.12292000  0.94370300  1
  Te  Te13  1  0.00000000  0.37708000  0.05629700  1
  Te  Te14  1  0.00000000  0.37708000  0.44370300  1
  Te  Te15  1  0.50000000  0.12292000  0.55629700  1
  Te  Te16  1  0.00000000  0.06635000  0.25000000  1
  Te  Te17  1  0.50000000  0.43365000  0.75000000  1
  Te  Te18  1  0.00000000  0.62292000  0.94370300  1
  Te  Te19  1  0.50000000  0.87708000  0.05629700  1
  Te  Te20  1  0.50000000  0.87708000  0.44370300  1
  Te  Te21  1  0.00000000  0.62292000  0.55629700  1
  Te  Te22  1  0.50000000  0.56635000  0.25000000  1
  Te  Te23  1  0.00000000  0.93365000  0.75000000  1
