# generated using pymatgen
data_CsGe
_symmetry_space_group_name_H-M   'P 1'
_cell_length_a   13.93575600
_cell_length_b   13.93575600
_cell_length_c   13.93575600
_cell_angle_alpha   90.00000000
_cell_angle_beta   90.00000000
_cell_angle_gamma   90.00000000
_symmetry_Int_Tables_number   1
_chemical_formula_structural   CsGe
_chemical_formula_sum   'Cs32 Ge32'
_cell_volume   2706.39760909
_cell_formula_units_Z   32
loop_
 _symmetry_equiv_pos_site_id
 _symmetry_equiv_pos_as_xyz
  1  'x, y, z'
loop_
 _atom_site_type_symbol
 _atom_site_label
 _atom_site_symmetry_multiplicity
 _atom_site_fract_x
 _atom_site_fract_y
 _atom_site_fract_z
 _atom_site_occupancy
  Cs  Cs0  1  0.33458400  0.33458400  0.33458400  1
  Cs  Cs1  1  0.16541600  0.83458400  0.16541600  1
  Cs  Cs2  1  0.16541600  0.16541600  0.83458400  1
  Cs  Cs3  1  0.83458400  0.16541600  0.16541600  1
  Cs  Cs4  1  0.66541600  0.66541600  0.33458400  1
  Cs  Cs5  1  0.33458400  0.66541600  0.66541600  1
  Cs  Cs6  1  0.66541600  0.33458400  0.66541600  1
  Cs  Cs7  1  0.83458400  0.83458400  0.83458400  1
  Cs  Cs8  1  0.33832900  0.13903300  0.06706300  1
  Cs  Cs9  1  0.16167100  0.56706300  0.36096700  1
  Cs  Cs10  1  0.16167100  0.43293700  0.63903300  1
  Cs  Cs11  1  0.43293700  0.36096700  0.83832900  1
  Cs  Cs12  1  0.56706300  0.36096700  0.16167100  1
  Cs  Cs13  1  0.63903300  0.16167100  0.43293700  1
  Cs  Cs14  1  0.36096700  0.83832900  0.43293700  1
  Cs  Cs15  1  0.06706300  0.33832900  0.13903300  1
  Cs  Cs16  1  0.13903300  0.06706300  0.33832900  1
  Cs  Cs17  1  0.86096700  0.93293700  0.33832900  1
  Cs  Cs18  1  0.06706300  0.66167100  0.86096700  1
  Cs  Cs19  1  0.86096700  0.06706300  0.66167100  1
  Cs  Cs20  1  0.93293700  0.66167100  0.13903300  1
  Cs  Cs21  1  0.93293700  0.33832900  0.86096700  1
  Cs  Cs22  1  0.13903300  0.93293700  0.66167100  1
  Cs  Cs23  1  0.33832900  0.86096700  0.93293700  1
  Cs  Cs24  1  0.66167100  0.13903300  0.93293700  1
  Cs  Cs25  1  0.66167100  0.86096700  0.06706300  1
  Cs  Cs26  1  0.36096700  0.16167100  0.56706300  1
  Cs  Cs27  1  0.63903300  0.83832900  0.56706300  1
  Cs  Cs28  1  0.43293700  0.63903300  0.16167100  1
  Cs  Cs29  1  0.56706300  0.63903300  0.83832900  1
  Cs  Cs30  1  0.83832900  0.43293700  0.36096700  1
  Cs  Cs31  1  0.83832900  0.56706300  0.63903300  1
  Ge  Ge32  1  0.06615500  0.06615500  0.06615500  1
  Ge  Ge33  1  0.43384500  0.56615500  0.43384500  1
  Ge  Ge34  1  0.43384500  0.43384500  0.56615500  1
  Ge  Ge35  1  0.56615500  0.43384500  0.43384500  1
  Ge  Ge36  1  0.93384500  0.93384500  0.06615500  1
  Ge  Ge37  1  0.06615500  0.93384500  0.93384500  1
  Ge  Ge38  1  0.93384500  0.06615500  0.93384500  1
  Ge  Ge39  1  0.56615500  0.56615500  0.56615500  1
  Ge  Ge40  1  0.06128900  0.31497000  0.42817800  1
  Ge  Ge41  1  0.43871100  0.92817800  0.18503000  1
  Ge  Ge42  1  0.43871100  0.07182200  0.81497000  1
  Ge  Ge43  1  0.07182200  0.18503000  0.56128900  1
  Ge  Ge44  1  0.92817800  0.18503000  0.43871100  1
  Ge  Ge45  1  0.81497000  0.43871100  0.07182200  1
  Ge  Ge46  1  0.18503000  0.56128900  0.07182200  1
  Ge  Ge47  1  0.42817800  0.06128900  0.31497000  1
  Ge  Ge48  1  0.31497000  0.42817800  0.06128900  1
  Ge  Ge49  1  0.68503000  0.57182200  0.06128900  1
  Ge  Ge50  1  0.42817800  0.93871100  0.68503000  1
  Ge  Ge51  1  0.68503000  0.42817800  0.93871100  1
  Ge  Ge52  1  0.57182200  0.93871100  0.31497000  1
  Ge  Ge53  1  0.57182200  0.06128900  0.68503000  1
  Ge  Ge54  1  0.31497000  0.57182200  0.93871100  1
  Ge  Ge55  1  0.06128900  0.68503000  0.57182200  1
  Ge  Ge56  1  0.93871100  0.31497000  0.57182200  1
  Ge  Ge57  1  0.93871100  0.68503000  0.42817800  1
  Ge  Ge58  1  0.18503000  0.43871100  0.92817800  1
  Ge  Ge59  1  0.81497000  0.56128900  0.92817800  1
  Ge  Ge60  1  0.07182200  0.81497000  0.43871100  1
  Ge  Ge61  1  0.92817800  0.81497000  0.56128900  1
  Ge  Ge62  1  0.56128900  0.07182200  0.18503000  1
  Ge  Ge63  1  0.56128900  0.92817800  0.81497000  1
