# generated using pymatgen
data_Rb2NaHoF6
_symmetry_space_group_name_H-M   'P 1'
_cell_length_a   6.33378600
_cell_length_b   6.33378600
_cell_length_c   9.02433600
_cell_angle_alpha   90.00000000
_cell_angle_beta   90.00000000
_cell_angle_gamma   90.00000000
_symmetry_Int_Tables_number   1
_chemical_formula_structural   Rb2NaHoF6
_chemical_formula_sum   'Rb4 Na2 Ho2 F12'
_cell_volume   362.02788939
_cell_formula_units_Z   2
loop_
 _symmetry_equiv_pos_site_id
 _symmetry_equiv_pos_as_xyz
  1  'x, y, z'
loop_
 _atom_site_type_symbol
 _atom_site_label
 _atom_site_symmetry_multiplicity
 _atom_site_fract_x
 _atom_site_fract_y
 _atom_site_fract_z
 _atom_site_occupancy
  Rb  Rb0  1  0.00000000  0.50000000  0.25000000  1
  Rb  Rb1  1  0.50000000  0.00000000  0.25000000  1
  Rb  Rb2  1  0.50000000  0.00000000  0.75000000  1
  Rb  Rb3  1  0.00000000  0.50000000  0.75000000  1
  Na  Na4  1  0.00000000  0.00000000  0.00000000  1
  Na  Na5  1  0.50000000  0.50000000  0.50000000  1
  Ho  Ho6  1  0.50000000  0.50000000  0.00000000  1
  Ho  Ho7  1  0.00000000  0.00000000  0.50000000  1
  F  F8  1  0.00000000  0.00000000  0.25906000  1
  F  F9  1  0.50000000  0.50000000  0.24094000  1
  F  F10  1  0.28934350  0.22909250  0.00000000  1
  F  F11  1  0.22909250  0.71065650  0.00000000  1
  F  F12  1  0.21065650  0.27090750  0.50000000  1
  F  F13  1  0.77090750  0.28934350  0.00000000  1
  F  F14  1  0.50000000  0.50000000  0.75906000  1
  F  F15  1  0.00000000  0.00000000  0.74094000  1
  F  F16  1  0.78934350  0.72909250  0.50000000  1
  F  F17  1  0.72909250  0.21065650  0.50000000  1
  F  F18  1  0.71065650  0.77090750  0.00000000  1
  F  F19  1  0.27090750  0.78934350  0.50000000  1
