# generated using pymatgen
data_Mg3N2
_symmetry_space_group_name_H-M   'P 1'
_cell_length_a   10.02448400
_cell_length_b   10.02448400
_cell_length_c   10.02448400
_cell_angle_alpha   90.00000000
_cell_angle_beta   90.00000000
_cell_angle_gamma   90.00000000
_symmetry_Int_Tables_number   1
_chemical_formula_structural   Mg3N2
_chemical_formula_sum   'Mg48 N32'
_cell_volume   1007.36319867
_cell_formula_units_Z   16
loop_
 _symmetry_equiv_pos_site_id
 _symmetry_equiv_pos_as_xyz
  1  'x, y, z'
loop_
 _atom_site_type_symbol
 _atom_site_label
 _atom_site_symmetry_multiplicity
 _atom_site_fract_x
 _atom_site_fract_y
 _atom_site_fract_z
 _atom_site_occupancy
  Mg  Mg0  1  0.13924850  0.86774650  0.59743050  1
  Mg  Mg1  1  0.13225350  0.09743050  0.36075150  1
  Mg  Mg2  1  0.36075150  0.13225350  0.09743050  1
  Mg  Mg3  1  0.36075150  0.86774650  0.40256950  1
  Mg  Mg4  1  0.86774650  0.59743050  0.13924850  1
  Mg  Mg5  1  0.90256950  0.13924850  0.13225350  1
  Mg  Mg6  1  0.59743050  0.13924850  0.86774650  1
  Mg  Mg7  1  0.40256950  0.36075150  0.86774650  1
  Mg  Mg8  1  0.13225350  0.90256950  0.13924850  1
  Mg  Mg9  1  0.13924850  0.13225350  0.90256950  1
  Mg  Mg10  1  0.86774650  0.40256950  0.36075150  1
  Mg  Mg11  1  0.09743050  0.36075150  0.13225350  1
  Mg  Mg12  1  0.09743050  0.13924850  0.63225350  1
  Mg  Mg13  1  0.90256950  0.36075150  0.63225350  1
  Mg  Mg14  1  0.59743050  0.36075150  0.36774650  1
  Mg  Mg15  1  0.63225350  0.90256950  0.36075150  1
  Mg  Mg16  1  0.13924850  0.63225350  0.09743050  1
  Mg  Mg17  1  0.13924850  0.36774650  0.40256950  1
  Mg  Mg18  1  0.36774650  0.40256950  0.13924850  1
  Mg  Mg19  1  0.36075150  0.63225350  0.90256950  1
  Mg  Mg20  1  0.36774650  0.59743050  0.36075150  1
  Mg  Mg21  1  0.36075150  0.36774650  0.59743050  1
  Mg  Mg22  1  0.63225350  0.09743050  0.13924850  1
  Mg  Mg23  1  0.40256950  0.13924850  0.36774650  1
  Mg  Mg24  1  0.63924850  0.36774650  0.09743050  1
  Mg  Mg25  1  0.63225350  0.59743050  0.86075150  1
  Mg  Mg26  1  0.86075150  0.63225350  0.59743050  1
  Mg  Mg27  1  0.86075150  0.36774650  0.90256950  1
  Mg  Mg28  1  0.36774650  0.09743050  0.63924850  1
  Mg  Mg29  1  0.40256950  0.63924850  0.63225350  1
  Mg  Mg30  1  0.09743050  0.63924850  0.36774650  1
  Mg  Mg31  1  0.90256950  0.86075150  0.36774650  1
  Mg  Mg32  1  0.63225350  0.40256950  0.63924850  1
  Mg  Mg33  1  0.63924850  0.63225350  0.40256950  1
  Mg  Mg34  1  0.36774650  0.90256950  0.86075150  1
  Mg  Mg35  1  0.59743050  0.86075150  0.63225350  1
  Mg  Mg36  1  0.59743050  0.63924850  0.13225350  1
  Mg  Mg37  1  0.40256950  0.86075150  0.13225350  1
  Mg  Mg38  1  0.09743050  0.86075150  0.86774650  1
  Mg  Mg39  1  0.13225350  0.40256950  0.86075150  1
  Mg  Mg40  1  0.63924850  0.13225350  0.59743050  1
  Mg  Mg41  1  0.63924850  0.86774650  0.90256950  1
  Mg  Mg42  1  0.86774650  0.90256950  0.63924850  1
  Mg  Mg43  1  0.86075150  0.13225350  0.40256950  1
  Mg  Mg44  1  0.86774650  0.09743050  0.86075150  1
  Mg  Mg45  1  0.86075150  0.86774650  0.09743050  1
  Mg  Mg46  1  0.13225350  0.59743050  0.63924850  1
  Mg  Mg47  1  0.90256950  0.63924850  0.86774650  1
  N  N48  1  0.00000000  0.00000000  0.50000000  1
  N  N49  1  0.00000000  0.00000000  0.00000000  1
  N  N50  1  0.50000000  0.00000000  0.00000000  1
  N  N51  1  0.00000000  0.50000000  0.00000000  1
  N  N52  1  0.25000000  0.21900400  0.50000000  1
  N  N53  1  0.28099600  0.50000000  0.75000000  1
  N  N54  1  0.50000000  0.25000000  0.21900400  1
  N  N55  1  0.21900400  0.50000000  0.25000000  1
  N  N56  1  0.50000000  0.75000000  0.28099600  1
  N  N57  1  0.75000000  0.28099600  0.50000000  1
  N  N58  1  0.25000000  0.28099600  0.00000000  1
  N  N59  1  0.21900400  0.00000000  0.75000000  1
  N  N60  1  0.00000000  0.25000000  0.28099600  1
  N  N61  1  0.28099600  0.00000000  0.25000000  1
  N  N62  1  0.00000000  0.75000000  0.21900400  1
  N  N63  1  0.75000000  0.21900400  0.00000000  1
  N  N64  1  0.50000000  0.50000000  0.00000000  1
  N  N65  1  0.50000000  0.50000000  0.50000000  1
  N  N66  1  0.00000000  0.50000000  0.50000000  1
  N  N67  1  0.50000000  0.00000000  0.50000000  1
  N  N68  1  0.75000000  0.71900400  0.00000000  1
  N  N69  1  0.78099600  0.00000000  0.25000000  1
  N  N70  1  0.00000000  0.75000000  0.71900400  1
  N  N71  1  0.71900400  0.00000000  0.75000000  1
  N  N72  1  0.00000000  0.25000000  0.78099600  1
  N  N73  1  0.25000000  0.78099600  0.00000000  1
  N  N74  1  0.75000000  0.78099600  0.50000000  1
  N  N75  1  0.71900400  0.50000000  0.25000000  1
  N  N76  1  0.50000000  0.75000000  0.78099600  1
  N  N77  1  0.78099600  0.50000000  0.75000000  1
  N  N78  1  0.50000000  0.25000000  0.71900400  1
  N  N79  1  0.25000000  0.71900400  0.50000000  1
