# generated using pymatgen
data_Ti(PS3)2
_symmetry_space_group_name_H-M   'P 1'
_cell_length_a   8.16368600
_cell_length_b   11.50614200
_cell_length_c   21.28084000
_cell_angle_alpha   90.00000000
_cell_angle_beta   90.00000000
_cell_angle_gamma   90.00000000
_symmetry_Int_Tables_number   1
_chemical_formula_structural   Ti(PS3)2
_chemical_formula_sum   'Ti8 P16 S48'
_cell_volume   1998.96314937
_cell_formula_units_Z   8
loop_
 _symmetry_equiv_pos_site_id
 _symmetry_equiv_pos_as_xyz
  1  'x, y, z'
loop_
 _atom_site_type_symbol
 _atom_site_label
 _atom_site_symmetry_multiplicity
 _atom_site_fract_x
 _atom_site_fract_y
 _atom_site_fract_z
 _atom_site_occupancy
  Ti  Ti0  1  0.25000000  0.75000000  0.35147400  1
  Ti  Ti1  1  0.00000000  0.50000000  0.10147400  1
  Ti  Ti2  1  0.25000000  0.25000000  0.85147400  1
  Ti  Ti3  1  0.00000000  0.00000000  0.60147400  1
  Ti  Ti4  1  0.75000000  0.75000000  0.85147400  1
  Ti  Ti5  1  0.50000000  0.50000000  0.60147400  1
  Ti  Ti6  1  0.75000000  0.25000000  0.35147400  1
  Ti  Ti7  1  0.50000000  0.00000000  0.10147400  1
  P  P8  1  0.35664150  0.81315400  0.18696350  1
  P  P9  1  0.60664150  0.43684600  0.43696350  1
  P  P10  1  0.39335850  0.56315400  0.43696350  1
  P  P11  1  0.14335850  0.68684600  0.18696350  1
  P  P12  1  0.35664150  0.31315400  0.68696350  1
  P  P13  1  0.60664150  0.93684600  0.93696350  1
  P  P14  1  0.39335850  0.06315400  0.93696350  1
  P  P15  1  0.14335850  0.18684600  0.68696350  1
  P  P16  1  0.85664150  0.81315400  0.68696350  1
  P  P17  1  0.10664150  0.43684600  0.93696350  1
  P  P18  1  0.89335850  0.56315400  0.93696350  1
  P  P19  1  0.64335850  0.68684600  0.68696350  1
  P  P20  1  0.85664150  0.31315400  0.18696350  1
  P  P21  1  0.10664150  0.93684600  0.43696350  1
  P  P22  1  0.89335850  0.06315400  0.43696350  1
  P  P23  1  0.64335850  0.18684600  0.18696350  1
  S  S24  1  0.52045150  0.27239450  0.42570000  1
  S  S25  1  0.47954850  0.72760550  0.42570000  1
  S  S26  1  0.46137850  0.77445000  0.27196050  1
  S  S27  1  0.03862150  0.72555000  0.27196050  1
  S  S28  1  0.78862150  0.52445000  0.02196050  1
  S  S29  1  0.21137850  0.47555000  0.02196050  1
  S  S30  1  0.98250200  0.71204350  0.11588850  1
  S  S31  1  0.01749800  0.28795650  0.11588850  1
  S  S32  1  0.76749800  0.46204350  0.36588850  1
  S  S33  1  0.23250200  0.53795650  0.36588850  1
  S  S34  1  0.77045150  0.47760550  0.17570000  1
  S  S35  1  0.22954850  0.52239450  0.17570000  1
  S  S36  1  0.52045150  0.77239450  0.92570000  1
  S  S37  1  0.47954850  0.22760550  0.92570000  1
  S  S38  1  0.46137850  0.27445000  0.77196050  1
  S  S39  1  0.03862150  0.22555000  0.77196050  1
  S  S40  1  0.78862150  0.02445000  0.52196050  1
  S  S41  1  0.21137850  0.97555000  0.52196050  1
  S  S42  1  0.98250200  0.21204350  0.61588850  1
  S  S43  1  0.01749800  0.78795650  0.61588850  1
  S  S44  1  0.76749800  0.96204350  0.86588850  1
  S  S45  1  0.23250200  0.03795650  0.86588850  1
  S  S46  1  0.77045150  0.97760550  0.67570000  1
  S  S47  1  0.22954850  0.02239450  0.67570000  1
  S  S48  1  0.02045150  0.27239450  0.92570000  1
  S  S49  1  0.97954850  0.72760550  0.92570000  1
  S  S50  1  0.96137850  0.77445000  0.77196050  1
  S  S51  1  0.53862150  0.72555000  0.77196050  1
  S  S52  1  0.28862150  0.52445000  0.52196050  1
  S  S53  1  0.71137850  0.47555000  0.52196050  1
  S  S54  1  0.48250200  0.71204350  0.61588850  1
  S  S55  1  0.51749800  0.28795650  0.61588850  1
  S  S56  1  0.26749800  0.46204350  0.86588850  1
  S  S57  1  0.73250200  0.53795650  0.86588850  1
  S  S58  1  0.27045150  0.47760550  0.67570000  1
  S  S59  1  0.72954850  0.52239450  0.67570000  1
  S  S60  1  0.02045150  0.77239450  0.42570000  1
  S  S61  1  0.97954850  0.22760550  0.42570000  1
  S  S62  1  0.96137850  0.27445000  0.27196050  1
  S  S63  1  0.53862150  0.22555000  0.27196050  1
  S  S64  1  0.28862150  0.02445000  0.02196050  1
  S  S65  1  0.71137850  0.97555000  0.02196050  1
  S  S66  1  0.48250200  0.21204350  0.11588850  1
  S  S67  1  0.51749800  0.78795650  0.11588850  1
  S  S68  1  0.26749800  0.96204350  0.36588850  1
  S  S69  1  0.73250200  0.03795650  0.36588850  1
  S  S70  1  0.27045150  0.97760550  0.17570000  1
  S  S71  1  0.72954850  0.02239450  0.17570000  1
