# generated using pymatgen
data_K3Cu3As2
_symmetry_space_group_name_H-M   'P 1'
_cell_length_a   5.80436577
_cell_length_b   5.80436577
_cell_length_c   20.62859868
_cell_angle_alpha   90.00000000
_cell_angle_beta   90.00000000
_cell_angle_gamma   120.00000000
_symmetry_Int_Tables_number   1
_chemical_formula_structural   K3Cu3As2
_chemical_formula_sum   'K9 Cu9 As6'
_cell_volume   601.87998773
_cell_formula_units_Z   3
loop_
 _symmetry_equiv_pos_site_id
 _symmetry_equiv_pos_as_xyz
  1  'x, y, z'
loop_
 _atom_site_type_symbol
 _atom_site_label
 _atom_site_symmetry_multiplicity
 _atom_site_fract_x
 _atom_site_fract_y
 _atom_site_fract_z
 _atom_site_occupancy
  K  K0  1  0.00000000  0.00000000  0.08937100  1
  K  K1  1  0.66666667  0.33333333  0.24396233  1
  K  K2  1  0.33333333  0.66666667  0.16666667  1
  K  K3  1  0.66666667  0.33333333  0.42270433  1
  K  K4  1  0.33333333  0.66666667  0.57729567  1
  K  K5  1  1.00000000  1.00000000  0.50000000  1
  K  K6  1  0.33333333  0.66666667  0.75603767  1
  K  K7  1  0.00000000  0.00000000  0.91062900  1
  K  K8  1  0.66666667  0.33333333  0.83333333  1
  Cu  Cu9  1  0.50000000  0.00000000  0.00000000  1
  Cu  Cu10  1  0.50000000  0.50000000  0.00000000  1
  Cu  Cu11  1  0.00000000  0.50000000  0.00000000  1
  Cu  Cu12  1  0.16666667  0.33333333  0.33333333  1
  Cu  Cu13  1  0.16666667  0.83333333  0.33333333  1
  Cu  Cu14  1  0.66666667  0.83333333  0.33333333  1
  Cu  Cu15  1  0.83333333  0.66666667  0.66666667  1
  Cu  Cu16  1  0.83333333  0.16666667  0.66666667  1
  Cu  Cu17  1  0.33333333  0.16666667  0.66666667  1
  As  As18  1  0.66666667  0.33333333  0.08098833  1
  As  As19  1  0.00000000  0.00000000  0.25234500  1
  As  As20  1  0.33333333  0.66666667  0.41432167  1
  As  As21  1  0.66666667  0.33333333  0.58567833  1
  As  As22  1  0.00000000  0.00000000  0.74765500  1
  As  As23  1  0.33333333  0.66666667  0.91901167  1
