# generated using pymatgen
data_Rb3GaO3
_symmetry_space_group_name_H-M   'P 1'
_cell_length_a   7.47600600
_cell_length_b   11.71583600
_cell_length_c   6.92692929
_cell_angle_alpha   90.00000000
_cell_angle_beta   103.47686749
_cell_angle_gamma   90.00000000
_symmetry_Int_Tables_number   1
_chemical_formula_structural   Rb3GaO3
_chemical_formula_sum   'Rb12 Ga4 O12'
_cell_volume   590.00712097
_cell_formula_units_Z   4
loop_
 _symmetry_equiv_pos_site_id
 _symmetry_equiv_pos_as_xyz
  1  'x, y, z'
loop_
 _atom_site_type_symbol
 _atom_site_label
 _atom_site_symmetry_multiplicity
 _atom_site_fract_x
 _atom_site_fract_y
 _atom_site_fract_z
 _atom_site_occupancy
  Rb  Rb0  1  0.62786500  0.00000000  0.34510300  1
  Rb  Rb1  1  0.37213500  0.00000000  0.65489700  1
  Rb  Rb2  1  0.50000000  0.30342700  0.50000000  1
  Rb  Rb3  1  0.50000000  0.69657300  0.50000000  1
  Rb  Rb4  1  0.50000000  0.24006700  0.00000000  1
  Rb  Rb5  1  0.50000000  0.75993300  0.00000000  1
  Rb  Rb6  1  0.12786500  0.50000000  0.34510300  1
  Rb  Rb7  1  0.87213500  0.50000000  0.65489700  1
  Rb  Rb8  1  0.00000000  0.80342700  0.50000000  1
  Rb  Rb9  1  0.00000000  0.19657300  0.50000000  1
  Rb  Rb10  1  0.00000000  0.74006700  0.00000000  1
  Rb  Rb11  1  0.00000000  0.25993300  0.00000000  1
  Ga  Ga12  1  0.16406300  0.00000000  0.14903200  1
  Ga  Ga13  1  0.83593700  0.00000000  0.85096800  1
  Ga  Ga14  1  0.66406300  0.50000000  0.14903200  1
  Ga  Ga15  1  0.33593700  0.50000000  0.85096800  1
  O  O16  1  0.09913700  0.00000000  0.85784100  1
  O  O17  1  0.90086300  0.00000000  0.14215900  1
  O  O18  1  0.28314850  0.86879350  0.26560100  1
  O  O19  1  0.71685150  0.86879350  0.73439900  1
  O  O20  1  0.71685150  0.13120650  0.73439900  1
  O  O21  1  0.28314850  0.13120650  0.26560100  1
  O  O22  1  0.59913700  0.50000000  0.85784100  1
  O  O23  1  0.40086300  0.50000000  0.14215900  1
  O  O24  1  0.78314850  0.36879350  0.26560100  1
  O  O25  1  0.21685150  0.36879350  0.73439900  1
  O  O26  1  0.21685150  0.63120650  0.73439900  1
  O  O27  1  0.78314850  0.63120650  0.26560100  1
