# generated using pymatgen
data_Ba2Zn3(AsO)2
_symmetry_space_group_name_H-M   'P 1'
_cell_length_a   4.22445000
_cell_length_b   4.22445000
_cell_length_c   20.14292000
_cell_angle_alpha   90.00000000
_cell_angle_beta   90.00000000
_cell_angle_gamma   90.00000000
_symmetry_Int_Tables_number   1
_chemical_formula_structural   Ba2Zn3(AsO)2
_chemical_formula_sum   'Ba4 Zn6 As4 O4'
_cell_volume   359.47010320
_cell_formula_units_Z   2
loop_
 _symmetry_equiv_pos_site_id
 _symmetry_equiv_pos_as_xyz
  1  'x, y, z'
loop_
 _atom_site_type_symbol
 _atom_site_label
 _atom_site_symmetry_multiplicity
 _atom_site_fract_x
 _atom_site_fract_y
 _atom_site_fract_z
 _atom_site_occupancy
  Ba  Ba0  1  0.50000000  0.50000000  0.08902200  1
  Ba  Ba1  1  0.00000000  0.00000000  0.41097800  1
  Ba  Ba2  1  0.00000000  0.00000000  0.58902200  1
  Ba  Ba3  1  0.50000000  0.50000000  0.91097800  1
  Zn  Zn4  1  0.00000000  0.00000000  0.00000000  1
  Zn  Zn5  1  0.50000000  0.00000000  0.25000000  1
  Zn  Zn6  1  0.00000000  0.50000000  0.25000000  1
  Zn  Zn7  1  0.50000000  0.50000000  0.50000000  1
  Zn  Zn8  1  0.00000000  0.50000000  0.75000000  1
  Zn  Zn9  1  0.50000000  0.00000000  0.75000000  1
  As  As10  1  0.00000000  0.00000000  0.17494300  1
  As  As11  1  0.50000000  0.50000000  0.32505700  1
  As  As12  1  0.50000000  0.50000000  0.67494300  1
  As  As13  1  0.00000000  0.00000000  0.82505700  1
  O  O14  1  0.00000000  0.50000000  0.00000000  1
  O  O15  1  0.50000000  0.00000000  0.00000000  1
  O  O16  1  0.50000000  0.00000000  0.50000000  1
  O  O17  1  0.00000000  0.50000000  0.50000000  1
