# generated using pymatgen
data_Nb2Zn4O9
_symmetry_space_group_name_H-M   'P 1'
_cell_length_a   5.26038608
_cell_length_b   5.26038608
_cell_length_c   14.38239300
_cell_angle_alpha   90.00000000
_cell_angle_beta   90.00000000
_cell_angle_gamma   120.00000000
_symmetry_Int_Tables_number   1
_chemical_formula_structural   Nb2Zn4O9
_chemical_formula_sum   'Nb4 Zn8 O18'
_cell_volume   344.66487213
_cell_formula_units_Z   2
loop_
 _symmetry_equiv_pos_site_id
 _symmetry_equiv_pos_as_xyz
  1  'x, y, z'
loop_
 _atom_site_type_symbol
 _atom_site_label
 _atom_site_symmetry_multiplicity
 _atom_site_fract_x
 _atom_site_fract_y
 _atom_site_fract_z
 _atom_site_occupancy
  Nb  Nb0  1  0.00000000  0.00000000  0.36092900  1
  Nb  Nb1  1  0.00000000  0.00000000  0.13907100  1
  Nb  Nb2  1  0.00000000  0.00000000  0.63907100  1
  Nb  Nb3  1  0.00000000  0.00000000  0.86092900  1
  Zn  Zn4  1  0.33333333  0.66666667  0.01423500  1
  Zn  Zn5  1  0.66666667  0.33333333  0.48576500  1
  Zn  Zn6  1  0.66666667  0.33333333  0.98576500  1
  Zn  Zn7  1  0.33333333  0.66666667  0.51423500  1
  Zn  Zn8  1  0.33333333  0.66666667  0.79459500  1
  Zn  Zn9  1  0.66666667  0.33333333  0.70540500  1
  Zn  Zn10  1  0.66666667  0.33333333  0.20540500  1
  Zn  Zn11  1  0.33333333  0.66666667  0.29459500  1
  O  O12  1  0.28588200  0.28588200  0.75000000  1
  O  O13  1  0.00000000  0.71411800  0.75000000  1
  O  O14  1  0.71411800  0.00000000  0.75000000  1
  O  O15  1  0.71411800  0.71411800  0.25000000  1
  O  O16  1  0.00000000  0.28588200  0.25000000  1
  O  O17  1  0.28588200  0.00000000  0.25000000  1
  O  O18  1  0.68008600  0.66039900  0.58351700  1
  O  O19  1  0.33960100  0.01968700  0.58351700  1
  O  O20  1  0.98031300  0.31991400  0.58351700  1
  O  O21  1  0.01968700  0.33960100  0.91648300  1
  O  O22  1  0.31991400  0.98031300  0.91648300  1
  O  O23  1  0.66039900  0.68008600  0.91648300  1
  O  O24  1  0.33960100  0.31991400  0.08351700  1
  O  O25  1  0.68008600  0.01968700  0.08351700  1
  O  O26  1  0.98031300  0.66039900  0.08351700  1
  O  O27  1  0.01968700  0.68008600  0.41648300  1
  O  O28  1  0.66039900  0.98031300  0.41648300  1
  O  O29  1  0.31991400  0.33960100  0.41648300  1
