# generated using pymatgen
data_RbBS2
_symmetry_space_group_name_H-M   'P 1'
_cell_length_a   16.10630728
_cell_length_b   16.10630728
_cell_length_c   9.23756337
_cell_angle_alpha   90.00000000
_cell_angle_beta   90.00000000
_cell_angle_gamma   120.00000000
_symmetry_Int_Tables_number   1
_chemical_formula_structural   RbBS2
_chemical_formula_sum   'Rb18 B18 S36'
_cell_volume   2075.29587612
_cell_formula_units_Z   18
loop_
 _symmetry_equiv_pos_site_id
 _symmetry_equiv_pos_as_xyz
  1  'x, y, z'
loop_
 _atom_site_type_symbol
 _atom_site_label
 _atom_site_symmetry_multiplicity
 _atom_site_fract_x
 _atom_site_fract_y
 _atom_site_fract_z
 _atom_site_occupancy
  Rb  Rb0  1  0.44912800  0.00000000  0.25000000  1
  Rb  Rb1  1  0.33333333  0.11579467  0.91666667  1
  Rb  Rb2  1  0.21753867  0.88420533  0.58333333  1
  Rb  Rb3  1  0.21753867  0.33333333  0.08333333  1
  Rb  Rb4  1  0.33333333  0.21753867  0.41666667  1
  Rb  Rb5  1  0.44912800  0.44912800  0.75000000  1
  Rb  Rb6  1  0.11579467  0.33333333  0.58333333  1
  Rb  Rb7  1  0.00000000  0.44912800  0.25000000  1
  Rb  Rb8  1  0.88420533  0.21753867  0.91666667  1
  Rb  Rb9  1  0.88420533  0.66666667  0.41666667  1
  Rb  Rb10  1  0.00000000  0.55087200  0.75000000  1
  Rb  Rb11  1  0.11579467  0.78246133  0.08333333  1
  Rb  Rb12  1  0.78246133  0.66666667  0.91666667  1
  Rb  Rb13  1  0.66666667  0.78246133  0.58333333  1
  Rb  Rb14  1  0.55087200  0.55087200  0.25000000  1
  Rb  Rb15  1  0.55087200  0.00000000  0.75000000  1
  Rb  Rb16  1  0.66666667  0.88420533  0.08333333  1
  Rb  Rb17  1  0.78246133  0.11579467  0.41666667  1
  B  B18  1  0.11206100  0.00000000  0.25000000  1
  B  B19  1  0.33333333  0.77872767  0.91666667  1
  B  B20  1  0.55460567  0.22127233  0.58333333  1
  B  B21  1  0.55460567  0.33333333  0.08333333  1
  B  B22  1  0.33333333  0.55460567  0.41666667  1
  B  B23  1  0.11206100  0.11206100  0.75000000  1
  B  B24  1  0.77872767  0.33333333  0.58333333  1
  B  B25  1  0.00000000  0.11206100  0.25000000  1
  B  B26  1  0.22127233  0.55460567  0.91666667  1
  B  B27  1  0.22127233  0.66666667  0.41666667  1
  B  B28  1  0.00000000  0.88793900  0.75000000  1
  B  B29  1  0.77872767  0.44539433  0.08333333  1
  B  B30  1  0.44539433  0.66666667  0.91666667  1
  B  B31  1  0.66666667  0.44539433  0.58333333  1
  B  B32  1  0.88793900  0.88793900  0.25000000  1
  B  B33  1  0.88793900  0.00000000  0.75000000  1
  B  B34  1  0.66666667  0.22127233  0.08333333  1
  B  B35  1  0.44539433  0.77872767  0.41666667  1
  S  S36  1  0.55054467  0.21721133  0.08333333  1
  S  S37  1  0.33333333  0.78278867  0.41666667  1
  S  S38  1  0.11612200  0.00000000  0.75000000  1
  S  S39  1  0.11612200  0.11612200  0.25000000  1
  S  S40  1  0.33333333  0.55054467  0.91666667  1
  S  S41  1  0.55054467  0.33333333  0.58333333  1
  S  S42  1  0.22241800  0.22241800  0.75000000  1
  S  S43  1  0.33333333  0.44424867  0.41666667  1
  S  S44  1  0.44424867  0.33333333  0.08333333  1
  S  S45  1  0.44424867  0.11091533  0.58333333  1
  S  S46  1  0.33333333  0.88908467  0.91666667  1
  S  S47  1  0.22241800  0.00000000  0.25000000  1
  S  S48  1  0.21721133  0.55054467  0.41666667  1
  S  S49  1  0.00000000  0.11612200  0.75000000  1
  S  S50  1  0.78278867  0.33333333  0.08333333  1
  S  S51  1  0.78278867  0.44945533  0.58333333  1
  S  S52  1  0.00000000  0.88387800  0.25000000  1
  S  S53  1  0.21721133  0.66666667  0.91666667  1
  S  S54  1  0.88908467  0.55575133  0.08333333  1
  S  S55  1  0.00000000  0.77758200  0.75000000  1
  S  S56  1  0.11091533  0.66666667  0.41666667  1
  S  S57  1  0.11091533  0.44424867  0.91666667  1
  S  S58  1  0.00000000  0.22241800  0.25000000  1
  S  S59  1  0.88908467  0.33333333  0.58333333  1
  S  S60  1  0.88387800  0.88387800  0.75000000  1
  S  S61  1  0.66666667  0.44945533  0.08333333  1
  S  S62  1  0.44945533  0.66666667  0.41666667  1
  S  S63  1  0.44945533  0.78278867  0.91666667  1
  S  S64  1  0.66666667  0.21721133  0.58333333  1
  S  S65  1  0.88387800  0.00000000  0.25000000  1
  S  S66  1  0.55575133  0.88908467  0.41666667  1
  S  S67  1  0.66666667  0.11091533  0.08333333  1
  S  S68  1  0.77758200  0.00000000  0.75000000  1
  S  S69  1  0.77758200  0.77758200  0.25000000  1
  S  S70  1  0.66666667  0.55575133  0.58333333  1
  S  S71  1  0.55575133  0.66666667  0.91666667  1
