# generated using pymatgen
data_CaC2
_symmetry_space_group_name_H-M   'P 1'
_cell_length_a   6.62797400
_cell_length_b   4.16119600
_cell_length_c   7.45456745
_cell_angle_alpha   90.00000000
_cell_angle_beta   107.30684231
_cell_angle_gamma   90.00000000
_symmetry_Int_Tables_number   1
_chemical_formula_structural   CaC2
_chemical_formula_sum   'Ca4 C8'
_cell_volume   196.29075239
_cell_formula_units_Z   4
loop_
 _symmetry_equiv_pos_site_id
 _symmetry_equiv_pos_as_xyz
  1  'x, y, z'
loop_
 _atom_site_type_symbol
 _atom_site_label
 _atom_site_symmetry_multiplicity
 _atom_site_fract_x
 _atom_site_fract_y
 _atom_site_fract_z
 _atom_site_occupancy
  Ca  Ca0  1  0.00000000  0.82275100  0.25000000  1
  Ca  Ca1  1  0.00000000  0.17724900  0.75000000  1
  Ca  Ca2  1  0.50000000  0.32275100  0.25000000  1
  Ca  Ca3  1  0.50000000  0.67724900  0.75000000  1
  C  C4  1  0.22016750  0.35839050  0.43881100  1
  C  C5  1  0.77983250  0.35839050  0.06118900  1
  C  C6  1  0.22016750  0.64160950  0.93881100  1
  C  C7  1  0.77983250  0.64160950  0.56118900  1
  C  C8  1  0.72016750  0.85839050  0.43881100  1
  C  C9  1  0.27983250  0.85839050  0.06118900  1
  C  C10  1  0.72016750  0.14160950  0.93881100  1
  C  C11  1  0.27983250  0.14160950  0.56118900  1
