# generated using pymatgen
data_LuCu(BO2)5
_symmetry_space_group_name_H-M   'P 1'
_cell_length_a   6.27911600
_cell_length_b   8.55248200
_cell_length_c   12.63948000
_cell_angle_alpha   90.00000000
_cell_angle_beta   90.00000000
_cell_angle_gamma   90.00000000
_symmetry_Int_Tables_number   1
_chemical_formula_structural   LuCu(BO2)5
_chemical_formula_sum   'Lu4 Cu4 B20 O40'
_cell_volume   678.76569074
_cell_formula_units_Z   4
loop_
 _symmetry_equiv_pos_site_id
 _symmetry_equiv_pos_as_xyz
  1  'x, y, z'
loop_
 _atom_site_type_symbol
 _atom_site_label
 _atom_site_symmetry_multiplicity
 _atom_site_fract_x
 _atom_site_fract_y
 _atom_site_fract_z
 _atom_site_occupancy
  Lu  Lu0  1  0.00000000  0.50000000  0.75000000  1
  Lu  Lu1  1  0.00000000  0.50000000  0.25000000  1
  Lu  Lu2  1  0.50000000  0.00000000  0.25000000  1
  Lu  Lu3  1  0.50000000  0.00000000  0.75000000  1
  Cu  Cu4  1  0.50000000  0.00000000  0.00000000  1
  Cu  Cu5  1  0.00000000  0.50000000  0.00000000  1
  Cu  Cu6  1  0.00000000  0.50000000  0.50000000  1
  Cu  Cu7  1  0.50000000  0.00000000  0.50000000  1
  B  B8  1  0.88350500  0.19279600  0.90008900  1
  B  B9  1  0.50000000  0.50000000  0.75000000  1
  B  B10  1  0.50000000  0.50000000  0.25000000  1
  B  B11  1  0.88350500  0.19279600  0.09991100  1
  B  B12  1  0.11649500  0.80720400  0.09991100  1
  B  B13  1  0.11649500  0.80720400  0.90008900  1
  B  B14  1  0.61649500  0.69279600  0.90008900  1
  B  B15  1  0.38350500  0.30720400  0.90008900  1
  B  B16  1  0.38350500  0.30720400  0.09991100  1
  B  B17  1  0.61649500  0.69279600  0.09991100  1
  B  B18  1  0.38350500  0.69279600  0.40008900  1
  B  B19  1  0.00000000  0.00000000  0.25000000  1
  B  B20  1  0.00000000  0.00000000  0.75000000  1
  B  B21  1  0.38350500  0.69279600  0.59991100  1
  B  B22  1  0.61649500  0.30720400  0.59991100  1
  B  B23  1  0.61649500  0.30720400  0.40008900  1
  B  B24  1  0.11649500  0.19279600  0.40008900  1
  B  B25  1  0.88350500  0.80720400  0.40008900  1
  B  B26  1  0.88350500  0.80720400  0.59991100  1
  B  B27  1  0.11649500  0.19279600  0.59991100  1
  O  O28  1  0.93809250  0.34451650  0.11386950  1
  O  O29  1  0.43809250  0.15548350  0.11386950  1
  O  O30  1  0.56190750  0.84451650  0.11386950  1
  O  O31  1  0.06190750  0.65548350  0.11386950  1
  O  O32  1  0.93809250  0.34451650  0.88613050  1
  O  O33  1  0.06190750  0.65548350  0.88613050  1
  O  O34  1  0.56190750  0.84451650  0.88613050  1
  O  O35  1  0.43809250  0.15548350  0.88613050  1
  O  O36  1  0.34957050  0.59446450  0.31356850  1
  O  O37  1  0.65042950  0.40553550  0.31356850  1
  O  O38  1  0.65042950  0.59446450  0.81356850  1
  O  O39  1  0.34957050  0.40553550  0.81356850  1
  O  O40  1  0.35247150  0.37232450  0.00000000  1
  O  O41  1  0.64752850  0.62767550  0.00000000  1
  O  O42  1  0.14752850  0.87232450  0.00000000  1
  O  O43  1  0.85247150  0.12767550  0.00000000  1
  O  O44  1  0.34957050  0.40553550  0.18643150  1
  O  O45  1  0.65042950  0.59446450  0.18643150  1
  O  O46  1  0.65042950  0.40553550  0.68643150  1
  O  O47  1  0.34957050  0.59446450  0.68643150  1
  O  O48  1  0.43809250  0.84451650  0.61386950  1
  O  O49  1  0.93809250  0.65548350  0.61386950  1
  O  O50  1  0.06190750  0.34451650  0.61386950  1
  O  O51  1  0.56190750  0.15548350  0.61386950  1
  O  O52  1  0.43809250  0.84451650  0.38613050  1
  O  O53  1  0.56190750  0.15548350  0.38613050  1
  O  O54  1  0.06190750  0.34451650  0.38613050  1
  O  O55  1  0.93809250  0.65548350  0.38613050  1
  O  O56  1  0.84957050  0.09446450  0.81356850  1
  O  O57  1  0.15042950  0.90553550  0.81356850  1
  O  O58  1  0.15042950  0.09446450  0.31356850  1
  O  O59  1  0.84957050  0.90553550  0.31356850  1
  O  O60  1  0.85247150  0.87232450  0.50000000  1
  O  O61  1  0.14752850  0.12767550  0.50000000  1
  O  O62  1  0.64752850  0.37232450  0.50000000  1
  O  O63  1  0.35247150  0.62767550  0.50000000  1
  O  O64  1  0.84957050  0.90553550  0.68643150  1
  O  O65  1  0.15042950  0.09446450  0.68643150  1
  O  O66  1  0.15042950  0.90553550  0.18643150  1
  O  O67  1  0.84957050  0.09446450  0.18643150  1
