# generated using pymatgen
data_K2NiO2
_symmetry_space_group_name_H-M   'P 1'
_cell_length_a   3.97964223
_cell_length_b   3.97964223
_cell_length_c   13.09503383
_cell_angle_alpha   90.00000000
_cell_angle_beta   90.00000000
_cell_angle_gamma   90.00000000
_symmetry_Int_Tables_number   1
_chemical_formula_structural   K2NiO2
_chemical_formula_sum   'K4 Ni2 O4'
_cell_volume   207.39328240
_cell_formula_units_Z   2
loop_
 _symmetry_equiv_pos_site_id
 _symmetry_equiv_pos_as_xyz
  1  'x, y, z'
loop_
 _atom_site_type_symbol
 _atom_site_label
 _atom_site_symmetry_multiplicity
 _atom_site_fract_x
 _atom_site_fract_y
 _atom_site_fract_z
 _atom_site_occupancy
  K  K0  1  0.00000000  0.00000000  0.65954733  1
  K  K1  1  0.50000000  0.50000000  0.84045267  1
  K  K2  1  0.50000000  0.50000000  0.15954733  1
  K  K3  1  0.00000000  0.00000000  0.34045267  1
  Ni  Ni4  1  0.00000000  0.00000000  0.00000000  1
  Ni  Ni5  1  0.50000000  0.50000000  0.50000000  1
  O  O6  1  0.50000000  0.50000000  0.63160375  1
  O  O7  1  0.00000000  0.00000000  0.86839625  1
  O  O8  1  0.00000000  0.00000000  0.13160375  1
  O  O9  1  0.50000000  0.50000000  0.36839625  1
