# generated using pymatgen
data_KAsSe2
_symmetry_space_group_name_H-M   'P 1'
_cell_length_a   7.93815600
_cell_length_b   11.23297400
_cell_length_c   12.88727141
_cell_angle_alpha   90.00000000
_cell_angle_beta   107.23356392
_cell_angle_gamma   90.00000000
_symmetry_Int_Tables_number   1
_chemical_formula_structural   KAsSe2
_chemical_formula_sum   'K8 As8 Se16'
_cell_volume   1097.55543312
_cell_formula_units_Z   8
loop_
 _symmetry_equiv_pos_site_id
 _symmetry_equiv_pos_as_xyz
  1  'x, y, z'
loop_
 _atom_site_type_symbol
 _atom_site_label
 _atom_site_symmetry_multiplicity
 _atom_site_fract_x
 _atom_site_fract_y
 _atom_site_fract_z
 _atom_site_occupancy
  K  K0  1  0.43464450  0.77555550  0.25550400  1
  K  K1  1  0.87043000  0.00350300  0.49501300  1
  K  K2  1  0.43464450  0.22444450  0.75550400  1
  K  K3  1  0.87043000  0.99649700  0.99501300  1
  K  K4  1  0.93464450  0.27555550  0.25550400  1
  K  K5  1  0.37043000  0.50350300  0.49501300  1
  K  K6  1  0.93464450  0.72444450  0.75550400  1
  K  K7  1  0.37043000  0.49649700  0.99501300  1
  As  As8  1  0.44851300  0.14356200  0.17662200  1
  As  As9  1  0.38101300  0.07712600  0.44440200  1
  As  As10  1  0.44851300  0.85643800  0.67662200  1
  As  As11  1  0.38101300  0.92287400  0.94440200  1
  As  As12  1  0.94851300  0.64356200  0.17662200  1
  As  As13  1  0.88101300  0.57712600  0.44440200  1
  As  As14  1  0.94851300  0.35643800  0.67662200  1
  As  As15  1  0.88101300  0.42287400  0.94440200  1
  Se  Se16  1  0.68209700  0.00677000  0.20874300  1
  Se  Se17  1  0.26958350  0.11761050  0.98390900  1
  Se  Se18  1  0.70221250  0.71526050  0.49765100  1
  Se  Se19  1  0.22486100  0.04387700  0.24799200  1
  Se  Se20  1  0.68209700  0.99323000  0.70874300  1
  Se  Se21  1  0.26958350  0.88238950  0.48390900  1
  Se  Se22  1  0.70221250  0.28473950  0.99765100  1
  Se  Se23  1  0.22486100  0.95612300  0.74799200  1
  Se  Se24  1  0.18209700  0.50677000  0.20874300  1
  Se  Se25  1  0.76958350  0.61761050  0.98390900  1
  Se  Se26  1  0.20221250  0.21526050  0.49765100  1
  Se  Se27  1  0.72486100  0.54387700  0.24799200  1
  Se  Se28  1  0.18209700  0.49323000  0.70874300  1
  Se  Se29  1  0.76958350  0.38238950  0.48390900  1
  Se  Se30  1  0.20221250  0.78473950  0.99765100  1
  Se  Se31  1  0.72486100  0.45612300  0.74799200  1
