# generated using pymatgen
data_NaYPO4F
_symmetry_space_group_name_H-M   'P 1'
_cell_length_a   9.03072000
_cell_length_b   7.00976800
_cell_length_c   6.54622008
_cell_angle_alpha   90.00000000
_cell_angle_beta   105.99982889
_cell_angle_gamma   90.00000000
_symmetry_Int_Tables_number   1
_chemical_formula_structural   NaYPO4F
_chemical_formula_sum   'Na4 Y4 P4 O16 F4'
_cell_volume   398.34432291
_cell_formula_units_Z   4
loop_
 _symmetry_equiv_pos_site_id
 _symmetry_equiv_pos_as_xyz
  1  'x, y, z'
loop_
 _atom_site_type_symbol
 _atom_site_label
 _atom_site_symmetry_multiplicity
 _atom_site_fract_x
 _atom_site_fract_y
 _atom_site_fract_z
 _atom_site_occupancy
  Na  Na0  1  0.50000000  0.20689400  0.50000000  1
  Na  Na1  1  0.50000000  0.79310600  0.50000000  1
  Na  Na2  1  0.00000000  0.70689400  0.50000000  1
  Na  Na3  1  0.00000000  0.29310600  0.50000000  1
  Y  Y4  1  0.71765700  0.00000000  0.11724500  1
  Y  Y5  1  0.28234300  0.00000000  0.88275500  1
  Y  Y6  1  0.21765700  0.50000000  0.11724500  1
  Y  Y7  1  0.78234300  0.50000000  0.88275500  1
  P  P8  1  0.84560100  0.00000000  0.72348300  1
  P  P9  1  0.15439900  0.00000000  0.27651700  1
  P  P10  1  0.34560100  0.50000000  0.72348300  1
  P  P11  1  0.65439900  0.50000000  0.27651700  1
  O  O12  1  0.98280600  0.00000000  0.27203600  1
  O  O13  1  0.01719400  0.00000000  0.72796400  1
  O  O14  1  0.74291900  0.00000000  0.49190700  1
  O  O15  1  0.25708100  0.00000000  0.50809300  1
  O  O16  1  0.80464050  0.17519350  0.84480600  1
  O  O17  1  0.19535950  0.82480650  0.15519400  1
  O  O18  1  0.19535950  0.17519350  0.15519400  1
  O  O19  1  0.80464050  0.82480650  0.84480600  1
  O  O20  1  0.48280600  0.50000000  0.27203600  1
  O  O21  1  0.51719400  0.50000000  0.72796400  1
  O  O22  1  0.24291900  0.50000000  0.49190700  1
  O  O23  1  0.75708100  0.50000000  0.50809300  1
  O  O24  1  0.30464050  0.67519350  0.84480600  1
  O  O25  1  0.69535950  0.32480650  0.15519400  1
  O  O26  1  0.69535950  0.67519350  0.15519400  1
  O  O27  1  0.30464050  0.32480650  0.84480600  1
  F  F28  1  0.51795200  0.00000000  0.81020700  1
  F  F29  1  0.48204800  0.00000000  0.18979300  1
  F  F30  1  0.01795200  0.50000000  0.81020700  1
  F  F31  1  0.98204800  0.50000000  0.18979300  1
