# generated using pymatgen
data_Na5La(MoO4)4
_symmetry_space_group_name_H-M   'P 1'
_cell_length_a   11.76771600
_cell_length_b   11.76771600
_cell_length_c   11.71425000
_cell_angle_alpha   90.00000000
_cell_angle_beta   90.00000000
_cell_angle_gamma   90.00000000
_symmetry_Int_Tables_number   1
_chemical_formula_structural   Na5La(MoO4)4
_chemical_formula_sum   'Na20 La4 Mo16 O64'
_cell_volume   1622.17926407
_cell_formula_units_Z   4
loop_
 _symmetry_equiv_pos_site_id
 _symmetry_equiv_pos_as_xyz
  1  'x, y, z'
loop_
 _atom_site_type_symbol
 _atom_site_label
 _atom_site_symmetry_multiplicity
 _atom_site_fract_x
 _atom_site_fract_y
 _atom_site_fract_z
 _atom_site_occupancy
  Na  Na0  1  0.12348250  0.29560850  0.53529450  1
  Na  Na1  1  0.70439150  0.62348250  0.28529450  1
  Na  Na2  1  0.79560850  0.87651750  0.78529450  1
  Na  Na3  1  0.37651750  0.20439150  0.03529450  1
  Na  Na4  1  0.87651750  0.20439150  0.21470550  1
  Na  Na5  1  0.79560850  0.37651750  0.96470550  1
  Na  Na6  1  0.70439150  0.12348250  0.46470550  1
  Na  Na7  1  0.62348250  0.29560850  0.71470550  1
  Na  Na8  1  0.50000000  0.00000000  0.75000000  1
  Na  Na9  1  0.00000000  0.00000000  0.50000000  1
  Na  Na10  1  0.62348250  0.79560850  0.03529450  1
  Na  Na11  1  0.20439150  0.12348250  0.78529450  1
  Na  Na12  1  0.29560850  0.37651750  0.28529450  1
  Na  Na13  1  0.87651750  0.70439150  0.53529450  1
  Na  Na14  1  0.37651750  0.70439150  0.71470550  1
  Na  Na15  1  0.29560850  0.87651750  0.46470550  1
  Na  Na16  1  0.20439150  0.62348250  0.96470550  1
  Na  Na17  1  0.12348250  0.79560850  0.21470550  1
  Na  Na18  1  0.00000000  0.50000000  0.25000000  1
  Na  Na19  1  0.50000000  0.50000000  0.00000000  1
  La  La20  1  0.50000000  0.50000000  0.50000000  1
  La  La21  1  0.50000000  0.00000000  0.25000000  1
  La  La22  1  0.00000000  0.00000000  0.00000000  1
  La  La23  1  0.00000000  0.50000000  0.75000000  1
  Mo  Mo24  1  0.17889750  0.09698750  0.26905850  1
  Mo  Mo25  1  0.40301250  0.17889750  0.51905850  1
  Mo  Mo26  1  0.67889750  0.09698750  0.98094150  1
  Mo  Mo27  1  0.90301250  0.17889750  0.73094150  1
  Mo  Mo28  1  0.59698750  0.32110250  0.23094150  1
  Mo  Mo29  1  0.82110250  0.40301250  0.48094150  1
  Mo  Mo30  1  0.32110250  0.40301250  0.76905850  1
  Mo  Mo31  1  0.09698750  0.32110250  0.01905850  1
  Mo  Mo32  1  0.67889750  0.59698750  0.76905850  1
  Mo  Mo33  1  0.90301250  0.67889750  0.01905850  1
  Mo  Mo34  1  0.17889750  0.59698750  0.48094150  1
  Mo  Mo35  1  0.40301250  0.67889750  0.23094150  1
  Mo  Mo36  1  0.09698750  0.82110250  0.73094150  1
  Mo  Mo37  1  0.32110250  0.90301250  0.98094150  1
  Mo  Mo38  1  0.82110250  0.90301250  0.26905850  1
  Mo  Mo39  1  0.59698750  0.82110250  0.51905850  1
  O  O40  1  0.31384450  0.58728350  0.55775650  1
  O  O41  1  0.91271650  0.31384450  0.80775650  1
  O  O42  1  0.58728350  0.18615550  0.30775650  1
  O  O43  1  0.68615550  0.41271650  0.55775650  1
  O  O44  1  0.18615550  0.41271650  0.69224350  1
  O  O45  1  0.58728350  0.68615550  0.44224350  1
  O  O46  1  0.41271650  0.31384450  0.44224350  1
  O  O47  1  0.31384450  0.08728350  0.19224350  1
  O  O48  1  0.56033150  0.11331550  0.07827450  1
  O  O49  1  0.88668450  0.06033150  0.82827450  1
  O  O50  1  0.61331550  0.43966850  0.32827450  1
  O  O51  1  0.93966850  0.38668450  0.57827450  1
  O  O52  1  0.43966850  0.38668450  0.67172550  1
  O  O53  1  0.61331550  0.93966850  0.42172550  1
  O  O54  1  0.88668450  0.56033150  0.92172550  1
  O  O55  1  0.06033150  0.11331550  0.17172550  1
  O  O56  1  0.64872700  0.97361600  0.89578500  1
  O  O57  1  0.02638400  0.14872700  0.64578500  1
  O  O58  1  0.97361600  0.85127300  0.64578500  1
  O  O59  1  0.85127300  0.52638400  0.39578500  1
  O  O60  1  0.17694950  0.21746150  0.36044550  1
  O  O61  1  0.78253850  0.67694950  0.11044550  1
  O  O62  1  0.71746150  0.82305050  0.61044550  1
  O  O63  1  0.32305050  0.28253850  0.86044550  1
  O  O64  1  0.82305050  0.28253850  0.38955450  1
  O  O65  1  0.71746150  0.32305050  0.13955450  1
  O  O66  1  0.78253850  0.17694950  0.63955450  1
  O  O67  1  0.67694950  0.21746150  0.88955450  1
  O  O68  1  0.14872700  0.97361600  0.35421500  1
  O  O69  1  0.52638400  0.14872700  0.60421500  1
  O  O70  1  0.97361600  0.35127300  0.10421500  1
  O  O71  1  0.85127300  0.02638400  0.35421500  1
  O  O72  1  0.81384450  0.08728350  0.05775650  1
  O  O73  1  0.41271650  0.81384450  0.30775650  1
  O  O74  1  0.08728350  0.68615550  0.80775650  1
  O  O75  1  0.18615550  0.91271650  0.05775650  1
  O  O76  1  0.68615550  0.91271650  0.19224350  1
  O  O77  1  0.08728350  0.18615550  0.94224350  1
  O  O78  1  0.91271650  0.81384450  0.94224350  1
  O  O79  1  0.81384450  0.58728350  0.69224350  1
  O  O80  1  0.06033150  0.61331550  0.57827450  1
  O  O81  1  0.38668450  0.56033150  0.32827450  1
  O  O82  1  0.11331550  0.93966850  0.82827450  1
  O  O83  1  0.43966850  0.88668450  0.07827450  1
  O  O84  1  0.93966850  0.88668450  0.17172550  1
  O  O85  1  0.11331550  0.43966850  0.92172550  1
  O  O86  1  0.38668450  0.06033150  0.42172550  1
  O  O87  1  0.56033150  0.61331550  0.67172550  1
  O  O88  1  0.14872700  0.47361600  0.39578500  1
  O  O89  1  0.52638400  0.64872700  0.14578500  1
  O  O90  1  0.47361600  0.35127300  0.14578500  1
  O  O91  1  0.35127300  0.02638400  0.89578500  1
  O  O92  1  0.67694950  0.71746150  0.86044550  1
  O  O93  1  0.28253850  0.17694950  0.61044550  1
  O  O94  1  0.21746150  0.32305050  0.11044550  1
  O  O95  1  0.82305050  0.78253850  0.36044550  1
  O  O96  1  0.32305050  0.78253850  0.88955450  1
  O  O97  1  0.21746150  0.82305050  0.63955450  1
  O  O98  1  0.28253850  0.67694950  0.13955450  1
  O  O99  1  0.17694950  0.71746150  0.38955450  1
  O  O100  1  0.64872700  0.47361600  0.85421500  1
  O  O101  1  0.02638400  0.64872700  0.10421500  1
  O  O102  1  0.47361600  0.85127300  0.60421500  1
  O  O103  1  0.35127300  0.52638400  0.85421500  1
