# generated using pymatgen
data_KVPO5
_symmetry_space_group_name_H-M   'P 1'
_cell_length_a   6.45810400
_cell_length_b   10.61532700
_cell_length_c   12.96809900
_cell_angle_alpha   90.00000000
_cell_angle_beta   90.00000000
_cell_angle_gamma   90.00000000
_symmetry_Int_Tables_number   1
_chemical_formula_structural   KVPO5
_chemical_formula_sum   'K8 V8 P8 O40'
_cell_volume   889.02654547
_cell_formula_units_Z   8
loop_
 _symmetry_equiv_pos_site_id
 _symmetry_equiv_pos_as_xyz
  1  'x, y, z'
loop_
 _atom_site_type_symbol
 _atom_site_label
 _atom_site_symmetry_multiplicity
 _atom_site_fract_x
 _atom_site_fract_y
 _atom_site_fract_z
 _atom_site_occupancy
  K  K0  1  0.22076300  0.81501700  0.62526400  1
  K  K1  1  0.72076300  0.31501700  0.87473600  1
  K  K2  1  0.27923700  0.81501700  0.12526400  1
  K  K3  1  0.70332600  0.07116000  0.10458700  1
  K  K4  1  0.20332600  0.57116000  0.39541300  1
  K  K5  1  0.29667400  0.57116000  0.89541300  1
  K  K6  1  0.79667400  0.07116000  0.60458700  1
  K  K7  1  0.77923700  0.31501700  0.37473600  1
  V  V8  1  0.49417100  0.00405300  0.37446400  1
  V  V9  1  0.50582900  0.50405300  0.62553600  1
  V  V10  1  0.00582900  0.00405300  0.87446400  1
  V  V11  1  0.26649100  0.25626000  0.24629900  1
  V  V12  1  0.73350900  0.75626000  0.75370100  1
  V  V13  1  0.23350900  0.25626000  0.74629900  1
  V  V14  1  0.76649100  0.75626000  0.25370100  1
  V  V15  1  0.99417100  0.50405300  0.12553600  1
  P  P16  1  0.99780200  0.01713700  0.31973700  1
  P  P17  1  0.00219800  0.51713700  0.68026300  1
  P  P18  1  0.50219800  0.01713700  0.81973700  1
  P  P19  1  0.49780200  0.51713700  0.18026300  1
  P  P20  1  0.83396200  0.76326100  0.00315700  1
  P  P21  1  0.16603800  0.26326100  0.99684300  1
  P  P22  1  0.66603800  0.76326100  0.50315700  1
  P  P23  1  0.33396200  0.26326100  0.49684300  1
  O  O24  1  0.54373900  0.89104100  0.28086400  1
  O  O25  1  0.45626100  0.39104100  0.71913600  1
  O  O26  1  0.95626100  0.89104100  0.78086400  1
  O  O27  1  0.04373900  0.39104100  0.21913600  1
  O  O28  1  0.95456200  0.64392100  0.22700100  1
  O  O29  1  0.04543800  0.14392100  0.77299900  1
  O  O30  1  0.54543800  0.64392100  0.72700100  1
  O  O31  1  0.45456200  0.14392100  0.27299900  1
  O  O32  1  0.95540200  0.90427300  0.24622300  1
  O  O33  1  0.04459800  0.40427300  0.75377700  1
  O  O34  1  0.54459800  0.90427300  0.74622300  1
  O  O35  1  0.45540200  0.40427300  0.25377700  1
  O  O36  1  0.03278700  0.13227900  0.24696300  1
  O  O37  1  0.96721300  0.63227900  0.75303700  1
  O  O38  1  0.46721300  0.13227900  0.74696300  1
  O  O39  1  0.69204200  0.74439900  0.90832700  1
  O  O40  1  0.53278700  0.63227900  0.25303700  1
  O  O41  1  0.81195100  0.48796400  0.61158600  1
  O  O42  1  0.31195100  0.98796400  0.88841400  1
  O  O43  1  0.68804900  0.48796400  0.11158600  1
  O  O44  1  0.80804900  0.04437600  0.38940700  1
  O  O45  1  0.19195100  0.54437600  0.61059300  1
  O  O46  1  0.69195100  0.04437600  0.88940700  1
  O  O47  1  0.30804900  0.54437600  0.11059300  1
  O  O48  1  0.47893500  0.14812100  0.48062800  1
  O  O49  1  0.52106500  0.64812100  0.51937200  1
  O  O50  1  0.02106500  0.14812100  0.98062800  1
  O  O51  1  0.97893500  0.64812100  0.01937200  1
  O  O52  1  0.47529200  0.38142700  0.51000900  1
  O  O53  1  0.52470800  0.88142700  0.48999100  1
  O  O54  1  0.02470800  0.38142700  0.01000900  1
  O  O55  1  0.97529200  0.88142700  0.98999100  1
  O  O56  1  0.19695300  0.28501000  0.39969200  1
  O  O57  1  0.80304700  0.78501000  0.60030800  1
  O  O58  1  0.30304700  0.28501000  0.89969200  1
  O  O59  1  0.69695300  0.78501000  0.10030800  1
  O  O60  1  0.19204200  0.24439900  0.59167300  1
  O  O61  1  0.80795800  0.74439900  0.40832700  1
  O  O62  1  0.30795800  0.24439900  0.09167300  1
  O  O63  1  0.18804900  0.98796400  0.38841400  1
