# generated using pymatgen
data_KSbO3
_symmetry_space_group_name_H-M   'P 1'
_cell_length_a   9.74887100
_cell_length_b   9.74887100
_cell_length_c   9.74887100
_cell_angle_alpha   90.00000000
_cell_angle_beta   90.00000000
_cell_angle_gamma   90.00000000
_symmetry_Int_Tables_number   1
_chemical_formula_structural   KSbO3
_chemical_formula_sum   'K12 Sb12 O36'
_cell_volume   926.53743559
_cell_formula_units_Z   12
loop_
 _symmetry_equiv_pos_site_id
 _symmetry_equiv_pos_as_xyz
  1  'x, y, z'
loop_
 _atom_site_type_symbol
 _atom_site_label
 _atom_site_symmetry_multiplicity
 _atom_site_fract_x
 _atom_site_fract_y
 _atom_site_fract_z
 _atom_site_occupancy
  K  K0  1  0.75000000  0.75000000  0.75000000  1
  K  K1  1  0.25000000  0.25000000  0.75000000  1
  K  K2  1  0.75000000  0.25000000  0.25000000  1
  K  K3  1  0.25000000  0.75000000  0.25000000  1
  K  K4  1  0.15305400  0.15305400  0.15305400  1
  K  K5  1  0.84694600  0.84694600  0.15305400  1
  K  K6  1  0.15305400  0.84694600  0.84694600  1
  K  K7  1  0.84694600  0.15305400  0.84694600  1
  K  K8  1  0.34694600  0.34694600  0.34694600  1
  K  K9  1  0.65305400  0.65305400  0.34694600  1
  K  K10  1  0.34694600  0.65305400  0.65305400  1
  K  K11  1  0.65305400  0.34694600  0.65305400  1
  Sb  Sb12  1  0.34267500  0.50000000  0.00000000  1
  Sb  Sb13  1  0.00000000  0.34267500  0.50000000  1
  Sb  Sb14  1  0.50000000  0.00000000  0.34267500  1
  Sb  Sb15  1  0.00000000  0.65732500  0.50000000  1
  Sb  Sb16  1  0.50000000  0.00000000  0.65732500  1
  Sb  Sb17  1  0.65732500  0.50000000  0.00000000  1
  Sb  Sb18  1  0.15732500  0.00000000  0.50000000  1
  Sb  Sb19  1  0.50000000  0.15732500  0.00000000  1
  Sb  Sb20  1  0.00000000  0.50000000  0.15732500  1
  Sb  Sb21  1  0.50000000  0.84267500  0.00000000  1
  Sb  Sb22  1  0.00000000  0.50000000  0.84267500  1
  Sb  Sb23  1  0.84267500  0.00000000  0.50000000  1
  O  O24  1  0.78958700  0.50330500  0.15651900  1
  O  O25  1  0.78958700  0.49669500  0.84348100  1
  O  O26  1  0.21041300  0.50330500  0.84348100  1
  O  O27  1  0.49669500  0.84348100  0.78958700  1
  O  O28  1  0.84348100  0.21041300  0.50330500  1
  O  O29  1  0.84348100  0.78958700  0.49669500  1
  O  O30  1  0.50330500  0.15651900  0.78958700  1
  O  O31  1  0.15651900  0.78958700  0.50330500  1
  O  O32  1  0.50330500  0.84348100  0.21041300  1
  O  O33  1  0.49669500  0.15651900  0.21041300  1
  O  O34  1  0.15651900  0.21041300  0.49669500  1
  O  O35  1  0.21041300  0.49669500  0.15651900  1
  O  O36  1  0.71041300  0.99669500  0.34348100  1
  O  O37  1  0.71041300  0.00330500  0.65651900  1
  O  O38  1  0.86190300  0.50000000  0.50000000  1
  O  O39  1  0.28958700  0.99669500  0.65651900  1
  O  O40  1  0.65651900  0.28958700  0.99669500  1
  O  O41  1  0.65651900  0.71041300  0.00330500  1
  O  O42  1  0.99669500  0.34348100  0.71041300  1
  O  O43  1  0.34348100  0.71041300  0.99669500  1
  O  O44  1  0.99669500  0.65651900  0.28958700  1
  O  O45  1  0.00330500  0.34348100  0.28958700  1
  O  O46  1  0.34348100  0.28958700  0.00330500  1
  O  O47  1  0.28958700  0.00330500  0.34348100  1
  O  O48  1  0.36190300  0.00000000  0.00000000  1
  O  O49  1  0.00000000  0.36190300  0.00000000  1
  O  O50  1  0.00000000  0.00000000  0.36190300  1
  O  O51  1  0.00000000  0.63809700  0.00000000  1
  O  O52  1  0.00000000  0.00000000  0.63809700  1
  O  O53  1  0.63809700  0.00000000  0.00000000  1
  O  O54  1  0.13809700  0.50000000  0.50000000  1
  O  O55  1  0.50000000  0.13809700  0.50000000  1
  O  O56  1  0.50000000  0.50000000  0.13809700  1
  O  O57  1  0.50000000  0.86190300  0.50000000  1
  O  O58  1  0.50000000  0.50000000  0.86190300  1
  O  O59  1  0.00330500  0.65651900  0.71041300  1
