# generated using pymatgen
data_Pr2O3
_symmetry_space_group_name_H-M   'P 1'
_cell_length_a   11.28971800
_cell_length_b   11.28971800
_cell_length_c   11.28971800
_cell_angle_alpha   90.00000000
_cell_angle_beta   90.00000000
_cell_angle_gamma   90.00000000
_symmetry_Int_Tables_number   1
_chemical_formula_structural   Pr2O3
_chemical_formula_sum   'Pr32 O48'
_cell_volume   1438.96185706
_cell_formula_units_Z   16
loop_
 _symmetry_equiv_pos_site_id
 _symmetry_equiv_pos_as_xyz
  1  'x, y, z'
loop_
 _atom_site_type_symbol
 _atom_site_label
 _atom_site_symmetry_multiplicity
 _atom_site_fract_x
 _atom_site_fract_y
 _atom_site_fract_z
 _atom_site_occupancy
  Pr  Pr0  1  0.00000000  0.25000000  0.46951600  1
  Pr  Pr1  1  0.03048400  0.00000000  0.75000000  1
  Pr  Pr2  1  0.75000000  0.03048400  0.00000000  1
  Pr  Pr3  1  0.46951600  0.00000000  0.25000000  1
  Pr  Pr4  1  0.25000000  0.46951600  0.00000000  1
  Pr  Pr5  1  0.00000000  0.75000000  0.03048400  1
  Pr  Pr6  1  0.50000000  0.25000000  0.03048400  1
  Pr  Pr7  1  0.46951600  0.50000000  0.75000000  1
  Pr  Pr8  1  0.75000000  0.46951600  0.50000000  1
  Pr  Pr9  1  0.03048400  0.50000000  0.25000000  1
  Pr  Pr10  1  0.25000000  0.03048400  0.50000000  1
  Pr  Pr11  1  0.50000000  0.75000000  0.46951600  1
  Pr  Pr12  1  0.75000000  0.25000000  0.25000000  1
  Pr  Pr13  1  0.25000000  0.25000000  0.75000000  1
  Pr  Pr14  1  0.25000000  0.75000000  0.25000000  1
  Pr  Pr15  1  0.25000000  0.25000000  0.25000000  1
  Pr  Pr16  1  0.50000000  0.75000000  0.96951600  1
  Pr  Pr17  1  0.53048400  0.50000000  0.25000000  1
  Pr  Pr18  1  0.25000000  0.53048400  0.50000000  1
  Pr  Pr19  1  0.96951600  0.50000000  0.75000000  1
  Pr  Pr20  1  0.75000000  0.96951600  0.50000000  1
  Pr  Pr21  1  0.50000000  0.25000000  0.53048400  1
  Pr  Pr22  1  0.00000000  0.75000000  0.53048400  1
  Pr  Pr23  1  0.96951600  0.00000000  0.25000000  1
  Pr  Pr24  1  0.25000000  0.96951600  0.00000000  1
  Pr  Pr25  1  0.53048400  0.00000000  0.75000000  1
  Pr  Pr26  1  0.75000000  0.53048400  0.00000000  1
  Pr  Pr27  1  0.00000000  0.25000000  0.96951600  1
  Pr  Pr28  1  0.25000000  0.75000000  0.75000000  1
  Pr  Pr29  1  0.75000000  0.75000000  0.25000000  1
  Pr  Pr30  1  0.75000000  0.25000000  0.75000000  1
  Pr  Pr31  1  0.75000000  0.75000000  0.75000000  1
  O  O32  1  0.14924600  0.87845900  0.60953800  1
  O  O33  1  0.35075400  0.87845900  0.39046200  1
  O  O34  1  0.14924600  0.12154100  0.89046200  1
  O  O35  1  0.12154100  0.10953800  0.35075400  1
  O  O36  1  0.10953800  0.35075400  0.12154100  1
  O  O37  1  0.60953800  0.14924600  0.87845900  1
  O  O38  1  0.87845900  0.39046200  0.35075400  1
  O  O39  1  0.89046200  0.14924600  0.12154100  1
  O  O40  1  0.87845900  0.60953800  0.14924600  1
  O  O41  1  0.39046200  0.35075400  0.87845900  1
  O  O42  1  0.12154100  0.89046200  0.14924600  1
  O  O43  1  0.35075400  0.12154100  0.10953800  1
  O  O44  1  0.35075400  0.62154100  0.89046200  1
  O  O45  1  0.14924600  0.62154100  0.10953800  1
  O  O46  1  0.35075400  0.37845900  0.60953800  1
  O  O47  1  0.37845900  0.39046200  0.14924600  1
  O  O48  1  0.14924600  0.37845900  0.39046200  1
  O  O49  1  0.37845900  0.60953800  0.35075400  1
  O  O50  1  0.10953800  0.14924600  0.62154100  1
  O  O51  1  0.62154100  0.89046200  0.35075400  1
  O  O52  1  0.60953800  0.35075400  0.37845900  1
  O  O53  1  0.62154100  0.10953800  0.14924600  1
  O  O54  1  0.89046200  0.35075400  0.62154100  1
  O  O55  1  0.39046200  0.14924600  0.37845900  1
  O  O56  1  0.64924600  0.37845900  0.10953800  1
  O  O57  1  0.85075400  0.37845900  0.89046200  1
  O  O58  1  0.64924600  0.62154100  0.39046200  1
  O  O59  1  0.62154100  0.60953800  0.85075400  1
  O  O60  1  0.60953800  0.85075400  0.62154100  1
  O  O61  1  0.10953800  0.64924600  0.37845900  1
  O  O62  1  0.37845900  0.89046200  0.85075400  1
  O  O63  1  0.39046200  0.64924600  0.62154100  1
  O  O64  1  0.37845900  0.10953800  0.64924600  1
  O  O65  1  0.89046200  0.85075400  0.37845900  1
  O  O66  1  0.62154100  0.39046200  0.64924600  1
  O  O67  1  0.85075400  0.62154100  0.60953800  1
  O  O68  1  0.85075400  0.12154100  0.39046200  1
  O  O69  1  0.64924600  0.12154100  0.60953800  1
  O  O70  1  0.85075400  0.87845900  0.10953800  1
  O  O71  1  0.87845900  0.89046200  0.64924600  1
  O  O72  1  0.64924600  0.87845900  0.89046200  1
  O  O73  1  0.87845900  0.10953800  0.85075400  1
  O  O74  1  0.60953800  0.64924600  0.12154100  1
  O  O75  1  0.12154100  0.39046200  0.85075400  1
  O  O76  1  0.10953800  0.85075400  0.87845900  1
  O  O77  1  0.12154100  0.60953800  0.64924600  1
  O  O78  1  0.39046200  0.85075400  0.12154100  1
  O  O79  1  0.89046200  0.64924600  0.87845900  1
