# generated using pymatgen
data_CaCrP2O7
_symmetry_space_group_name_H-M   'P 1'
_cell_length_a   6.19081336
_cell_length_b   6.60707231
_cell_length_c   7.38142682
_cell_angle_alpha   98.01035718
_cell_angle_beta   88.26872102
_cell_angle_gamma   111.38469307
_symmetry_Int_Tables_number   1
_chemical_formula_structural   CaCrP2O7
_chemical_formula_sum   'Ca2 Cr2 P4 O14'
_cell_volume   278.32459461
_cell_formula_units_Z   2
loop_
 _symmetry_equiv_pos_site_id
 _symmetry_equiv_pos_as_xyz
  1  'x, y, z'
loop_
 _atom_site_type_symbol
 _atom_site_label
 _atom_site_symmetry_multiplicity
 _atom_site_fract_x
 _atom_site_fract_y
 _atom_site_fract_z
 _atom_site_occupancy
  Ca  Ca0  1  0.70319550  0.71324900  0.36431700  1
  Ca  Ca1  1  0.29680450  0.28675100  0.63568300  1
  Cr  Cr2  1  0.73218650  0.12520550  0.82861000  1
  Cr  Cr3  1  0.26781350  0.87479450  0.17139000  1
  P  P4  1  0.83499600  0.65828100  0.88209000  1
  P  P5  1  0.16500400  0.34171900  0.11791000  1
  P  P6  1  0.76488650  0.21892950  0.37895500  1
  P  P7  1  0.23511350  0.78107050  0.62104500  1
  O  O8  1  0.92425200  0.73499300  0.08253600  1
  O  O9  1  0.07574800  0.26500700  0.91746400  1
  O  O10  1  0.74682200  0.81464350  0.80322300  1
  O  O11  1  0.25317800  0.18535650  0.19677700  1
  O  O12  1  0.66377600  0.41944500  0.85544200  1
  O  O13  1  0.33622400  0.58055500  0.14455800  1
  O  O14  1  0.36151150  0.62906550  0.54727500  1
  O  O15  1  0.63848850  0.37093450  0.45272500  1
  O  O16  1  0.90099100  0.16525650  0.52271700  1
  O  O17  1  0.09900900  0.83474350  0.47728300  1
  O  O18  1  0.93806600  0.35128750  0.23222600  1
  O  O19  1  0.06193400  0.64871250  0.76777400  1
  O  O20  1  0.39635950  0.99998900  0.72871500  1
  O  O21  1  0.60364050  0.00001100  0.27128500  1
