# generated using pymatgen
data_HoCrO4
_symmetry_space_group_name_H-M   'P 1'
_cell_length_a   5.04048600
_cell_length_b   5.04048600
_cell_length_c   11.31980000
_cell_angle_alpha   90.00000000
_cell_angle_beta   90.00000000
_cell_angle_gamma   90.00000000
_symmetry_Int_Tables_number   1
_chemical_formula_structural   HoCrO4
_chemical_formula_sum   'Ho4 Cr4 O16'
_cell_volume   287.59648870
_cell_formula_units_Z   4
loop_
 _symmetry_equiv_pos_site_id
 _symmetry_equiv_pos_as_xyz
  1  'x, y, z'
loop_
 _atom_site_type_symbol
 _atom_site_label
 _atom_site_symmetry_multiplicity
 _atom_site_fract_x
 _atom_site_fract_y
 _atom_site_fract_z
 _atom_site_occupancy
  Ho  Ho0  1  0.50000000  0.50000000  0.00000000  1
  Ho  Ho1  1  0.50000000  0.00000000  0.25000000  1
  Ho  Ho2  1  0.00000000  0.00000000  0.50000000  1
  Ho  Ho3  1  0.00000000  0.50000000  0.75000000  1
  Cr  Cr4  1  0.00000000  0.00000000  0.00000000  1
  Cr  Cr5  1  0.00000000  0.50000000  0.25000000  1
  Cr  Cr6  1  0.50000000  0.50000000  0.50000000  1
  Cr  Cr7  1  0.50000000  0.00000000  0.75000000  1
  O  O8  1  0.64582650  0.24035850  0.42226350  1
  O  O9  1  0.25964150  0.64582650  0.17226350  1
  O  O10  1  0.74035850  0.35417350  0.17226350  1
  O  O11  1  0.35417350  0.75964150  0.42226350  1
  O  O12  1  0.14582650  0.24035850  0.32773650  1
  O  O13  1  0.25964150  0.14582650  0.07773650  1
  O  O14  1  0.74035850  0.85417350  0.07773650  1
  O  O15  1  0.85417350  0.75964150  0.32773650  1
  O  O16  1  0.14582650  0.74035850  0.92226350  1
  O  O17  1  0.75964150  0.14582650  0.67226350  1
  O  O18  1  0.24035850  0.85417350  0.67226350  1
  O  O19  1  0.85417350  0.25964150  0.92226350  1
  O  O20  1  0.64582650  0.74035850  0.82773650  1
  O  O21  1  0.75964150  0.64582650  0.57773650  1
  O  O22  1  0.24035850  0.35417350  0.57773650  1
  O  O23  1  0.35417350  0.25964150  0.82773650  1
