# generated using pymatgen
data_Na3Li2Al(SiO4)2
_symmetry_space_group_name_H-M   'P 1'
_cell_length_a   14.25383000
_cell_length_b   14.87970600
_cell_length_c   7.15377000
_cell_angle_alpha   90.00000000
_cell_angle_beta   90.00000000
_cell_angle_gamma   90.00000000
_symmetry_Int_Tables_number   1
_chemical_formula_structural   Na3Li2Al(SiO4)2
_chemical_formula_sum   'Na24 Li16 Al8 Si16 O64'
_cell_volume   1517.26310824
_cell_formula_units_Z   8
loop_
 _symmetry_equiv_pos_site_id
 _symmetry_equiv_pos_as_xyz
  1  'x, y, z'
loop_
 _atom_site_type_symbol
 _atom_site_label
 _atom_site_symmetry_multiplicity
 _atom_site_fract_x
 _atom_site_fract_y
 _atom_site_fract_z
 _atom_site_occupancy
  Na  Na0  1  0.87734800  0.00000000  0.00000000  1
  Na  Na1  1  0.37734800  0.00000000  0.50000000  1
  Na  Na2  1  0.12265200  0.00000000  0.00000000  1
  Na  Na3  1  0.62265200  0.00000000  0.50000000  1
  Na  Na4  1  0.25000000  0.15235000  0.75000000  1
  Na  Na5  1  0.25000000  0.84765000  0.25000000  1
  Na  Na6  1  0.75000000  0.84765000  0.25000000  1
  Na  Na7  1  0.75000000  0.15235000  0.75000000  1
  Na  Na8  1  0.50000000  0.63418500  0.24789100  1
  Na  Na9  1  0.50000000  0.36581500  0.75210900  1
  Na  Na10  1  0.50000000  0.86581500  0.74789100  1
  Na  Na11  1  0.50000000  0.13418500  0.25210900  1
  Na  Na12  1  0.37734800  0.50000000  0.00000000  1
  Na  Na13  1  0.87734800  0.50000000  0.50000000  1
  Na  Na14  1  0.62265200  0.50000000  0.00000000  1
  Na  Na15  1  0.12265200  0.50000000  0.50000000  1
  Na  Na16  1  0.75000000  0.65235000  0.75000000  1
  Na  Na17  1  0.75000000  0.34765000  0.25000000  1
  Na  Na18  1  0.25000000  0.34765000  0.25000000  1
  Na  Na19  1  0.25000000  0.65235000  0.75000000  1
  Na  Na20  1  0.00000000  0.13418500  0.24789100  1
  Na  Na21  1  0.00000000  0.86581500  0.75210900  1
  Na  Na22  1  0.00000000  0.36581500  0.74789100  1
  Na  Na23  1  0.00000000  0.63418500  0.25210900  1
  Li  Li24  1  0.40564000  0.24263900  0.51412000  1
  Li  Li25  1  0.40564000  0.75736100  0.48588000  1
  Li  Li26  1  0.40564000  0.25736100  0.01412000  1
  Li  Li27  1  0.40564000  0.74263900  0.98588000  1
  Li  Li28  1  0.59436000  0.75736100  0.48588000  1
  Li  Li29  1  0.59436000  0.24263900  0.51412000  1
  Li  Li30  1  0.59436000  0.74263900  0.98588000  1
  Li  Li31  1  0.59436000  0.25736100  0.01412000  1
  Li  Li32  1  0.90564000  0.74263900  0.51412000  1
  Li  Li33  1  0.90564000  0.25736100  0.48588000  1
  Li  Li34  1  0.90564000  0.75736100  0.01412000  1
  Li  Li35  1  0.90564000  0.24263900  0.98588000  1
  Li  Li36  1  0.09436000  0.25736100  0.48588000  1
  Li  Li37  1  0.09436000  0.74263900  0.51412000  1
  Li  Li38  1  0.09436000  0.24263900  0.98588000  1
  Li  Li39  1  0.09436000  0.75736100  0.01412000  1
  Al  Al40  1  0.83809100  0.00000000  0.50000000  1
  Al  Al41  1  0.33809100  0.00000000  0.00000000  1
  Al  Al42  1  0.16190900  0.00000000  0.50000000  1
  Al  Al43  1  0.66190900  0.00000000  0.00000000  1
  Al  Al44  1  0.33809100  0.50000000  0.50000000  1
  Al  Al45  1  0.83809100  0.50000000  0.00000000  1
  Al  Al46  1  0.66190900  0.50000000  0.50000000  1
  Al  Al47  1  0.16190900  0.50000000  0.00000000  1
  Si  Si48  1  0.50000000  0.40191700  0.28469200  1
  Si  Si49  1  0.50000000  0.59808300  0.71530800  1
  Si  Si50  1  0.50000000  0.09808300  0.78469200  1
  Si  Si51  1  0.50000000  0.90191700  0.21530800  1
  Si  Si52  1  0.75000000  0.84549900  0.75000000  1
  Si  Si53  1  0.75000000  0.15450100  0.25000000  1
  Si  Si54  1  0.25000000  0.15450100  0.25000000  1
  Si  Si55  1  0.25000000  0.84549900  0.75000000  1
  Si  Si56  1  0.00000000  0.90191700  0.28469200  1
  Si  Si57  1  0.00000000  0.09808300  0.71530800  1
  Si  Si58  1  0.00000000  0.59808300  0.78469200  1
  Si  Si59  1  0.00000000  0.40191700  0.21530800  1
  Si  Si60  1  0.25000000  0.34549900  0.75000000  1
  Si  Si61  1  0.25000000  0.65450100  0.25000000  1
  Si  Si62  1  0.75000000  0.65450100  0.25000000  1
  Si  Si63  1  0.75000000  0.34549900  0.75000000  1
  O  O64  1  0.50000000  0.32878400  0.45011600  1
  O  O65  1  0.50000000  0.67121600  0.54988400  1
  O  O66  1  0.50000000  0.17121600  0.95011600  1
  O  O67  1  0.50000000  0.82878400  0.04988400  1
  O  O68  1  0.50000000  0.36602200  0.06921500  1
  O  O69  1  0.50000000  0.63397800  0.93078500  1
  O  O70  1  0.50000000  0.13397800  0.56921500  1
  O  O71  1  0.50000000  0.86602200  0.43078500  1
  O  O72  1  0.90638300  0.97063300  0.30476200  1
  O  O73  1  0.90638300  0.02936700  0.69523800  1
  O  O74  1  0.40638300  0.02936700  0.80476200  1
  O  O75  1  0.40638300  0.97063300  0.19523800  1
  O  O76  1  0.09361700  0.02936700  0.69523800  1
  O  O77  1  0.09361700  0.97063300  0.30476200  1
  O  O78  1  0.59361700  0.97063300  0.19523800  1
  O  O79  1  0.59361700  0.02936700  0.80476200  1
  O  O80  1  0.74083200  0.91214900  0.93896700  1
  O  O81  1  0.74083200  0.08785100  0.06103300  1
  O  O82  1  0.24083200  0.08785100  0.43896700  1
  O  O83  1  0.24083200  0.91214900  0.56103300  1
  O  O84  1  0.25916800  0.08785100  0.06103300  1
  O  O85  1  0.25916800  0.91214900  0.93896700  1
  O  O86  1  0.75916800  0.91214900  0.56103300  1
  O  O87  1  0.75916800  0.08785100  0.43896700  1
  O  O88  1  0.34467800  0.28409100  0.76717600  1
  O  O89  1  0.34467800  0.71590900  0.23282400  1
  O  O90  1  0.34467800  0.21590900  0.26717600  1
  O  O91  1  0.34467800  0.78409100  0.73282400  1
  O  O92  1  0.65532200  0.71590900  0.23282400  1
  O  O93  1  0.65532200  0.28409100  0.76717600  1
  O  O94  1  0.65532200  0.78409100  0.73282400  1
  O  O95  1  0.65532200  0.21590900  0.26717600  1
  O  O96  1  0.00000000  0.82878400  0.45011600  1
  O  O97  1  0.00000000  0.17121600  0.54988400  1
  O  O98  1  0.00000000  0.67121600  0.95011600  1
  O  O99  1  0.00000000  0.32878400  0.04988400  1
  O  O100  1  0.00000000  0.86602200  0.06921500  1
  O  O101  1  0.00000000  0.13397800  0.93078500  1
  O  O102  1  0.00000000  0.63397800  0.56921500  1
  O  O103  1  0.00000000  0.36602200  0.43078500  1
  O  O104  1  0.40638300  0.47063300  0.30476200  1
  O  O105  1  0.40638300  0.52936700  0.69523800  1
  O  O106  1  0.90638300  0.52936700  0.80476200  1
  O  O107  1  0.90638300  0.47063300  0.19523800  1
  O  O108  1  0.59361700  0.52936700  0.69523800  1
  O  O109  1  0.59361700  0.47063300  0.30476200  1
  O  O110  1  0.09361700  0.47063300  0.19523800  1
  O  O111  1  0.09361700  0.52936700  0.80476200  1
  O  O112  1  0.24083200  0.41214900  0.93896700  1
  O  O113  1  0.24083200  0.58785100  0.06103300  1
  O  O114  1  0.74083200  0.58785100  0.43896700  1
  O  O115  1  0.74083200  0.41214900  0.56103300  1
  O  O116  1  0.75916800  0.58785100  0.06103300  1
  O  O117  1  0.75916800  0.41214900  0.93896700  1
  O  O118  1  0.25916800  0.41214900  0.56103300  1
  O  O119  1  0.25916800  0.58785100  0.43896700  1
  O  O120  1  0.84467800  0.78409100  0.76717600  1
  O  O121  1  0.84467800  0.21590900  0.23282400  1
  O  O122  1  0.84467800  0.71590900  0.26717600  1
  O  O123  1  0.84467800  0.28409100  0.73282400  1
  O  O124  1  0.15532200  0.21590900  0.23282400  1
  O  O125  1  0.15532200  0.78409100  0.76717600  1
  O  O126  1  0.15532200  0.28409100  0.73282400  1
  O  O127  1  0.15532200  0.71590900  0.26717600  1
