# generated using pymatgen
data_Rb2Ni3Se4
_symmetry_space_group_name_H-M   'P 1'
_cell_length_a   6.11080800
_cell_length_b   10.68491400
_cell_length_c   28.14645600
_cell_angle_alpha   90.00000000
_cell_angle_beta   90.00000000
_cell_angle_gamma   90.00000000
_symmetry_Int_Tables_number   1
_chemical_formula_structural   Rb2Ni3Se4
_chemical_formula_sum   'Rb16 Ni24 Se32'
_cell_volume   1837.77944129
_cell_formula_units_Z   8
loop_
 _symmetry_equiv_pos_site_id
 _symmetry_equiv_pos_as_xyz
  1  'x, y, z'
loop_
 _atom_site_type_symbol
 _atom_site_label
 _atom_site_symmetry_multiplicity
 _atom_site_fract_x
 _atom_site_fract_y
 _atom_site_fract_z
 _atom_site_occupancy
  Rb  Rb0  1  0.00000000  0.00000000  0.57585600  1
  Rb  Rb1  1  0.50000000  0.00000000  0.92414400  1
  Rb  Rb2  1  0.75000000  0.75000000  0.67414400  1
  Rb  Rb3  1  0.75000000  0.75000000  0.82585600  1
  Rb  Rb4  1  0.00000000  0.50000000  0.07585600  1
  Rb  Rb5  1  0.50000000  0.50000000  0.42414400  1
  Rb  Rb6  1  0.75000000  0.25000000  0.17414400  1
  Rb  Rb7  1  0.75000000  0.25000000  0.32585600  1
  Rb  Rb8  1  0.50000000  0.00000000  0.07585600  1
  Rb  Rb9  1  0.00000000  0.00000000  0.42414400  1
  Rb  Rb10  1  0.25000000  0.75000000  0.17414400  1
  Rb  Rb11  1  0.25000000  0.75000000  0.32585600  1
  Rb  Rb12  1  0.50000000  0.50000000  0.57585600  1
  Rb  Rb13  1  0.00000000  0.50000000  0.92414400  1
  Rb  Rb14  1  0.25000000  0.25000000  0.67414400  1
  Rb  Rb15  1  0.25000000  0.25000000  0.82585600  1
  Ni  Ni16  1  0.50000000  0.00000000  0.74950900  1
  Ni  Ni17  1  0.00000000  0.00000000  0.75049100  1
  Ni  Ni18  1  0.25000000  0.75000000  0.50049100  1
  Ni  Ni19  1  0.00000000  0.00000000  0.00000000  1
  Ni  Ni20  1  0.25000000  0.75000000  0.75000000  1
  Ni  Ni21  1  0.25000000  0.75000000  0.99950900  1
  Ni  Ni22  1  0.50000000  0.50000000  0.24950900  1
  Ni  Ni23  1  0.00000000  0.50000000  0.25049100  1
  Ni  Ni24  1  0.25000000  0.25000000  0.00049100  1
  Ni  Ni25  1  0.00000000  0.50000000  0.50000000  1
  Ni  Ni26  1  0.25000000  0.25000000  0.25000000  1
  Ni  Ni27  1  0.25000000  0.25000000  0.49950900  1
  Ni  Ni28  1  0.00000000  0.00000000  0.24950900  1
  Ni  Ni29  1  0.50000000  0.00000000  0.25049100  1
  Ni  Ni30  1  0.75000000  0.75000000  0.00049100  1
  Ni  Ni31  1  0.50000000  0.00000000  0.50000000  1
  Ni  Ni32  1  0.75000000  0.75000000  0.25000000  1
  Ni  Ni33  1  0.75000000  0.75000000  0.49950900  1
  Ni  Ni34  1  0.00000000  0.50000000  0.74950900  1
  Ni  Ni35  1  0.50000000  0.50000000  0.75049100  1
  Ni  Ni36  1  0.75000000  0.25000000  0.50049100  1
  Ni  Ni37  1  0.50000000  0.50000000  0.00000000  1
  Ni  Ni38  1  0.75000000  0.25000000  0.75000000  1
  Ni  Ni39  1  0.75000000  0.25000000  0.99950900  1
  Se  Se40  1  0.50293150  0.83374400  0.55443050  1
  Se  Se41  1  0.50293150  0.66625600  0.94556950  1
  Se  Se42  1  0.99706850  0.83374400  0.94556950  1
  Se  Se43  1  0.99706850  0.66625600  0.55443050  1
  Se  Se44  1  0.24706850  0.91625600  0.69556950  1
  Se  Se45  1  0.24706850  0.58374400  0.80443050  1
  Se  Se46  1  0.25293150  0.91625600  0.80443050  1
  Se  Se47  1  0.25293150  0.58374400  0.69556950  1
  Se  Se48  1  0.50293150  0.33374400  0.05443050  1
  Se  Se49  1  0.50293150  0.16625600  0.44556950  1
  Se  Se50  1  0.99706850  0.33374400  0.44556950  1
  Se  Se51  1  0.99706850  0.16625600  0.05443050  1
  Se  Se52  1  0.24706850  0.41625600  0.19556950  1
  Se  Se53  1  0.24706850  0.08374400  0.30443050  1
  Se  Se54  1  0.25293150  0.41625600  0.30443050  1
  Se  Se55  1  0.25293150  0.08374400  0.19556950  1
  Se  Se56  1  0.00293150  0.83374400  0.05443050  1
  Se  Se57  1  0.00293150  0.66625600  0.44556950  1
  Se  Se58  1  0.49706850  0.83374400  0.44556950  1
  Se  Se59  1  0.49706850  0.66625600  0.05443050  1
  Se  Se60  1  0.74706850  0.91625600  0.19556950  1
  Se  Se61  1  0.74706850  0.58374400  0.30443050  1
  Se  Se62  1  0.75293150  0.91625600  0.30443050  1
  Se  Se63  1  0.75293150  0.58374400  0.19556950  1
  Se  Se64  1  0.00293150  0.33374400  0.55443050  1
  Se  Se65  1  0.00293150  0.16625600  0.94556950  1
  Se  Se66  1  0.49706850  0.33374400  0.94556950  1
  Se  Se67  1  0.49706850  0.16625600  0.55443050  1
  Se  Se68  1  0.74706850  0.41625600  0.69556950  1
  Se  Se69  1  0.74706850  0.08374400  0.80443050  1
  Se  Se70  1  0.75293150  0.41625600  0.80443050  1
  Se  Se71  1  0.75293150  0.08374400  0.69556950  1
