# generated using pymatgen
data_CaMoO3
_symmetry_space_group_name_H-M   'P 1'
_cell_length_a   5.52575222
_cell_length_b   5.70338577
_cell_length_c   7.98666736
_cell_angle_alpha   90.00000000
_cell_angle_beta   90.00000000
_cell_angle_gamma   90.00000000
_symmetry_Int_Tables_number   1
_chemical_formula_structural   CaMoO3
_chemical_formula_sum   'Ca4 Mo4 O12'
_cell_volume   251.70378787
_cell_formula_units_Z   4
loop_
 _symmetry_equiv_pos_site_id
 _symmetry_equiv_pos_as_xyz
  1  'x, y, z'
loop_
 _atom_site_type_symbol
 _atom_site_label
 _atom_site_symmetry_multiplicity
 _atom_site_fract_x
 _atom_site_fract_y
 _atom_site_fract_z
 _atom_site_occupancy
  Ca  Ca0  1  0.99059011  0.54741295  0.75000000  1
  Ca  Ca1  1  0.49059011  0.95258705  0.25000000  1
  Ca  Ca2  1  0.50940989  0.04741295  0.75000000  1
  Ca  Ca3  1  0.00940989  0.45258705  0.25000000  1
  Mo  Mo4  1  0.50000000  0.50000000  0.50000000  1
  Mo  Mo5  1  0.00000000  0.00000000  0.50000000  1
  Mo  Mo6  1  0.00000000  0.00000000  0.00000000  1
  Mo  Mo7  1  0.50000000  0.50000000  0.00000000  1
  O  O8  1  0.69300571  0.79565446  0.94642352  1
  O  O9  1  0.19300571  0.70434554  0.05357648  1
  O  O10  1  0.80699429  0.29565446  0.55357648  1
  O  O11  1  0.30699429  0.20434554  0.44642352  1
  O  O12  1  0.30699429  0.20434554  0.05357648  1
  O  O13  1  0.80699429  0.29565446  0.94642352  1
  O  O14  1  0.19300571  0.70434554  0.44642352  1
  O  O15  1  0.69300571  0.79565446  0.55357648  1
  O  O16  1  0.09942196  0.95686139  0.75000000  1
  O  O17  1  0.59942196  0.54313861  0.25000000  1
  O  O18  1  0.90057804  0.04313861  0.25000000  1
  O  O19  1  0.40057804  0.45686139  0.75000000  1
