# generated using pymatgen
data_TmCu(BO2)5
_symmetry_space_group_name_H-M   'P 1'
_cell_length_a   6.30615600
_cell_length_b   8.55128600
_cell_length_c   12.68158200
_cell_angle_alpha   90.00000000
_cell_angle_beta   90.00000000
_cell_angle_gamma   90.00000000
_symmetry_Int_Tables_number   1
_chemical_formula_structural   TmCu(BO2)5
_chemical_formula_sum   'Tm4 Cu4 B20 O40'
_cell_volume   683.86373832
_cell_formula_units_Z   4
loop_
 _symmetry_equiv_pos_site_id
 _symmetry_equiv_pos_as_xyz
  1  'x, y, z'
loop_
 _atom_site_type_symbol
 _atom_site_label
 _atom_site_symmetry_multiplicity
 _atom_site_fract_x
 _atom_site_fract_y
 _atom_site_fract_z
 _atom_site_occupancy
  Tm  Tm0  1  0.00000000  0.50000000  0.75000000  1
  Tm  Tm1  1  0.00000000  0.50000000  0.25000000  1
  Tm  Tm2  1  0.50000000  0.00000000  0.25000000  1
  Tm  Tm3  1  0.50000000  0.00000000  0.75000000  1
  Cu  Cu4  1  0.50000000  0.00000000  0.00000000  1
  Cu  Cu5  1  0.00000000  0.50000000  0.00000000  1
  Cu  Cu6  1  0.00000000  0.50000000  0.50000000  1
  Cu  Cu7  1  0.50000000  0.00000000  0.50000000  1
  B  B8  1  0.88396350  0.19167050  0.90074650  1
  B  B9  1  0.50000000  0.50000000  0.75000000  1
  B  B10  1  0.50000000  0.50000000  0.25000000  1
  B  B11  1  0.88396350  0.19167050  0.09925350  1
  B  B12  1  0.11603650  0.80832950  0.09925350  1
  B  B13  1  0.11603650  0.80832950  0.90074650  1
  B  B14  1  0.61603650  0.69167050  0.90074650  1
  B  B15  1  0.38396350  0.30832950  0.90074650  1
  B  B16  1  0.38396350  0.30832950  0.09925350  1
  B  B17  1  0.61603650  0.69167050  0.09925350  1
  B  B18  1  0.38396350  0.69167050  0.40074650  1
  B  B19  1  0.00000000  0.00000000  0.25000000  1
  B  B20  1  0.00000000  0.00000000  0.75000000  1
  B  B21  1  0.38396350  0.69167050  0.59925350  1
  B  B22  1  0.61603650  0.30832950  0.59925350  1
  B  B23  1  0.61603650  0.30832950  0.40074650  1
  B  B24  1  0.11603650  0.19167050  0.40074650  1
  B  B25  1  0.88396350  0.80832950  0.40074650  1
  B  B26  1  0.88396350  0.80832950  0.59925350  1
  B  B27  1  0.11603650  0.19167050  0.59925350  1
  O  O28  1  0.93908100  0.34356000  0.11288100  1
  O  O29  1  0.43908100  0.15644000  0.11288100  1
  O  O30  1  0.56091900  0.84356000  0.11288100  1
  O  O31  1  0.06091900  0.65644000  0.11288100  1
  O  O32  1  0.93908100  0.34356000  0.88711900  1
  O  O33  1  0.06091900  0.65644000  0.88711900  1
  O  O34  1  0.56091900  0.84356000  0.88711900  1
  O  O35  1  0.43908100  0.15644000  0.88711900  1
  O  O36  1  0.35023850  0.59404250  0.31399250  1
  O  O37  1  0.64976150  0.40595750  0.31399250  1
  O  O38  1  0.64976150  0.59404250  0.81399250  1
  O  O39  1  0.35023850  0.40595750  0.81399250  1
  O  O40  1  0.35224300  0.37389600  0.00000000  1
  O  O41  1  0.64775700  0.62610400  0.00000000  1
  O  O42  1  0.14775700  0.87389600  0.00000000  1
  O  O43  1  0.85224300  0.12610400  0.00000000  1
  O  O44  1  0.35023850  0.40595750  0.18600750  1
  O  O45  1  0.64976150  0.59404250  0.18600750  1
  O  O46  1  0.64976150  0.40595750  0.68600750  1
  O  O47  1  0.35023850  0.59404250  0.68600750  1
  O  O48  1  0.43908100  0.84356000  0.61288100  1
  O  O49  1  0.93908100  0.65644000  0.61288100  1
  O  O50  1  0.06091900  0.34356000  0.61288100  1
  O  O51  1  0.56091900  0.15644000  0.61288100  1
  O  O52  1  0.43908100  0.84356000  0.38711900  1
  O  O53  1  0.56091900  0.15644000  0.38711900  1
  O  O54  1  0.06091900  0.34356000  0.38711900  1
  O  O55  1  0.93908100  0.65644000  0.38711900  1
  O  O56  1  0.85023850  0.09404250  0.81399250  1
  O  O57  1  0.14976150  0.90595750  0.81399250  1
  O  O58  1  0.14976150  0.09404250  0.31399250  1
  O  O59  1  0.85023850  0.90595750  0.31399250  1
  O  O60  1  0.85224300  0.87389600  0.50000000  1
  O  O61  1  0.14775700  0.12610400  0.50000000  1
  O  O62  1  0.64775700  0.37389600  0.50000000  1
  O  O63  1  0.35224300  0.62610400  0.50000000  1
  O  O64  1  0.85023850  0.90595750  0.68600750  1
  O  O65  1  0.14976150  0.09404250  0.68600750  1
  O  O66  1  0.14976150  0.90595750  0.18600750  1
  O  O67  1  0.85023850  0.09404250  0.18600750  1
