# generated using pymatgen
data_CdCu2SnSe4
_symmetry_space_group_name_H-M   'P 1'
_cell_length_a   5.91377600
_cell_length_b   5.91377600
_cell_length_c   11.59935000
_cell_angle_alpha   90.00000000
_cell_angle_beta   90.00000000
_cell_angle_gamma   90.00000000
_symmetry_Int_Tables_number   1
_chemical_formula_structural   CdCu2SnSe4
_chemical_formula_sum   'Cd2 Cu4 Sn2 Se8'
_cell_volume   405.66112802
_cell_formula_units_Z   2
loop_
 _symmetry_equiv_pos_site_id
 _symmetry_equiv_pos_as_xyz
  1  'x, y, z'
loop_
 _atom_site_type_symbol
 _atom_site_label
 _atom_site_symmetry_multiplicity
 _atom_site_fract_x
 _atom_site_fract_y
 _atom_site_fract_z
 _atom_site_occupancy
  Cd  Cd0  1  0.00000000  0.00000000  0.00000000  1
  Cd  Cd1  1  0.50000000  0.50000000  0.50000000  1
  Cu  Cu2  1  0.50000000  0.00000000  0.25000000  1
  Cu  Cu3  1  0.00000000  0.50000000  0.25000000  1
  Cu  Cu4  1  0.00000000  0.50000000  0.75000000  1
  Cu  Cu5  1  0.50000000  0.00000000  0.75000000  1
  Sn  Sn6  1  0.50000000  0.50000000  0.00000000  1
  Sn  Sn7  1  0.00000000  0.00000000  0.50000000  1
  Se  Se8  1  0.74456500  0.25543500  0.14122300  1
  Se  Se9  1  0.25543500  0.74456500  0.14122300  1
  Se  Se10  1  0.75543500  0.75543500  0.35877700  1
  Se  Se11  1  0.24456500  0.24456500  0.35877700  1
  Se  Se12  1  0.24456500  0.75543500  0.64122300  1
  Se  Se13  1  0.75543500  0.24456500  0.64122300  1
  Se  Se14  1  0.25543500  0.25543500  0.85877700  1
  Se  Se15  1  0.74456500  0.74456500  0.85877700  1
