# generated using pymatgen
data_BaC2
_symmetry_space_group_name_H-M   'P 1'
_cell_length_a   7.66094000
_cell_length_b   4.77725400
_cell_length_c   8.34073337
_cell_angle_alpha   90.00000000
_cell_angle_beta   110.20650573
_cell_angle_gamma   90.00000000
_symmetry_Int_Tables_number   1
_chemical_formula_structural   BaC2
_chemical_formula_sum   'Ba4 C8'
_cell_volume   286.46893485
_cell_formula_units_Z   4
loop_
 _symmetry_equiv_pos_site_id
 _symmetry_equiv_pos_as_xyz
  1  'x, y, z'
loop_
 _atom_site_type_symbol
 _atom_site_label
 _atom_site_symmetry_multiplicity
 _atom_site_fract_x
 _atom_site_fract_y
 _atom_site_fract_z
 _atom_site_occupancy
  Ba  Ba0  1  0.00000000  0.81021000  0.25000000  1
  Ba  Ba1  1  0.50000000  0.68979000  0.75000000  1
  Ba  Ba2  1  0.50000000  0.31021000  0.25000000  1
  Ba  Ba3  1  0.00000000  0.18979000  0.75000000  1
  C  C4  1  0.73962500  0.84634700  0.44552700  1
  C  C5  1  0.26037500  0.84634700  0.05447300  1
  C  C6  1  0.23962500  0.65365300  0.94552700  1
  C  C7  1  0.76037500  0.65365300  0.55447300  1
  C  C8  1  0.23962500  0.34634700  0.44552700  1
  C  C9  1  0.76037500  0.34634700  0.05447300  1
  C  C10  1  0.73962500  0.15365300  0.94552700  1
  C  C11  1  0.26037500  0.15365300  0.55447300  1
