# generated using pymatgen
data_CaTaAlO5
_symmetry_space_group_name_H-M   'P 1'
_cell_length_a   6.82065200
_cell_length_b   9.00993000
_cell_length_c   7.46427496
_cell_angle_alpha   90.00000000
_cell_angle_beta   114.76336909
_cell_angle_gamma   90.00000000
_symmetry_Int_Tables_number   1
_chemical_formula_structural   CaTaAlO5
_chemical_formula_sum   'Ca4 Ta4 Al4 O20'
_cell_volume   416.52639706
_cell_formula_units_Z   4
loop_
 _symmetry_equiv_pos_site_id
 _symmetry_equiv_pos_as_xyz
  1  'x, y, z'
loop_
 _atom_site_type_symbol
 _atom_site_label
 _atom_site_symmetry_multiplicity
 _atom_site_fract_x
 _atom_site_fract_y
 _atom_site_fract_z
 _atom_site_occupancy
  Ca  Ca0  1  0.50000000  0.16877500  0.75000000  1
  Ca  Ca1  1  0.50000000  0.83122500  0.25000000  1
  Ca  Ca2  1  0.00000000  0.66877500  0.75000000  1
  Ca  Ca3  1  0.00000000  0.33122500  0.25000000  1
  Ta  Ta4  1  0.00000000  0.00000000  0.50000000  1
  Ta  Ta5  1  0.00000000  0.00000000  0.00000000  1
  Ta  Ta6  1  0.50000000  0.50000000  0.50000000  1
  Ta  Ta7  1  0.50000000  0.50000000  0.00000000  1
  Al  Al8  1  0.50000000  0.81693600  0.75000000  1
  Al  Al9  1  0.50000000  0.18306400  0.25000000  1
  Al  Al10  1  0.00000000  0.31693600  0.75000000  1
  Al  Al11  1  0.00000000  0.68306400  0.25000000  1
  O  O12  1  0.50000000  0.42697200  0.75000000  1
  O  O13  1  0.50000000  0.57302800  0.25000000  1
  O  O14  1  0.60120500  0.29527200  0.11146800  1
  O  O15  1  0.39879500  0.29527200  0.38853200  1
  O  O16  1  0.39879500  0.70472800  0.88853200  1
  O  O17  1  0.60120500  0.70472800  0.61146800  1
  O  O18  1  0.69211750  0.94317050  0.90970900  1
  O  O19  1  0.30788250  0.94317050  0.59029100  1
  O  O20  1  0.30788250  0.05682950  0.09029100  1
  O  O21  1  0.69211750  0.05682950  0.40970900  1
  O  O22  1  0.00000000  0.92697200  0.75000000  1
  O  O23  1  0.00000000  0.07302800  0.25000000  1
  O  O24  1  0.10120500  0.79527200  0.11146800  1
  O  O25  1  0.89879500  0.79527200  0.38853200  1
  O  O26  1  0.89879500  0.20472800  0.88853200  1
  O  O27  1  0.10120500  0.20472800  0.61146800  1
  O  O28  1  0.19211750  0.44317050  0.90970900  1
  O  O29  1  0.80788250  0.44317050  0.59029100  1
  O  O30  1  0.80788250  0.55682950  0.09029100  1
  O  O31  1  0.19211750  0.55682950  0.40970900  1
