# generated using pymatgen
data_YVO3
_symmetry_space_group_name_H-M   'P 1'
_cell_length_a   5.35929800
_cell_length_b   5.66085507
_cell_length_c   7.71628113
_cell_angle_alpha   90.00000000
_cell_angle_beta   90.00000000
_cell_angle_gamma   90.00000000
_symmetry_Int_Tables_number   1
_chemical_formula_structural   YVO3
_chemical_formula_sum   'Y4 V4 O12'
_cell_volume   234.09815140
_cell_formula_units_Z   4
loop_
 _symmetry_equiv_pos_site_id
 _symmetry_equiv_pos_as_xyz
  1  'x, y, z'
loop_
 _atom_site_type_symbol
 _atom_site_label
 _atom_site_symmetry_multiplicity
 _atom_site_fract_x
 _atom_site_fract_y
 _atom_site_fract_z
 _atom_site_occupancy
  Y  Y0  1  0.47790950  0.57001050  0.25000000  1
  Y  Y1  1  0.97790950  0.92998950  0.75000000  1
  Y  Y2  1  0.52209050  0.42998950  0.75000000  1
  Y  Y3  1  0.02209050  0.07001050  0.25000000  1
  V  V4  1  0.50000000  0.00000000  0.00000000  1
  V  V5  1  0.00000000  0.50000000  0.50000000  1
  V  V6  1  0.00000000  0.50000000  0.00000000  1
  V  V7  1  0.50000000  0.00000000  0.50000000  1
  O  O8  1  0.88223250  0.45745850  0.25000000  1
  O  O9  1  0.38223250  0.04254150  0.75000000  1
  O  O10  1  0.11776750  0.54254150  0.75000000  1
  O  O11  1  0.61776750  0.95745850  0.25000000  1
  O  O12  1  0.81296150  0.19958150  0.94059150  1
  O  O13  1  0.31296150  0.30041850  0.05940850  1
  O  O14  1  0.18703850  0.80041850  0.05940850  1
  O  O15  1  0.68703850  0.69958150  0.94059150  1
  O  O16  1  0.18703850  0.80041850  0.44059150  1
  O  O17  1  0.68703850  0.69958150  0.55940850  1
  O  O18  1  0.81296150  0.19958150  0.55940850  1
  O  O19  1  0.31296150  0.30041850  0.44059150  1
