# generated using pymatgen
data_Er2SiSeO4
_symmetry_space_group_name_H-M   'P 1'
_cell_length_a   6.02014600
_cell_length_b   6.92076900
_cell_length_c   10.78953700
_cell_angle_alpha   90.00000000
_cell_angle_beta   90.00000000
_cell_angle_gamma   90.00000000
_symmetry_Int_Tables_number   1
_chemical_formula_structural   Er2SiSeO4
_chemical_formula_sum   'Er8 Si4 Se4 O16'
_cell_volume   449.53569912
_cell_formula_units_Z   4
loop_
 _symmetry_equiv_pos_site_id
 _symmetry_equiv_pos_as_xyz
  1  'x, y, z'
loop_
 _atom_site_type_symbol
 _atom_site_label
 _atom_site_symmetry_multiplicity
 _atom_site_fract_x
 _atom_site_fract_y
 _atom_site_fract_z
 _atom_site_occupancy
  Er  Er0  1  0.60931300  0.25000000  0.50000000  1
  Er  Er1  1  0.60931300  0.25000000  0.00000000  1
  Er  Er2  1  0.39068700  0.75000000  0.50000000  1
  Er  Er3  1  0.39068700  0.75000000  0.00000000  1
  Er  Er4  1  0.86549400  0.52694200  0.75000000  1
  Er  Er5  1  0.86549400  0.97305800  0.25000000  1
  Er  Er6  1  0.13450600  0.02694200  0.75000000  1
  Er  Er7  1  0.13450600  0.47305800  0.25000000  1
  Si  Si8  1  0.11462400  0.25000000  0.00000000  1
  Si  Si9  1  0.88537600  0.75000000  0.00000000  1
  Si  Si10  1  0.88537600  0.75000000  0.50000000  1
  Si  Si11  1  0.11462400  0.25000000  0.50000000  1
  Se  Se12  1  0.57096200  0.86669700  0.75000000  1
  Se  Se13  1  0.57096200  0.63330300  0.25000000  1
  Se  Se14  1  0.42903800  0.36669700  0.75000000  1
  Se  Se15  1  0.42903800  0.13330300  0.25000000  1
  O  O16  1  0.27904500  0.43294600  0.03137200  1
  O  O17  1  0.27904500  0.06705400  0.96862800  1
  O  O18  1  0.72095500  0.93294600  0.46862800  1
  O  O19  1  0.72095500  0.56705400  0.53137200  1
  O  O20  1  0.72095500  0.56705400  0.96862800  1
  O  O21  1  0.72095500  0.93294600  0.03137200  1
  O  O22  1  0.27904500  0.06705400  0.53137200  1
  O  O23  1  0.27904500  0.43294600  0.46862800  1
  O  O24  1  0.05308700  0.74125300  0.12136300  1
  O  O25  1  0.05308700  0.74125300  0.37863700  1
  O  O26  1  0.94691300  0.24125300  0.37863700  1
  O  O27  1  0.94691300  0.25874700  0.62136300  1
  O  O28  1  0.94691300  0.25874700  0.87863700  1
  O  O29  1  0.94691300  0.24125300  0.12136300  1
  O  O30  1  0.05308700  0.75874700  0.62136300  1
  O  O31  1  0.05308700  0.75874700  0.87863700  1
