# generated using pymatgen
data_Na2ZrCo(P2O7)2
_symmetry_space_group_name_H-M   'P 1'
_cell_length_a   6.62000800
_cell_length_b   6.63156680
_cell_length_c   6.97699692
_cell_angle_alpha   66.40156192
_cell_angle_beta   85.36784922
_cell_angle_gamma   82.26119527
_symmetry_Int_Tables_number   1
_chemical_formula_structural   Na2ZrCo(P2O7)2
_chemical_formula_sum   'Na2 Zr1 Co1 P4 O14'
_cell_volume   278.00476130
_cell_formula_units_Z   1
loop_
 _symmetry_equiv_pos_site_id
 _symmetry_equiv_pos_as_xyz
  1  'x, y, z'
loop_
 _atom_site_type_symbol
 _atom_site_label
 _atom_site_symmetry_multiplicity
 _atom_site_fract_x
 _atom_site_fract_y
 _atom_site_fract_z
 _atom_site_occupancy
  Na  Na0  1  0.26736100  0.17135600  0.41169200  1
  Na  Na1  1  0.51156900  0.59228200  0.06604700  1
  Zr  Zr2  1  0.00601700  0.97658400  0.00637900  1
  Co  Co3  1  0.69242900  0.77981700  0.46451700  1
  P  P4  1  0.21882700  0.67285900  0.45945800  1
  P  P5  1  0.96830400  0.53639500  0.86718600  1
  P  P6  1  0.49184200  0.11903900  0.97251000  1
  P  P7  1  0.73136000  0.24427400  0.56009000  1
  O  O8  1  0.55525500  0.25714900  0.73448000  1
  O  O9  1  0.29434200  0.51781400  0.35621000  1
  O  O10  1  0.75991200  0.63605800  0.77482600  1
  O  O11  1  0.32434500  0.97846800  0.96163700  1
  O  O12  1  0.66598000  0.09920100  0.46067300  1
  O  O13  1  0.68260300  0.95248900  0.07600600  1
  O  O14  1  0.04600100  0.67592100  0.97116200  1
  O  O15  1  0.92850200  0.13570000  0.69106800  1
  O  O16  1  0.13110000  0.52467700  0.68940300  1
  O  O17  1  0.02747700  0.83643000  0.34435900  1
  O  O18  1  0.41713600  0.27444500  0.07448000  1
  O  O19  1  0.74604100  0.48438900  0.41385900  1
  O  O20  1  0.37570700  0.80541400  0.49031700  1
  O  O21  1  0.96999100  0.29244000  0.02053900  1
