# generated using pymatgen
data_Ca4PdO6
_symmetry_space_group_name_H-M   'P 1'
_cell_length_a   9.40059527
_cell_length_b   9.40059527
_cell_length_c   11.29691398
_cell_angle_alpha   90.00000000
_cell_angle_beta   90.00000000
_cell_angle_gamma   120.00000000
_symmetry_Int_Tables_number   1
_chemical_formula_structural   Ca4PdO6
_chemical_formula_sum   'Ca24 Pd6 O36'
_cell_volume   864.57199517
_cell_formula_units_Z   6
loop_
 _symmetry_equiv_pos_site_id
 _symmetry_equiv_pos_as_xyz
  1  'x, y, z'
loop_
 _atom_site_type_symbol
 _atom_site_label
 _atom_site_symmetry_multiplicity
 _atom_site_fract_x
 _atom_site_fract_y
 _atom_site_fract_z
 _atom_site_occupancy
  Ca  Ca0  1  0.00000000  0.00000000  0.25000000  1
  Ca  Ca1  1  0.00000000  0.00000000  0.75000000  1
  Ca  Ca2  1  0.69875633  0.66666667  0.41666667  1
  Ca  Ca3  1  0.33333333  0.03208967  0.41666667  1
  Ca  Ca4  1  0.96791033  0.30124367  0.41666667  1
  Ca  Ca5  1  0.30124367  0.33333333  0.58333333  1
  Ca  Ca6  1  0.66666667  0.96791033  0.58333333  1
  Ca  Ca7  1  0.03208967  0.69875633  0.58333333  1
  Ca  Ca8  1  0.66666667  0.33333333  0.58333333  1
  Ca  Ca9  1  0.66666667  0.33333333  0.08333333  1
  Ca  Ca10  1  0.36542300  0.00000000  0.75000000  1
  Ca  Ca11  1  0.00000000  0.36542300  0.75000000  1
  Ca  Ca12  1  0.63457700  0.63457700  0.75000000  1
  Ca  Ca13  1  0.96791033  0.66666667  0.91666667  1
  Ca  Ca14  1  0.33333333  0.30124367  0.91666667  1
  Ca  Ca15  1  0.69875633  0.03208967  0.91666667  1
  Ca  Ca16  1  0.33333333  0.66666667  0.91666667  1
  Ca  Ca17  1  0.33333333  0.66666667  0.41666667  1
  Ca  Ca18  1  0.03208967  0.33333333  0.08333333  1
  Ca  Ca19  1  0.66666667  0.69875633  0.08333333  1
  Ca  Ca20  1  0.30124367  0.96791033  0.08333333  1
  Ca  Ca21  1  0.63457700  0.00000000  0.25000000  1
  Ca  Ca22  1  0.00000000  0.63457700  0.25000000  1
  Ca  Ca23  1  0.36542300  0.36542300  0.25000000  1
  Pd  Pd24  1  0.00000000  0.00000000  0.00000000  1
  Pd  Pd25  1  0.00000000  0.00000000  0.50000000  1
  Pd  Pd26  1  0.66666667  0.33333333  0.33333333  1
  Pd  Pd27  1  0.66666667  0.33333333  0.83333333  1
  Pd  Pd28  1  0.33333333  0.66666667  0.66666667  1
  Pd  Pd29  1  0.33333333  0.66666667  0.16666667  1
  O  O30  1  0.19310200  0.03517300  0.60474000  1
  O  O31  1  0.96482700  0.15792900  0.60474000  1
  O  O32  1  0.84207100  0.80689800  0.60474000  1
  O  O33  1  0.49126233  0.63149367  0.56192667  1
  O  O34  1  0.36850633  0.85976867  0.56192667  1
  O  O35  1  0.14023133  0.50873767  0.56192667  1
  O  O36  1  0.80689800  0.96482700  0.39526000  1
  O  O37  1  0.03517300  0.84207100  0.39526000  1
  O  O38  1  0.15792900  0.19310200  0.39526000  1
  O  O39  1  0.50873767  0.36850633  0.43807333  1
  O  O40  1  0.85976867  0.49126233  0.43807333  1
  O  O41  1  0.63149367  0.14023133  0.43807333  1
  O  O42  1  0.85976867  0.36850633  0.93807333  1
  O  O43  1  0.63149367  0.49126233  0.93807333  1
  O  O44  1  0.50873767  0.14023133  0.93807333  1
  O  O45  1  0.15792900  0.96482700  0.89526000  1
  O  O46  1  0.03517300  0.19310200  0.89526000  1
  O  O47  1  0.80689800  0.84207100  0.89526000  1
  O  O48  1  0.47356467  0.29816033  0.72859333  1
  O  O49  1  0.70183967  0.17540433  0.72859333  1
  O  O50  1  0.82459567  0.52643533  0.72859333  1
  O  O51  1  0.17540433  0.70183967  0.77140667  1
  O  O52  1  0.52643533  0.82459567  0.77140667  1
  O  O53  1  0.29816033  0.47356467  0.77140667  1
  O  O54  1  0.52643533  0.70183967  0.27140667  1
  O  O55  1  0.29816033  0.82459567  0.27140667  1
  O  O56  1  0.17540433  0.47356467  0.27140667  1
  O  O57  1  0.82459567  0.29816033  0.22859333  1
  O  O58  1  0.70183967  0.52643533  0.22859333  1
  O  O59  1  0.47356467  0.17540433  0.22859333  1
  O  O60  1  0.14023133  0.63149367  0.06192667  1
  O  O61  1  0.36850633  0.50873767  0.06192667  1
  O  O62  1  0.49126233  0.85976867  0.06192667  1
  O  O63  1  0.84207100  0.03517300  0.10474000  1
  O  O64  1  0.19310200  0.15792900  0.10474000  1
  O  O65  1  0.96482700  0.80689800  0.10474000  1
