# generated using pymatgen
data_CsB3PbF12
_symmetry_space_group_name_H-M   'P 1'
_cell_length_a   9.35083800
_cell_length_b   10.12680000
_cell_length_c   6.86533596
_cell_angle_alpha   90.00000000
_cell_angle_beta   91.22143855
_cell_angle_gamma   90.00000000
_symmetry_Int_Tables_number   1
_chemical_formula_structural   CsB3PbF12
_chemical_formula_sum   'Cs2 B6 Pb2 F24'
_cell_volume   649.95885933
_cell_formula_units_Z   2
loop_
 _symmetry_equiv_pos_site_id
 _symmetry_equiv_pos_as_xyz
  1  'x, y, z'
loop_
 _atom_site_type_symbol
 _atom_site_label
 _atom_site_symmetry_multiplicity
 _atom_site_fract_x
 _atom_site_fract_y
 _atom_site_fract_z
 _atom_site_occupancy
  Cs  Cs0  1  0.47849800  0.00000000  0.40927400  1
  Cs  Cs1  1  0.97849800  0.50000000  0.40927400  1
  B  B2  1  0.00821800  0.00000000  0.48783500  1
  B  B3  1  0.74184850  0.76460650  0.02031800  1
  B  B4  1  0.74184850  0.23539350  0.02031800  1
  B  B5  1  0.50821800  0.50000000  0.48783500  1
  B  B6  1  0.24184850  0.26460650  0.02031800  1
  B  B7  1  0.24184850  0.73539350  0.02031800  1
  Pb  Pb8  1  0.04847500  0.00000000  0.93489000  1
  Pb  Pb9  1  0.54847500  0.50000000  0.93489000  1
  F  F10  1  0.45039050  0.38682650  0.57880000  1
  F  F11  1  0.45039050  0.61317350  0.57880000  1
  F  F12  1  0.15876600  0.00000000  0.51900600  1
  F  F13  1  0.97238300  0.00000000  0.28591600  1
  F  F14  1  0.24204050  0.14034250  0.12415600  1
  F  F15  1  0.66501300  0.85816500  0.12225400  1
  F  F16  1  0.38716700  0.30520200  0.00181400  1
  F  F17  1  0.68037050  0.73910150  0.83418100  1
  F  F18  1  0.66501300  0.14183500  0.12225400  1
  F  F19  1  0.24204050  0.85965750  0.12415600  1
  F  F20  1  0.38716700  0.69479800  0.00181400  1
  F  F21  1  0.68037050  0.26089850  0.83418100  1
  F  F22  1  0.95039050  0.88682650  0.57880000  1
  F  F23  1  0.95039050  0.11317350  0.57880000  1
  F  F24  1  0.65876600  0.50000000  0.51900600  1
  F  F25  1  0.47238300  0.50000000  0.28591600  1
  F  F26  1  0.74204050  0.64034250  0.12415600  1
  F  F27  1  0.16501300  0.35816500  0.12225400  1
  F  F28  1  0.88716700  0.80520200  0.00181400  1
  F  F29  1  0.18037050  0.23910150  0.83418100  1
  F  F30  1  0.16501300  0.64183500  0.12225400  1
  F  F31  1  0.74204050  0.35965750  0.12415600  1
  F  F32  1  0.88716700  0.19479800  0.00181400  1
  F  F33  1  0.18037050  0.76089850  0.83418100  1
