# generated using pymatgen
data_V2PO5
_symmetry_space_group_name_H-M   'P 1'
_cell_length_a   5.47400693
_cell_length_b   5.47400693
_cell_length_c   12.58785971
_cell_angle_alpha   90.00000000
_cell_angle_beta   90.00000000
_cell_angle_gamma   90.00000000
_symmetry_Int_Tables_number   1
_chemical_formula_structural   V2PO5
_chemical_formula_sum   'V8 P4 O20'
_cell_volume   377.19209319
_cell_formula_units_Z   4
loop_
 _symmetry_equiv_pos_site_id
 _symmetry_equiv_pos_as_xyz
  1  'x, y, z'
loop_
 _atom_site_type_symbol
 _atom_site_label
 _atom_site_symmetry_multiplicity
 _atom_site_fract_x
 _atom_site_fract_y
 _atom_site_fract_z
 _atom_site_occupancy
  V  V0  1  0.25000000  0.50000000  0.87500000  1
  V  V1  1  0.50000000  0.75000000  0.12500000  1
  V  V2  1  0.50000000  0.25000000  0.12500000  1
  V  V3  1  0.75000000  0.50000000  0.87500000  1
  V  V4  1  0.75000000  0.00000000  0.37500000  1
  V  V5  1  0.00000000  0.25000000  0.62500000  1
  V  V6  1  0.00000000  0.75000000  0.62500000  1
  V  V7  1  0.25000000  0.00000000  0.37500000  1
  P  P8  1  0.00000000  0.00000000  0.00000000  1
  P  P9  1  0.50000000  0.00000000  0.75000000  1
  P  P10  1  0.50000000  0.50000000  0.50000000  1
  P  P11  1  0.00000000  0.50000000  0.25000000  1
  O  O12  1  0.50000000  0.50000000  0.00000000  1
  O  O13  1  0.00000000  0.50000000  0.75000000  1
  O  O14  1  0.50000000  0.76291400  0.81689700  1
  O  O15  1  0.26291400  0.00000000  0.68310300  1
  O  O16  1  0.73708600  0.00000000  0.68310300  1
  O  O17  1  0.00000000  0.23708600  0.93310300  1
  O  O18  1  0.50000000  0.23708600  0.81689700  1
  O  O19  1  0.76291400  0.00000000  0.06689700  1
  O  O20  1  0.23708600  0.00000000  0.06689700  1
  O  O21  1  0.00000000  0.76291400  0.93310300  1
  O  O22  1  0.00000000  0.00000000  0.50000000  1
  O  O23  1  0.50000000  0.00000000  0.25000000  1
  O  O24  1  0.00000000  0.26291400  0.31689700  1
  O  O25  1  0.76291400  0.50000000  0.18310300  1
  O  O26  1  0.23708600  0.50000000  0.18310300  1
  O  O27  1  0.50000000  0.73708600  0.43310300  1
  O  O28  1  0.00000000  0.73708600  0.31689700  1
  O  O29  1  0.26291400  0.50000000  0.56689700  1
  O  O30  1  0.73708600  0.50000000  0.56689700  1
  O  O31  1  0.50000000  0.26291400  0.43310300  1
