# generated using pymatgen
data_NaGdSiO4
_symmetry_space_group_name_H-M   'P 1'
_cell_length_a   11.81557000
_cell_length_b   11.81557000
_cell_length_c   5.38917800
_cell_angle_alpha   90.00000000
_cell_angle_beta   90.00000000
_cell_angle_gamma   90.00000000
_symmetry_Int_Tables_number   1
_chemical_formula_structural   NaGdSiO4
_chemical_formula_sum   'Na8 Gd8 Si8 O32'
_cell_volume   752.37071543
_cell_formula_units_Z   8
loop_
 _symmetry_equiv_pos_site_id
 _symmetry_equiv_pos_as_xyz
  1  'x, y, z'
loop_
 _atom_site_type_symbol
 _atom_site_label
 _atom_site_symmetry_multiplicity
 _atom_site_fract_x
 _atom_site_fract_y
 _atom_site_fract_z
 _atom_site_occupancy
  Na  Na0  1  0.60702100  0.08660900  0.00000000  1
  Na  Na1  1  0.41339100  0.10702100  0.50000000  1
  Na  Na2  1  0.58660900  0.89297900  0.50000000  1
  Na  Na3  1  0.39297900  0.91339100  0.00000000  1
  Na  Na4  1  0.10702100  0.58660900  0.50000000  1
  Na  Na5  1  0.91339100  0.60702100  0.00000000  1
  Na  Na6  1  0.08660900  0.39297900  0.00000000  1
  Na  Na7  1  0.89297900  0.41339100  0.50000000  1
  Gd  Gd8  1  0.62089100  0.30907500  0.50000000  1
  Gd  Gd9  1  0.19092500  0.12089100  0.00000000  1
  Gd  Gd10  1  0.80907500  0.87910900  0.00000000  1
  Gd  Gd11  1  0.37910900  0.69092500  0.50000000  1
  Gd  Gd12  1  0.12089100  0.80907500  0.00000000  1
  Gd  Gd13  1  0.69092500  0.62089100  0.50000000  1
  Gd  Gd14  1  0.30907500  0.37910900  0.50000000  1
  Gd  Gd15  1  0.87910900  0.19092500  0.00000000  1
  Si  Si16  1  0.23782450  0.90166750  0.50000000  1
  Si  Si17  1  0.59833250  0.73782450  0.00000000  1
  Si  Si18  1  0.40166750  0.26217550  0.00000000  1
  Si  Si19  1  0.76217550  0.09833250  0.50000000  1
  Si  Si20  1  0.73782450  0.40166750  0.00000000  1
  Si  Si21  1  0.09833250  0.23782450  0.50000000  1
  Si  Si22  1  0.90166750  0.76217550  0.50000000  1
  Si  Si23  1  0.26217550  0.59833250  0.00000000  1
  O  O24  1  0.80734550  0.04021450  0.75689250  1
  O  O25  1  0.45978550  0.30734550  0.25689250  1
  O  O26  1  0.54021450  0.69265450  0.25689250  1
  O  O27  1  0.19265450  0.95978550  0.75689250  1
  O  O28  1  0.19265450  0.95978550  0.24310750  1
  O  O29  1  0.54021450  0.69265450  0.74310750  1
  O  O30  1  0.45978550  0.30734550  0.74310750  1
  O  O31  1  0.80734550  0.04021450  0.24310750  1
  O  O32  1  0.69506950  0.26782450  0.00000000  1
  O  O33  1  0.23217550  0.19506950  0.50000000  1
  O  O34  1  0.76782450  0.80493050  0.50000000  1
  O  O35  1  0.30493050  0.73217550  0.00000000  1
  O  O36  1  0.37881150  0.89634750  0.50000000  1
  O  O37  1  0.60365250  0.87881150  0.00000000  1
  O  O38  1  0.39634750  0.12118850  0.00000000  1
  O  O39  1  0.62118850  0.10365250  0.50000000  1
  O  O40  1  0.30734550  0.54021450  0.25689250  1
  O  O41  1  0.95978550  0.80734550  0.75689250  1
  O  O42  1  0.04021450  0.19265450  0.75689250  1
  O  O43  1  0.69265450  0.45978550  0.25689250  1
  O  O44  1  0.69265450  0.45978550  0.74310750  1
  O  O45  1  0.04021450  0.19265450  0.24310750  1
  O  O46  1  0.95978550  0.80734550  0.24310750  1
  O  O47  1  0.30734550  0.54021450  0.74310750  1
  O  O48  1  0.19506950  0.76782450  0.50000000  1
  O  O49  1  0.73217550  0.69506950  0.00000000  1
  O  O50  1  0.26782450  0.30493050  0.00000000  1
  O  O51  1  0.80493050  0.23217550  0.50000000  1
  O  O52  1  0.87881150  0.39634750  0.00000000  1
  O  O53  1  0.10365250  0.37881150  0.50000000  1
  O  O54  1  0.89634750  0.62118850  0.50000000  1
  O  O55  1  0.12118850  0.60365250  0.00000000  1
