# generated using pymatgen
data_SrB4O7
_symmetry_space_group_name_H-M   'P 1'
_cell_length_a   17.30233418
_cell_length_b   17.30233418
_cell_length_c   4.29576800
_cell_angle_alpha   90.00000000
_cell_angle_beta   90.00000000
_cell_angle_gamma   120.00000000
_symmetry_Int_Tables_number   1
_chemical_formula_structural   SrB4O7
_chemical_formula_sum   'Sr9 B36 O63'
_cell_volume   1113.73236898
_cell_formula_units_Z   9
loop_
 _symmetry_equiv_pos_site_id
 _symmetry_equiv_pos_as_xyz
  1  'x, y, z'
loop_
 _atom_site_type_symbol
 _atom_site_label
 _atom_site_symmetry_multiplicity
 _atom_site_fract_x
 _atom_site_fract_y
 _atom_site_fract_z
 _atom_site_occupancy
  Sr  Sr0  1  0.33333333  0.66666667  0.49882100  1
  Sr  Sr1  1  0.00000000  0.00000000  0.70553100  1
  Sr  Sr2  1  0.66666667  0.33333333  0.60697500  1
  Sr  Sr3  1  0.34095833  0.34281367  0.70121800  1
  Sr  Sr4  1  0.00185533  0.65904167  0.70121800  1
  Sr  Sr5  1  0.65718633  0.99814467  0.70121800  1
  Sr  Sr6  1  0.67484633  0.67261267  0.51649500  1
  Sr  Sr7  1  0.99776633  0.32515367  0.51649500  1
  Sr  Sr8  1  0.32738733  0.00223367  0.51649500  1
  B  B9  1  0.51514433  0.38019367  0.32421900  1
  B  B10  1  0.86504933  0.48485567  0.32421900  1
  B  B11  1  0.61980633  0.13495067  0.32421900  1
  B  B12  1  0.63675833  0.48542367  0.99728800  1
  B  B13  1  0.84866533  0.36324167  0.99728800  1
  B  B14  1  0.51457633  0.15133467  0.99728800  1
  B  B15  1  0.30006633  0.47146167  0.24168100  1
  B  B16  1  0.17139533  0.69993367  0.24168100  1
  B  B17  1  0.52853833  0.82860467  0.24168100  1
  B  B18  1  0.19245233  0.48110367  0.90617500  1
  B  B19  1  0.28865133  0.80754767  0.90617500  1
  B  B20  1  0.51889633  0.71134867  0.90617500  1
  B  B21  1  0.17864933  0.14102067  0.27757000  1
  B  B22  1  0.96237133  0.82135067  0.27757000  1
  B  B23  1  0.85897933  0.03762867  0.27757000  1
  B  B24  1  0.19996433  0.03905667  0.94410400  1
  B  B25  1  0.83909233  0.80003567  0.94410400  1
  B  B26  1  0.96094333  0.16090767  0.94410400  1
  B  B27  1  0.50757833  0.51264567  0.11095000  1
  B  B28  1  0.00506733  0.49242167  0.11095000  1
  B  B29  1  0.48735433  0.99493267  0.11095000  1
  B  B30  1  0.45104533  0.55834567  0.59758200  1
  B  B31  1  0.10730033  0.54895467  0.59758200  1
  B  B32  1  0.44165433  0.89269967  0.59758200  1
  B  B33  1  0.16878033  0.32741367  0.04731800  1
  B  B34  1  0.15863333  0.83121967  0.04731800  1
  B  B35  1  0.67258633  0.84136667  0.04731800  1
  B  B36  1  0.10835033  0.22595767  0.55960000  1
  B  B37  1  0.11760733  0.89164967  0.55960000  1
  B  B38  1  0.77404233  0.88239267  0.55960000  1
  B  B39  1  0.33605633  0.17102367  0.17916500  1
  B  B40  1  0.83496733  0.66394367  0.17916500  1
  B  B41  1  0.82897633  0.16503267  0.17916500  1
  B  B42  1  0.43849833  0.22885267  0.68228100  1
  B  B43  1  0.79035433  0.56150167  0.68228100  1
  B  B44  1  0.77114733  0.20964567  0.68228100  1
  O  O45  1  0.49176233  0.32201867  0.56192300  1
  O  O46  1  0.83025633  0.50823767  0.56192300  1
  O  O47  1  0.67798133  0.16974367  0.56192300  1
  O  O48  1  0.46645833  0.41990667  0.24890400  1
  O  O49  1  0.95344833  0.53354167  0.24890400  1
  O  O50  1  0.58009333  0.04655167  0.24890400  1
  O  O51  1  0.59830333  0.40765867  0.18392700  1
  O  O52  1  0.80935533  0.40169667  0.18392700  1
  O  O53  1  0.59234133  0.19064467  0.18392700  1
  O  O54  1  0.60307633  0.54234167  0.00000500  1
  O  O55  1  0.93926533  0.39692367  0.00000500  1
  O  O56  1  0.45765833  0.06073467  0.00000500  1
  O  O57  1  0.70201133  0.49111567  0.80773700  1
  O  O58  1  0.78910433  0.29798867  0.80773700  1
  O  O59  1  0.50888433  0.21089567  0.80773700  1
  O  O60  1  0.35741933  0.50967767  0.47879200  1
  O  O61  1  0.15225833  0.64258067  0.47879200  1
  O  O62  1  0.49032233  0.84774167  0.47879200  1
  O  O63  1  0.26393633  0.38261867  0.16909700  1
  O  O64  1  0.11868233  0.73606367  0.16909700  1
  O  O65  1  0.61738133  0.88131767  0.16909700  1
  O  O66  1  0.26927233  0.52352467  0.09540100  1
  O  O67  1  0.25425233  0.73072767  0.09540100  1
  O  O68  1  0.47647533  0.74574767  0.09540100  1
  O  O69  1  0.13939133  0.39039167  0.90785600  1
  O  O70  1  0.25100033  0.86060867  0.90785600  1
  O  O71  1  0.60960833  0.74899967  0.90785600  1
  O  O72  1  0.18318733  0.53859467  0.71549800  1
  O  O73  1  0.35540733  0.81681267  0.71549800  1
  O  O74  1  0.46140533  0.64459267  0.71549800  1
  O  O75  1  0.11470033  0.14737367  0.44282400  1
  O  O76  1  0.03267333  0.88529967  0.44282400  1
  O  O77  1  0.85262633  0.96732667  0.44282400  1
  O  O78  1  0.26864133  0.19520167  0.30970700  1
  O  O79  1  0.92656033  0.73135867  0.30970700  1
  O  O80  1  0.80479833  0.07343967  0.30970700  1
  O  O81  1  0.14319033  0.06686867  0.07320000  1
  O  O82  1  0.92367833  0.85680967  0.07320000  1
  O  O83  1  0.93313133  0.07632167  0.07320000  1
  O  O84  1  0.28669433  0.07695467  0.04504400  1
  O  O85  1  0.79026033  0.71330567  0.04504400  1
  O  O86  1  0.92304533  0.20973967  0.04504400  1
  O  O87  1  0.17118033  0.98454567  0.69308000  1
  O  O88  1  0.81336533  0.82881967  0.69308000  1
  O  O89  1  0.01545433  0.18663467  0.69308000  1
  O  O90  1  0.51598333  0.57656167  0.35008500  1
  O  O91  1  0.06057833  0.48401667  0.35008500  1
  O  O92  1  0.42343833  0.93942167  0.35008500  1
  O  O93  1  0.45156833  0.50316167  0.85050300  1
  O  O94  1  0.05159333  0.54843167  0.85050300  1
  O  O95  1  0.49683833  0.94840667  0.85050300  1
  O  O96  1  0.10801133  0.28055267  0.29989000  1
  O  O97  1  0.17254133  0.89198867  0.29989000  1
  O  O98  1  0.71944733  0.82745867  0.29989000  1
  O  O99  1  0.17474133  0.27252867  0.80028900  1
  O  O100  1  0.09778733  0.82525867  0.80028900  1
  O  O101  1  0.72747133  0.90221267  0.80028900  1
  O  O102  1  0.39005633  0.16627167  0.43216000  1
  O  O103  1  0.77621533  0.60994367  0.43216000  1
  O  O104  1  0.83372833  0.22378467  0.43216000  1
  O  O105  1  0.38394133  0.23410967  0.93291700  1
  O  O106  1  0.85016833  0.61605867  0.93291700  1
  O  O107  1  0.76589033  0.14983167  0.93291700  1
