# generated using pymatgen
data_RbAlF4
_symmetry_space_group_name_H-M   'P 1'
_cell_length_a   11.87700000
_cell_length_b   11.87700000
_cell_length_c   12.78600600
_cell_angle_alpha   90.00000000
_cell_angle_beta   90.00000000
_cell_angle_gamma   90.00000000
_symmetry_Int_Tables_number   1
_chemical_formula_structural   RbAlF4
_chemical_formula_sum   'Rb20 Al20 F80'
_cell_volume   1803.63401377
_cell_formula_units_Z   20
loop_
 _symmetry_equiv_pos_site_id
 _symmetry_equiv_pos_as_xyz
  1  'x, y, z'
loop_
 _atom_site_type_symbol
 _atom_site_label
 _atom_site_symmetry_multiplicity
 _atom_site_fract_x
 _atom_site_fract_y
 _atom_site_fract_z
 _atom_site_occupancy
  Rb  Rb0  1  0.65838700  0.84161300  0.18815900  1
  Rb  Rb1  1  0.34161300  0.15838700  0.18815900  1
  Rb  Rb2  1  0.34161300  0.84161300  0.31184100  1
  Rb  Rb3  1  0.65838700  0.15838700  0.31184100  1
  Rb  Rb4  1  0.15838700  0.65838700  0.18815900  1
  Rb  Rb5  1  0.15838700  0.34161300  0.31184100  1
  Rb  Rb6  1  0.84161300  0.65838700  0.31184100  1
  Rb  Rb7  1  0.84161300  0.34161300  0.18815900  1
  Rb  Rb8  1  0.00000000  0.00000000  0.75000000  1
  Rb  Rb9  1  0.00000000  0.00000000  0.25000000  1
  Rb  Rb10  1  0.15838700  0.34161300  0.68815900  1
  Rb  Rb11  1  0.84161300  0.65838700  0.68815900  1
  Rb  Rb12  1  0.84161300  0.34161300  0.81184100  1
  Rb  Rb13  1  0.15838700  0.65838700  0.81184100  1
  Rb  Rb14  1  0.65838700  0.15838700  0.68815900  1
  Rb  Rb15  1  0.65838700  0.84161300  0.81184100  1
  Rb  Rb16  1  0.34161300  0.15838700  0.81184100  1
  Rb  Rb17  1  0.34161300  0.84161300  0.68815900  1
  Rb  Rb18  1  0.50000000  0.50000000  0.25000000  1
  Rb  Rb19  1  0.50000000  0.50000000  0.75000000  1
  Al  Al20  1  0.20753700  0.07656400  0.50000000  1
  Al  Al21  1  0.29246300  0.42343600  0.00000000  1
  Al  Al22  1  0.57656400  0.29246300  0.00000000  1
  Al  Al23  1  0.92343600  0.20753700  0.50000000  1
  Al  Al24  1  0.70753700  0.42343600  0.50000000  1
  Al  Al25  1  0.42343600  0.29246300  0.50000000  1
  Al  Al26  1  0.07656400  0.20753700  0.00000000  1
  Al  Al27  1  0.79246300  0.07656400  0.00000000  1
  Al  Al28  1  0.00000000  0.50000000  0.00000000  1
  Al  Al29  1  0.50000000  0.00000000  0.00000000  1
  Al  Al30  1  0.70753700  0.57656400  0.00000000  1
  Al  Al31  1  0.79246300  0.92343600  0.50000000  1
  Al  Al32  1  0.07656400  0.79246300  0.50000000  1
  Al  Al33  1  0.42343600  0.70753700  0.00000000  1
  Al  Al34  1  0.20753700  0.92343600  0.00000000  1
  Al  Al35  1  0.92343600  0.79246300  0.00000000  1
  Al  Al36  1  0.57656400  0.70753700  0.50000000  1
  Al  Al37  1  0.29246300  0.57656400  0.50000000  1
  Al  Al38  1  0.50000000  0.00000000  0.50000000  1
  Al  Al39  1  0.00000000  0.50000000  0.50000000  1
  F  F40  1  0.50000000  0.00000000  0.13845300  1
  F  F41  1  0.50000000  0.00000000  0.36154700  1
  F  F42  1  0.00000000  0.50000000  0.36154700  1
  F  F43  1  0.00000000  0.50000000  0.13845300  1
  F  F44  1  0.78141350  0.28141350  0.50000000  1
  F  F45  1  0.28141350  0.21858650  0.50000000  1
  F  F46  1  0.21858650  0.28141350  0.00000000  1
  F  F47  1  0.71858650  0.21858650  0.00000000  1
  F  F48  1  0.57940950  0.29130750  0.86090450  1
  F  F49  1  0.92059050  0.20869250  0.36090450  1
  F  F50  1  0.29130750  0.42059050  0.13909550  1
  F  F51  1  0.20869250  0.07940950  0.63909550  1
  F  F52  1  0.57940950  0.70869250  0.36090450  1
  F  F53  1  0.20869250  0.92059050  0.13909550  1
  F  F54  1  0.92059050  0.79130750  0.13909550  1
  F  F55  1  0.79130750  0.07940950  0.13909550  1
  F  F56  1  0.92059050  0.20869250  0.63909550  1
  F  F57  1  0.57940950  0.29130750  0.13909550  1
  F  F58  1  0.20869250  0.07940950  0.36090450  1
  F  F59  1  0.29130750  0.42059050  0.86090450  1
  F  F60  1  0.34428150  0.00126350  0.00000000  1
  F  F61  1  0.00126350  0.65571850  0.00000000  1
  F  F62  1  0.49873650  0.84428150  0.50000000  1
  F  F63  1  0.15571850  0.49873650  0.50000000  1
  F  F64  1  0.49873650  0.15571850  0.00000000  1
  F  F65  1  0.00126350  0.34428150  0.50000000  1
  F  F66  1  0.34428150  0.99873650  0.50000000  1
  F  F67  1  0.15571850  0.50126350  0.00000000  1
  F  F68  1  0.14230800  0.06673100  0.00000000  1
  F  F69  1  0.06673100  0.85769200  0.00000000  1
  F  F70  1  0.43326900  0.64230800  0.50000000  1
  F  F71  1  0.35769200  0.43326900  0.50000000  1
  F  F72  1  0.43326900  0.35769200  0.00000000  1
  F  F73  1  0.06673100  0.14230800  0.50000000  1
  F  F74  1  0.14230800  0.93326900  0.50000000  1
  F  F75  1  0.35769200  0.56673100  0.00000000  1
  F  F76  1  0.07940950  0.20869250  0.13909550  1
  F  F77  1  0.70869250  0.42059050  0.36090450  1
  F  F78  1  0.29130750  0.57940950  0.36090450  1
  F  F79  1  0.42059050  0.29130750  0.36090450  1
  F  F80  1  0.00000000  0.50000000  0.63845300  1
  F  F81  1  0.00000000  0.50000000  0.86154700  1
  F  F82  1  0.50000000  0.00000000  0.86154700  1
  F  F83  1  0.50000000  0.00000000  0.63845300  1
  F  F84  1  0.28141350  0.78141350  0.00000000  1
  F  F85  1  0.78141350  0.71858650  0.00000000  1
  F  F86  1  0.71858650  0.78141350  0.50000000  1
  F  F87  1  0.21858650  0.71858650  0.50000000  1
  F  F88  1  0.07940950  0.79130750  0.36090450  1
  F  F89  1  0.42059050  0.70869250  0.86090450  1
  F  F90  1  0.79130750  0.92059050  0.63909550  1
  F  F91  1  0.70869250  0.57940950  0.13909550  1
  F  F92  1  0.07940950  0.20869250  0.86090450  1
  F  F93  1  0.70869250  0.42059050  0.63909550  1
  F  F94  1  0.42059050  0.29130750  0.63909550  1
  F  F95  1  0.29130750  0.57940950  0.63909550  1
  F  F96  1  0.42059050  0.70869250  0.13909550  1
  F  F97  1  0.07940950  0.79130750  0.63909550  1
  F  F98  1  0.70869250  0.57940950  0.86090450  1
  F  F99  1  0.79130750  0.92059050  0.36090450  1
  F  F100  1  0.84428150  0.50126350  0.50000000  1
  F  F101  1  0.50126350  0.15571850  0.50000000  1
  F  F102  1  0.99873650  0.34428150  0.00000000  1
  F  F103  1  0.65571850  0.99873650  0.00000000  1
  F  F104  1  0.99873650  0.65571850  0.50000000  1
  F  F105  1  0.50126350  0.84428150  0.00000000  1
  F  F106  1  0.84428150  0.49873650  0.00000000  1
  F  F107  1  0.65571850  0.00126350  0.50000000  1
  F  F108  1  0.64230800  0.56673100  0.50000000  1
  F  F109  1  0.56673100  0.35769200  0.50000000  1
  F  F110  1  0.93326900  0.14230800  0.00000000  1
  F  F111  1  0.85769200  0.93326900  0.00000000  1
  F  F112  1  0.93326900  0.85769200  0.50000000  1
  F  F113  1  0.56673100  0.64230800  0.00000000  1
  F  F114  1  0.64230800  0.43326900  0.00000000  1
  F  F115  1  0.85769200  0.06673100  0.50000000  1
  F  F116  1  0.57940950  0.70869250  0.63909550  1
  F  F117  1  0.20869250  0.92059050  0.86090450  1
  F  F118  1  0.79130750  0.07940950  0.86090450  1
  F  F119  1  0.92059050  0.79130750  0.86090450  1
