# generated using pymatgen
data_Sr3Y2(GeO4)3
_symmetry_space_group_name_H-M   'P 1'
_cell_length_a   13.25948600
_cell_length_b   13.25948600
_cell_length_c   13.25948600
_cell_angle_alpha   90.00000000
_cell_angle_beta   90.00000000
_cell_angle_gamma   90.00000000
_symmetry_Int_Tables_number   1
_chemical_formula_structural   Sr3Y2(GeO4)3
_chemical_formula_sum   'Sr24 Y16 Ge24 O96'
_cell_volume   2331.20286035
_cell_formula_units_Z   8
loop_
 _symmetry_equiv_pos_site_id
 _symmetry_equiv_pos_as_xyz
  1  'x, y, z'
loop_
 _atom_site_type_symbol
 _atom_site_label
 _atom_site_symmetry_multiplicity
 _atom_site_fract_x
 _atom_site_fract_y
 _atom_site_fract_z
 _atom_site_occupancy
  Sr  Sr0  1  0.87500000  0.50000000  0.25000000  1
  Sr  Sr1  1  0.12500000  0.00000000  0.25000000  1
  Sr  Sr2  1  0.25000000  0.12500000  0.00000000  1
  Sr  Sr3  1  0.25000000  0.87500000  0.50000000  1
  Sr  Sr4  1  0.37500000  0.50000000  0.25000000  1
  Sr  Sr5  1  0.50000000  0.25000000  0.87500000  1
  Sr  Sr6  1  0.50000000  0.25000000  0.37500000  1
  Sr  Sr7  1  0.62500000  0.00000000  0.25000000  1
  Sr  Sr8  1  0.00000000  0.25000000  0.62500000  1
  Sr  Sr9  1  0.25000000  0.62500000  0.00000000  1
  Sr  Sr10  1  0.25000000  0.37500000  0.50000000  1
  Sr  Sr11  1  0.00000000  0.25000000  0.12500000  1
  Sr  Sr12  1  0.37500000  0.00000000  0.75000000  1
  Sr  Sr13  1  0.62500000  0.50000000  0.75000000  1
  Sr  Sr14  1  0.75000000  0.62500000  0.50000000  1
  Sr  Sr15  1  0.75000000  0.37500000  0.00000000  1
  Sr  Sr16  1  0.87500000  0.00000000  0.75000000  1
  Sr  Sr17  1  0.00000000  0.75000000  0.37500000  1
  Sr  Sr18  1  0.00000000  0.75000000  0.87500000  1
  Sr  Sr19  1  0.12500000  0.50000000  0.75000000  1
  Sr  Sr20  1  0.50000000  0.75000000  0.12500000  1
  Sr  Sr21  1  0.75000000  0.12500000  0.50000000  1
  Sr  Sr22  1  0.75000000  0.87500000  0.00000000  1
  Sr  Sr23  1  0.50000000  0.75000000  0.62500000  1
  Y  Y24  1  0.00000000  0.00000000  0.00000000  1
  Y  Y25  1  0.75000000  0.25000000  0.25000000  1
  Y  Y26  1  0.25000000  0.75000000  0.25000000  1
  Y  Y27  1  0.00000000  0.00000000  0.50000000  1
  Y  Y28  1  0.50000000  0.00000000  0.00000000  1
  Y  Y29  1  0.00000000  0.50000000  0.00000000  1
  Y  Y30  1  0.25000000  0.25000000  0.25000000  1
  Y  Y31  1  0.25000000  0.25000000  0.75000000  1
  Y  Y32  1  0.50000000  0.50000000  0.50000000  1
  Y  Y33  1  0.25000000  0.75000000  0.75000000  1
  Y  Y34  1  0.75000000  0.25000000  0.75000000  1
  Y  Y35  1  0.50000000  0.50000000  0.00000000  1
  Y  Y36  1  0.00000000  0.50000000  0.50000000  1
  Y  Y37  1  0.50000000  0.00000000  0.50000000  1
  Y  Y38  1  0.75000000  0.75000000  0.75000000  1
  Y  Y39  1  0.75000000  0.75000000  0.25000000  1
  Ge  Ge40  1  0.50000000  0.75000000  0.37500000  1
  Ge  Ge41  1  0.00000000  0.75000000  0.12500000  1
  Ge  Ge42  1  0.37500000  0.00000000  0.25000000  1
  Ge  Ge43  1  0.25000000  0.37500000  0.00000000  1
  Ge  Ge44  1  0.12500000  0.00000000  0.75000000  1
  Ge  Ge45  1  0.75000000  0.12500000  0.00000000  1
  Ge  Ge46  1  0.50000000  0.25000000  0.12500000  1
  Ge  Ge47  1  0.25000000  0.12500000  0.50000000  1
  Ge  Ge48  1  0.75000000  0.37500000  0.50000000  1
  Ge  Ge49  1  0.37500000  0.50000000  0.75000000  1
  Ge  Ge50  1  0.12500000  0.50000000  0.25000000  1
  Ge  Ge51  1  0.00000000  0.25000000  0.37500000  1
  Ge  Ge52  1  0.00000000  0.25000000  0.87500000  1
  Ge  Ge53  1  0.50000000  0.25000000  0.62500000  1
  Ge  Ge54  1  0.87500000  0.50000000  0.75000000  1
  Ge  Ge55  1  0.75000000  0.87500000  0.50000000  1
  Ge  Ge56  1  0.62500000  0.50000000  0.25000000  1
  Ge  Ge57  1  0.25000000  0.62500000  0.50000000  1
  Ge  Ge58  1  0.00000000  0.75000000  0.62500000  1
  Ge  Ge59  1  0.75000000  0.62500000  0.00000000  1
  Ge  Ge60  1  0.25000000  0.87500000  0.00000000  1
  Ge  Ge61  1  0.87500000  0.00000000  0.25000000  1
  Ge  Ge62  1  0.62500000  0.00000000  0.75000000  1
  Ge  Ge63  1  0.50000000  0.75000000  0.87500000  1
  O  O64  1  0.59111500  0.19868500  0.21107200  1
  O  O65  1  0.80131500  0.28892800  0.59111500  1
  O  O66  1  0.78892800  0.90888500  0.19868500  1
  O  O67  1  0.40888500  0.30131500  0.21107200  1
  O  O68  1  0.05131500  0.65888500  0.03892800  1
  O  O69  1  0.30131500  0.21107200  0.40888500  1
  O  O70  1  0.94868500  0.15888500  0.46107200  1
  O  O71  1  0.21107200  0.40888500  0.30131500  1
  O  O72  1  0.05131500  0.34111500  0.46107200  1
  O  O73  1  0.34111500  0.53892800  0.44868500  1
  O  O74  1  0.53892800  0.44868500  0.34111500  1
  O  O75  1  0.03892800  0.05131500  0.65888500  1
  O  O76  1  0.15888500  0.46107200  0.94868500  1
  O  O77  1  0.46107200  0.05131500  0.34111500  1
  O  O78  1  0.65888500  0.03892800  0.05131500  1
  O  O79  1  0.46107200  0.94868500  0.15888500  1
  O  O80  1  0.34111500  0.46107200  0.05131500  1
  O  O81  1  0.59111500  0.80131500  0.28892800  1
  O  O82  1  0.90888500  0.19868500  0.78892800  1
  O  O83  1  0.44868500  0.15888500  0.03892800  1
  O  O84  1  0.19868500  0.78892800  0.90888500  1
  O  O85  1  0.21107200  0.59111500  0.19868500  1
  O  O86  1  0.28892800  0.59111500  0.80131500  1
  O  O87  1  0.44868500  0.34111500  0.53892800  1
  O  O88  1  0.90888500  0.30131500  0.28892800  1
  O  O89  1  0.69868500  0.21107200  0.90888500  1
  O  O90  1  0.71107200  0.59111500  0.30131500  1
  O  O91  1  0.09111500  0.19868500  0.28892800  1
  O  O92  1  0.44868500  0.84111500  0.46107200  1
  O  O93  1  0.19868500  0.28892800  0.09111500  1
  O  O94  1  0.55131500  0.34111500  0.03892800  1
  O  O95  1  0.28892800  0.09111500  0.19868500  1
  O  O96  1  0.05131500  0.15888500  0.96107200  1
  O  O97  1  0.21107200  0.90888500  0.69868500  1
  O  O98  1  0.28892800  0.90888500  0.30131500  1
  O  O99  1  0.30131500  0.28892800  0.90888500  1
  O  O100  1  0.30131500  0.71107200  0.59111500  1
  O  O101  1  0.59111500  0.30131500  0.71107200  1
  O  O102  1  0.90888500  0.69868500  0.21107200  1
  O  O103  1  0.15888500  0.03892800  0.44868500  1
  O  O104  1  0.03892800  0.55131500  0.34111500  1
  O  O105  1  0.84111500  0.46107200  0.44868500  1
  O  O106  1  0.03892800  0.44868500  0.15888500  1
  O  O107  1  0.34111500  0.03892800  0.55131500  1
  O  O108  1  0.46107200  0.44868500  0.84111500  1
  O  O109  1  0.96107200  0.05131500  0.15888500  1
  O  O110  1  0.15888500  0.96107200  0.05131500  1
  O  O111  1  0.19868500  0.21107200  0.59111500  1
  O  O112  1  0.09111500  0.69868500  0.71107200  1
  O  O113  1  0.30131500  0.78892800  0.09111500  1
  O  O114  1  0.28892800  0.40888500  0.69868500  1
  O  O115  1  0.90888500  0.80131500  0.71107200  1
  O  O116  1  0.55131500  0.15888500  0.53892800  1
  O  O117  1  0.80131500  0.71107200  0.90888500  1
  O  O118  1  0.44868500  0.65888500  0.96107200  1
  O  O119  1  0.71107200  0.90888500  0.80131500  1
  O  O120  1  0.55131500  0.84111500  0.96107200  1
  O  O121  1  0.84111500  0.03892800  0.94868500  1
  O  O122  1  0.03892800  0.94868500  0.84111500  1
  O  O123  1  0.53892800  0.55131500  0.15888500  1
  O  O124  1  0.65888500  0.96107200  0.44868500  1
  O  O125  1  0.96107200  0.55131500  0.84111500  1
  O  O126  1  0.15888500  0.53892800  0.55131500  1
  O  O127  1  0.96107200  0.44868500  0.65888500  1
  O  O128  1  0.84111500  0.96107200  0.55131500  1
  O  O129  1  0.09111500  0.30131500  0.78892800  1
  O  O130  1  0.40888500  0.69868500  0.28892800  1
  O  O131  1  0.94868500  0.65888500  0.53892800  1
  O  O132  1  0.69868500  0.28892800  0.40888500  1
  O  O133  1  0.71107200  0.09111500  0.69868500  1
  O  O134  1  0.78892800  0.09111500  0.30131500  1
  O  O135  1  0.94868500  0.84111500  0.03892800  1
  O  O136  1  0.40888500  0.80131500  0.78892800  1
  O  O137  1  0.19868500  0.71107200  0.40888500  1
  O  O138  1  0.21107200  0.09111500  0.80131500  1
  O  O139  1  0.59111500  0.69868500  0.78892800  1
  O  O140  1  0.94868500  0.34111500  0.96107200  1
  O  O141  1  0.69868500  0.78892800  0.59111500  1
  O  O142  1  0.05131500  0.84111500  0.53892800  1
  O  O143  1  0.78892800  0.59111500  0.69868500  1
  O  O144  1  0.55131500  0.65888500  0.46107200  1
  O  O145  1  0.71107200  0.40888500  0.19868500  1
  O  O146  1  0.78892800  0.40888500  0.80131500  1
  O  O147  1  0.80131500  0.78892800  0.40888500  1
  O  O148  1  0.80131500  0.21107200  0.09111500  1
  O  O149  1  0.09111500  0.80131500  0.21107200  1
  O  O150  1  0.40888500  0.19868500  0.71107200  1
  O  O151  1  0.65888500  0.53892800  0.94868500  1
  O  O152  1  0.53892800  0.05131500  0.84111500  1
  O  O153  1  0.34111500  0.96107200  0.94868500  1
  O  O154  1  0.53892800  0.94868500  0.65888500  1
  O  O155  1  0.84111500  0.53892800  0.05131500  1
  O  O156  1  0.96107200  0.94868500  0.34111500  1
  O  O157  1  0.46107200  0.55131500  0.65888500  1
  O  O158  1  0.65888500  0.46107200  0.55131500  1
  O  O159  1  0.69868500  0.71107200  0.09111500  1
