# generated using pymatgen
data_RbSc5Te8
_symmetry_space_group_name_H-M   'P 1'
_cell_length_a   21.55975200
_cell_length_b   4.17808800
_cell_length_c   10.35527420
_cell_angle_alpha   90.00000000
_cell_angle_beta   104.46245766
_cell_angle_gamma   90.00000000
_symmetry_Int_Tables_number   1
_chemical_formula_structural   RbSc5Te8
_chemical_formula_sum   'Rb2 Sc10 Te16'
_cell_volume   903.22933204
_cell_formula_units_Z   2
loop_
 _symmetry_equiv_pos_site_id
 _symmetry_equiv_pos_as_xyz
  1  'x, y, z'
loop_
 _atom_site_type_symbol
 _atom_site_label
 _atom_site_symmetry_multiplicity
 _atom_site_fract_x
 _atom_site_fract_y
 _atom_site_fract_z
 _atom_site_occupancy
  Rb  Rb0  1  0.00000000  0.00000000  0.00000000  1
  Rb  Rb1  1  0.50000000  0.50000000  0.00000000  1
  Sc  Sc2  1  0.20554900  0.00000000  0.84405800  1
  Sc  Sc3  1  0.00000000  0.50000000  0.50000000  1
  Sc  Sc4  1  0.34419600  0.50000000  0.52170100  1
  Sc  Sc5  1  0.15580400  0.00000000  0.47829900  1
  Sc  Sc6  1  0.29445100  0.50000000  0.15594200  1
  Sc  Sc7  1  0.70554900  0.50000000  0.84405800  1
  Sc  Sc8  1  0.50000000  0.00000000  0.50000000  1
  Sc  Sc9  1  0.84419600  0.00000000  0.52170100  1
  Sc  Sc10  1  0.65580400  0.50000000  0.47829900  1
  Sc  Sc11  1  0.79445100  0.00000000  0.15594200  1
  Te  Te12  1  0.42493200  0.50000000  0.33464600  1
  Te  Te13  1  0.07506800  0.00000000  0.66535400  1
  Te  Te14  1  0.08451600  0.50000000  0.31604400  1
  Te  Te15  1  0.41548400  0.00000000  0.68395600  1
  Te  Te16  1  0.16471800  0.50000000  0.99668800  1
  Te  Te17  1  0.33528200  0.00000000  0.00331200  1
  Te  Te18  1  0.23822300  0.50000000  0.65832500  1
  Te  Te19  1  0.26177700  0.00000000  0.34167500  1
  Te  Te20  1  0.92493200  0.00000000  0.33464600  1
  Te  Te21  1  0.57506800  0.50000000  0.66535400  1
  Te  Te22  1  0.58451600  0.00000000  0.31604400  1
  Te  Te23  1  0.91548400  0.50000000  0.68395600  1
  Te  Te24  1  0.66471800  0.00000000  0.99668800  1
  Te  Te25  1  0.83528200  0.50000000  0.00331200  1
  Te  Te26  1  0.73822300  0.00000000  0.65832500  1
  Te  Te27  1  0.76177700  0.50000000  0.34167500  1
