# generated using pymatgen
data_K2Ga3CuSe6
_symmetry_space_group_name_H-M   'P 1'
_cell_length_a   11.18338000
_cell_length_b   11.21006000
_cell_length_c   21.14358850
_cell_angle_alpha   90.00000000
_cell_angle_beta   97.61401209
_cell_angle_gamma   90.00000000
_symmetry_Int_Tables_number   1
_chemical_formula_structural   K2Ga3CuSe6
_chemical_formula_sum   'K16 Ga24 Cu8 Se48'
_cell_volume   2627.32401026
_cell_formula_units_Z   8
loop_
 _symmetry_equiv_pos_site_id
 _symmetry_equiv_pos_as_xyz
  1  'x, y, z'
loop_
 _atom_site_type_symbol
 _atom_site_label
 _atom_site_symmetry_multiplicity
 _atom_site_fract_x
 _atom_site_fract_y
 _atom_site_fract_z
 _atom_site_occupancy
  K  K0  1  0.58521700  0.80788800  0.58019300  1
  K  K1  1  0.17004750  0.93389050  0.41955500  1
  K  K2  1  0.17004750  0.06610950  0.91955500  1
  K  K3  1  0.82995250  0.06610950  0.58044500  1
  K  K4  1  0.58521700  0.19211200  0.08019300  1
  K  K5  1  0.41478300  0.19211200  0.41980700  1
  K  K6  1  0.82995250  0.93389050  0.08044500  1
  K  K7  1  0.41478300  0.80788800  0.91980700  1
  K  K8  1  0.08521700  0.30788800  0.58019300  1
  K  K9  1  0.67004750  0.43389050  0.41955500  1
  K  K10  1  0.67004750  0.56610950  0.91955500  1
  K  K11  1  0.32995250  0.56610950  0.58044500  1
  K  K12  1  0.08521700  0.69211200  0.08019300  1
  K  K13  1  0.91478300  0.69211200  0.41980700  1
  K  K14  1  0.32995250  0.43389050  0.08044500  1
  K  K15  1  0.91478300  0.30788800  0.91980700  1
  Ga  Ga16  1  0.21777550  0.06320750  0.12070900  1
  Ga  Ga17  1  0.78222450  0.93679250  0.87929100  1
  Ga  Ga18  1  0.78222450  0.06320750  0.37929100  1
  Ga  Ga19  1  0.53299500  0.18689100  0.88031000  1
  Ga  Ga20  1  0.46700500  0.18689100  0.61969000  1
  Ga  Ga21  1  0.46700500  0.81310900  0.11969000  1
  Ga  Ga22  1  0.53299500  0.81310900  0.38031000  1
  Ga  Ga23  1  0.50000000  0.94204500  0.75000000  1
  Ga  Ga24  1  0.50000000  0.05795500  0.25000000  1
  Ga  Ga25  1  0.50000000  0.43168300  0.75000000  1
  Ga  Ga26  1  0.21777550  0.93679250  0.62070900  1
  Ga  Ga27  1  0.50000000  0.56831700  0.25000000  1
  Ga  Ga28  1  0.71777550  0.56320750  0.12070900  1
  Ga  Ga29  1  0.28222450  0.43679250  0.87929100  1
  Ga  Ga30  1  0.28222450  0.56320750  0.37929100  1
  Ga  Ga31  1  0.03299500  0.68689100  0.88031000  1
  Ga  Ga32  1  0.96700500  0.68689100  0.61969000  1
  Ga  Ga33  1  0.96700500  0.31310900  0.11969000  1
  Ga  Ga34  1  0.03299500  0.31310900  0.38031000  1
  Ga  Ga35  1  0.00000000  0.44204500  0.75000000  1
  Ga  Ga36  1  0.00000000  0.55795500  0.25000000  1
  Ga  Ga37  1  0.00000000  0.93168300  0.75000000  1
  Ga  Ga38  1  0.71777550  0.43679250  0.62070900  1
  Ga  Ga39  1  0.00000000  0.06831700  0.25000000  1
  Cu  Cu40  1  0.25116900  0.18666100  0.75021900  1
  Cu  Cu41  1  0.74883100  0.18666100  0.74978100  1
  Cu  Cu42  1  0.74883100  0.81333900  0.24978100  1
  Cu  Cu43  1  0.25116900  0.81333900  0.25021900  1
  Cu  Cu44  1  0.75116900  0.68666100  0.75021900  1
  Cu  Cu45  1  0.24883100  0.68666100  0.74978100  1
  Cu  Cu46  1  0.24883100  0.31333900  0.24978100  1
  Cu  Cu47  1  0.75116900  0.31333900  0.25021900  1
  Se  Se48  1  0.64927050  0.31691550  0.81935000  1
  Se  Se49  1  0.41106250  0.70133650  0.44926500  1
  Se  Se50  1  0.41106250  0.29866350  0.94926500  1
  Se  Se51  1  0.58893750  0.29866350  0.55073500  1
  Se  Se52  1  0.38585650  0.94351750  0.31967200  1
  Se  Se53  1  0.61414350  0.94351750  0.18032800  1
  Se  Se54  1  0.61414350  0.05648250  0.68032800  1
  Se  Se55  1  0.38585650  0.05648250  0.81967200  1
  Se  Se56  1  0.31090700  0.92507600  0.05045100  1
  Se  Se57  1  0.68909300  0.92507600  0.44954900  1
  Se  Se58  1  0.68909300  0.07492400  0.94954900  1
  Se  Se59  1  0.31090700  0.07492400  0.55045100  1
  Se  Se60  1  0.10171600  0.93374900  0.18239600  1
  Se  Se61  1  0.89828400  0.93374900  0.31760400  1
  Se  Se62  1  0.89828400  0.06625100  0.81760400  1
  Se  Se63  1  0.10171600  0.06625100  0.68239600  1
  Se  Se64  1  0.35072950  0.31691550  0.68065000  1
  Se  Se65  1  0.35072950  0.68308450  0.18065000  1
  Se  Se66  1  0.64927050  0.68308450  0.31935000  1
  Se  Se67  1  0.36471850  0.80738950  0.68236900  1
  Se  Se68  1  0.63528150  0.80738950  0.81763100  1
  Se  Se69  1  0.63528150  0.19261050  0.31763100  1
  Se  Se70  1  0.36471850  0.19261050  0.18236900  1
  Se  Se71  1  0.58893750  0.70133650  0.05073500  1
  Se  Se72  1  0.14927050  0.81691550  0.81935000  1
  Se  Se73  1  0.91106250  0.20133650  0.44926500  1
  Se  Se74  1  0.91106250  0.79866350  0.94926500  1
  Se  Se75  1  0.08893750  0.79866350  0.55073500  1
  Se  Se76  1  0.88585650  0.44351750  0.31967200  1
  Se  Se77  1  0.11414350  0.44351750  0.18032800  1
  Se  Se78  1  0.11414350  0.55648250  0.68032800  1
  Se  Se79  1  0.88585650  0.55648250  0.81967200  1
  Se  Se80  1  0.81090700  0.42507600  0.05045100  1
  Se  Se81  1  0.18909300  0.42507600  0.44954900  1
  Se  Se82  1  0.18909300  0.57492400  0.94954900  1
  Se  Se83  1  0.81090700  0.57492400  0.55045100  1
  Se  Se84  1  0.60171600  0.43374900  0.18239600  1
  Se  Se85  1  0.39828400  0.43374900  0.31760400  1
  Se  Se86  1  0.39828400  0.56625100  0.81760400  1
  Se  Se87  1  0.60171600  0.56625100  0.68239600  1
  Se  Se88  1  0.85072950  0.81691550  0.68065000  1
  Se  Se89  1  0.85072950  0.18308450  0.18065000  1
  Se  Se90  1  0.14927050  0.18308450  0.31935000  1
  Se  Se91  1  0.86471850  0.30738950  0.68236900  1
  Se  Se92  1  0.13528150  0.30738950  0.81763100  1
  Se  Se93  1  0.13528150  0.69261050  0.31763100  1
  Se  Se94  1  0.86471850  0.69261050  0.18236900  1
  Se  Se95  1  0.08893750  0.20133650  0.05073500  1
