# generated using pymatgen
data_La2MoO6
_symmetry_space_group_name_H-M   'P 1'
_cell_length_a   5.83385800
_cell_length_b   5.83385800
_cell_length_c   32.39336600
_cell_angle_alpha   90.00000000
_cell_angle_beta   90.00000000
_cell_angle_gamma   90.00000000
_symmetry_Int_Tables_number   1
_chemical_formula_structural   La2MoO6
_chemical_formula_sum   'La16 Mo8 O48'
_cell_volume   1102.47255203
_cell_formula_units_Z   8
loop_
 _symmetry_equiv_pos_site_id
 _symmetry_equiv_pos_as_xyz
  1  'x, y, z'
loop_
 _atom_site_type_symbol
 _atom_site_label
 _atom_site_symmetry_multiplicity
 _atom_site_fract_x
 _atom_site_fract_y
 _atom_site_fract_z
 _atom_site_occupancy
  La  La0  1  0.00000000  0.00000000  0.33688500  1
  La  La1  1  0.50000000  0.00000000  0.08688500  1
  La  La2  1  0.00000000  0.50000000  0.41311500  1
  La  La3  1  0.00000000  0.00000000  0.16311500  1
  La  La4  1  0.50000000  0.00000000  0.41311500  1
  La  La5  1  0.50000000  0.50000000  0.16311500  1
  La  La6  1  0.50000000  0.50000000  0.33688500  1
  La  La7  1  0.00000000  0.50000000  0.08688500  1
  La  La8  1  0.50000000  0.50000000  0.83688500  1
  La  La9  1  0.00000000  0.50000000  0.58688500  1
  La  La10  1  0.50000000  0.00000000  0.91311500  1
  La  La11  1  0.50000000  0.50000000  0.66311500  1
  La  La12  1  0.00000000  0.50000000  0.91311500  1
  La  La13  1  0.00000000  0.00000000  0.66311500  1
  La  La14  1  0.00000000  0.00000000  0.83688500  1
  La  La15  1  0.50000000  0.00000000  0.58688500  1
  Mo  Mo16  1  0.50000000  0.50000000  0.00000000  1
  Mo  Mo17  1  0.50000000  0.00000000  0.25000000  1
  Mo  Mo18  1  0.00000000  0.50000000  0.25000000  1
  Mo  Mo19  1  0.00000000  0.00000000  0.00000000  1
  Mo  Mo20  1  0.00000000  0.00000000  0.50000000  1
  Mo  Mo21  1  0.00000000  0.50000000  0.75000000  1
  Mo  Mo22  1  0.50000000  0.00000000  0.75000000  1
  Mo  Mo23  1  0.50000000  0.50000000  0.50000000  1
  O  O24  1  0.75000000  0.24369200  0.12500000  1
  O  O25  1  0.75630800  0.25000000  0.37500000  1
  O  O26  1  0.24369200  0.75000000  0.37500000  1
  O  O27  1  0.25000000  0.75630800  0.12500000  1
  O  O28  1  0.25000000  0.25630800  0.12500000  1
  O  O29  1  0.74369200  0.75000000  0.37500000  1
  O  O30  1  0.25630800  0.25000000  0.37500000  1
  O  O31  1  0.75000000  0.74369200  0.12500000  1
  O  O32  1  0.16810300  0.33000100  0.28570500  1
  O  O33  1  0.33000100  0.16810300  0.21429500  1
  O  O34  1  0.66999900  0.83189700  0.21429500  1
  O  O35  1  0.16810300  0.16999900  0.46429500  1
  O  O36  1  0.66810300  0.33000100  0.46429500  1
  O  O37  1  0.16999900  0.66810300  0.21429500  1
  O  O38  1  0.83000100  0.33189700  0.21429500  1
  O  O39  1  0.66810300  0.16999900  0.28570500  1
  O  O40  1  0.33189700  0.83000100  0.28570500  1
  O  O41  1  0.33000100  0.66810300  0.03570500  1
  O  O42  1  0.66999900  0.33189700  0.03570500  1
  O  O43  1  0.33189700  0.66999900  0.46429500  1
  O  O44  1  0.83189700  0.66999900  0.28570500  1
  O  O45  1  0.83000100  0.83189700  0.03570500  1
  O  O46  1  0.16999900  0.16810300  0.03570500  1
  O  O47  1  0.83189700  0.83000100  0.46429500  1
  O  O48  1  0.25000000  0.74369200  0.62500000  1
  O  O49  1  0.25630800  0.75000000  0.87500000  1
  O  O50  1  0.74369200  0.25000000  0.87500000  1
  O  O51  1  0.75000000  0.25630800  0.62500000  1
  O  O52  1  0.75000000  0.75630800  0.62500000  1
  O  O53  1  0.24369200  0.25000000  0.87500000  1
  O  O54  1  0.75630800  0.75000000  0.87500000  1
  O  O55  1  0.25000000  0.24369200  0.62500000  1
  O  O56  1  0.66810300  0.83000100  0.78570500  1
  O  O57  1  0.83000100  0.66810300  0.71429500  1
  O  O58  1  0.16999900  0.33189700  0.71429500  1
  O  O59  1  0.66810300  0.66999900  0.96429500  1
  O  O60  1  0.16810300  0.83000100  0.96429500  1
  O  O61  1  0.66999900  0.16810300  0.71429500  1
  O  O62  1  0.33000100  0.83189700  0.71429500  1
  O  O63  1  0.16810300  0.66999900  0.78570500  1
  O  O64  1  0.83189700  0.33000100  0.78570500  1
  O  O65  1  0.83000100  0.16810300  0.53570500  1
  O  O66  1  0.16999900  0.83189700  0.53570500  1
  O  O67  1  0.83189700  0.16999900  0.96429500  1
  O  O68  1  0.33189700  0.16999900  0.78570500  1
  O  O69  1  0.33000100  0.33189700  0.53570500  1
  O  O70  1  0.66999900  0.66810300  0.53570500  1
  O  O71  1  0.33189700  0.33000100  0.96429500  1
