# generated using pymatgen
data_Sm3NbS3O4
_symmetry_space_group_name_H-M   'P 1'
_cell_length_a   6.73897800
_cell_length_b   7.72392500
_cell_length_c   14.36753900
_cell_angle_alpha   90.00000000
_cell_angle_beta   90.00000000
_cell_angle_gamma   90.00000000
_symmetry_Int_Tables_number   1
_chemical_formula_structural   Sm3NbS3O4
_chemical_formula_sum   'Sm12 Nb4 S12 O16'
_cell_volume   747.84995412
_cell_formula_units_Z   4
loop_
 _symmetry_equiv_pos_site_id
 _symmetry_equiv_pos_as_xyz
  1  'x, y, z'
loop_
 _atom_site_type_symbol
 _atom_site_label
 _atom_site_symmetry_multiplicity
 _atom_site_fract_x
 _atom_site_fract_y
 _atom_site_fract_z
 _atom_site_occupancy
  Sm  Sm0  1  0.72885500  0.49524100  0.16905400  1
  Sm  Sm1  1  0.27114500  0.99524100  0.83094600  1
  Sm  Sm2  1  0.77114500  0.99524100  0.66905400  1
  Sm  Sm3  1  0.22885500  0.49524100  0.33094600  1
  Sm  Sm4  1  0.71692500  0.00585700  0.15549800  1
  Sm  Sm5  1  0.28307500  0.50585700  0.84450200  1
  Sm  Sm6  1  0.78307500  0.50585700  0.65549800  1
  Sm  Sm7  1  0.21692500  0.00585700  0.34450200  1
  Sm  Sm8  1  0.27802800  0.74949700  0.08234900  1
  Sm  Sm9  1  0.72197200  0.24949700  0.91765100  1
  Sm  Sm10  1  0.22197200  0.24949700  0.58234900  1
  Sm  Sm11  1  0.77802800  0.74949700  0.41765100  1
  Nb  Nb12  1  0.32120700  0.26470800  0.07347600  1
  Nb  Nb13  1  0.67879300  0.76470800  0.92652400  1
  Nb  Nb14  1  0.17879300  0.76470800  0.57347600  1
  Nb  Nb15  1  0.82120700  0.26470800  0.42652400  1
  S  S16  1  0.50208800  0.76064600  0.27263900  1
  S  S17  1  0.49791200  0.26064600  0.72736100  1
  S  S18  1  0.99791200  0.26064600  0.77263900  1
  S  S19  1  0.00208800  0.76064600  0.22736100  1
  S  S20  1  0.54907300  0.23949800  0.29867000  1
  S  S21  1  0.45092700  0.73949800  0.70133000  1
  S  S22  1  0.95092700  0.73949800  0.79867000  1
  S  S23  1  0.04907300  0.23949800  0.20133000  1
  S  S24  1  0.46753900  0.96964900  0.50844200  1
  S  S25  1  0.53246100  0.46964900  0.49155800  1
  S  S26  1  0.03246100  0.46964900  0.00844200  1
  S  S27  1  0.96753900  0.96964900  0.99155800  1
  O  O28  1  0.63449400  0.26358400  0.07339700  1
  O  O29  1  0.36550600  0.76358400  0.92660300  1
  O  O30  1  0.86550600  0.76358400  0.57339700  1
  O  O31  1  0.13449400  0.26358400  0.42660300  1
  O  O32  1  0.38167200  0.47890800  0.13870000  1
  O  O33  1  0.61832800  0.97890800  0.86130000  1
  O  O34  1  0.11832800  0.97890800  0.63870000  1
  O  O35  1  0.88167200  0.47890800  0.36130000  1
  O  O36  1  0.37562300  0.02992500  0.11279100  1
  O  O37  1  0.62437700  0.52992500  0.88720900  1
  O  O38  1  0.12437700  0.52992500  0.61279100  1
  O  O39  1  0.87562300  0.02992500  0.38720900  1
  O  O40  1  0.35821200  0.24268900  0.93775900  1
  O  O41  1  0.64178800  0.74268900  0.06224100  1
  O  O42  1  0.14178800  0.74268900  0.43775900  1
  O  O43  1  0.85821200  0.24268900  0.56224100  1
