# generated using pymatgen
data_Mg(NO3)2
_symmetry_space_group_name_H-M   'P 1'
_cell_length_a   10.70355992
_cell_length_b   10.70355992
_cell_length_c   39.54836766
_cell_angle_alpha   90.00000000
_cell_angle_beta   90.00000000
_cell_angle_gamma   120.00000000
_symmetry_Int_Tables_number   1
_chemical_formula_structural   Mg(NO3)2
_chemical_formula_sum   'Mg36 N72 O216'
_cell_volume   3923.87969966
_cell_formula_units_Z   36
loop_
 _symmetry_equiv_pos_site_id
 _symmetry_equiv_pos_as_xyz
  1  'x, y, z'
loop_
 _atom_site_type_symbol
 _atom_site_label
 _atom_site_symmetry_multiplicity
 _atom_site_fract_x
 _atom_site_fract_y
 _atom_site_fract_z
 _atom_site_occupancy
  Mg  Mg0  1  0.00000000  0.50000000  0.00000000  1
  Mg  Mg1  1  0.50000000  0.00000000  0.00000000  1
  Mg  Mg2  1  0.50000000  0.50000000  0.00000000  1
  Mg  Mg3  1  0.00000000  0.00000000  0.00000000  1
  Mg  Mg4  1  0.16767133  0.83676767  0.10872167  1
  Mg  Mg5  1  0.66909633  0.83232867  0.10872167  1
  Mg  Mg6  1  0.16323233  0.33090367  0.10872167  1
  Mg  Mg7  1  0.49899533  0.49656567  0.22461167  1
  Mg  Mg8  1  0.99757033  0.50100467  0.22461167  1
  Mg  Mg9  1  0.50343433  0.00242967  0.22461167  1
  Mg  Mg10  1  0.66666667  0.33333333  0.12090633  1
  Mg  Mg11  1  0.00000000  0.00000000  0.21242700  1
  Mg  Mg12  1  0.66666667  0.83333333  0.33333333  1
  Mg  Mg13  1  0.16666667  0.33333333  0.33333333  1
  Mg  Mg14  1  0.16666667  0.83333333  0.33333333  1
  Mg  Mg15  1  0.66666667  0.33333333  0.33333333  1
  Mg  Mg16  1  0.83433800  0.17010100  0.44205500  1
  Mg  Mg17  1  0.33576300  0.16566200  0.44205500  1
  Mg  Mg18  1  0.82989900  0.66423700  0.44205500  1
  Mg  Mg19  1  0.16566200  0.82989900  0.55794500  1
  Mg  Mg20  1  0.66423700  0.83433800  0.55794500  1
  Mg  Mg21  1  0.17010100  0.33576300  0.55794500  1
  Mg  Mg22  1  0.33333333  0.66666667  0.45423967  1
  Mg  Mg23  1  0.66666667  0.33333333  0.54576033  1
  Mg  Mg24  1  0.33333333  0.16666667  0.66666667  1
  Mg  Mg25  1  0.83333333  0.66666667  0.66666667  1
  Mg  Mg26  1  0.83333333  0.16666667  0.66666667  1
  Mg  Mg27  1  0.33333333  0.66666667  0.66666667  1
  Mg  Mg28  1  0.50100467  0.50343433  0.77538833  1
  Mg  Mg29  1  0.00242967  0.49899533  0.77538833  1
  Mg  Mg30  1  0.49656567  0.99757033  0.77538833  1
  Mg  Mg31  1  0.83232867  0.16323233  0.89127833  1
  Mg  Mg32  1  0.33090367  0.16767133  0.89127833  1
  Mg  Mg33  1  0.83676767  0.66909633  0.89127833  1
  Mg  Mg34  1  0.00000000  0.00000000  0.78757300  1
  Mg  Mg35  1  0.33333333  0.66666667  0.87909367  1
  N  N36  1  0.33333333  0.66666667  0.01507267  1
  N  N37  1  0.33333333  0.66666667  0.31826067  1
  N  N38  1  0.04786933  0.77032267  0.03586167  1
  N  N39  1  0.72245333  0.95213067  0.03586167  1
  N  N40  1  0.22967733  0.27754667  0.03586167  1
  N  N41  1  0.61879733  0.56301067  0.29747167  1
  N  N42  1  0.94421333  0.38120267  0.29747167  1
  N  N43  1  0.43698933  0.05578667  0.29747167  1
  N  N44  1  0.00000000  0.00000000  0.10490900  1
  N  N45  1  0.66666667  0.33333333  0.22842433  1
  N  N46  1  0.33333333  0.66666667  0.11268967  1
  N  N47  1  0.33333333  0.66666667  0.22064367  1
  N  N48  1  0.92208633  0.37401267  0.07292167  1
  N  N49  1  0.45192633  0.07791367  0.07292167  1
  N  N50  1  0.62598733  0.54807367  0.07292167  1
  N  N51  1  0.74458033  0.95932067  0.26041167  1
  N  N52  1  0.21474033  0.25541967  0.26041167  1
  N  N53  1  0.04067933  0.78525967  0.26041167  1
  N  N54  1  0.94452633  0.58824667  0.15589567  1
  N  N55  1  0.64372033  0.05547367  0.15589567  1
  N  N56  1  0.41175333  0.35627967  0.15589567  1
  N  N57  1  0.72214033  0.74508667  0.17743767  1
  N  N58  1  0.02294633  0.27785967  0.17743767  1
  N  N59  1  0.25491333  0.97705367  0.17743767  1
  N  N60  1  0.00000000  0.00000000  0.34840600  1
  N  N61  1  0.00000000  0.00000000  0.65159400  1
  N  N62  1  0.71453600  0.10365600  0.36919500  1
  N  N63  1  0.38912000  0.28546400  0.36919500  1
  N  N64  1  0.89634400  0.61088000  0.36919500  1
  N  N65  1  0.28546400  0.89634400  0.63080500  1
  N  N66  1  0.61088000  0.71453600  0.63080500  1
  N  N67  1  0.10365600  0.38912000  0.63080500  1
  N  N68  1  0.66666667  0.33333333  0.43824233  1
  N  N69  1  0.33333333  0.66666667  0.56175767  1
  N  N70  1  0.00000000  0.00000000  0.44602300  1
  N  N71  1  0.00000000  0.00000000  0.55397700  1
  N  N72  1  0.58875300  0.70734600  0.40625500  1
  N  N73  1  0.11859300  0.41124700  0.40625500  1
  N  N74  1  0.29265400  0.88140700  0.40625500  1
  N  N75  1  0.41124700  0.29265400  0.59374500  1
  N  N76  1  0.88140700  0.58875300  0.59374500  1
  N  N77  1  0.70734600  0.11859300  0.59374500  1
  N  N78  1  0.61119300  0.92158000  0.48922900  1
  N  N79  1  0.31038700  0.38880700  0.48922900  1
  N  N80  1  0.07842000  0.68961300  0.48922900  1
  N  N81  1  0.38880700  0.07842000  0.51077100  1
  N  N82  1  0.68961300  0.61119300  0.51077100  1
  N  N83  1  0.92158000  0.31038700  0.51077100  1
  N  N84  1  0.66666667  0.33333333  0.68173933  1
  N  N85  1  0.66666667  0.33333333  0.98492733  1
  N  N86  1  0.38120267  0.43698933  0.70252833  1
  N  N87  1  0.05578667  0.61879733  0.70252833  1
  N  N88  1  0.56301067  0.94421333  0.70252833  1
  N  N89  1  0.95213067  0.22967733  0.96413833  1
  N  N90  1  0.27754667  0.04786933  0.96413833  1
  N  N91  1  0.77032267  0.72245333  0.96413833  1
  N  N92  1  0.33333333  0.66666667  0.77157567  1
  N  N93  1  0.00000000  0.00000000  0.89509100  1
  N  N94  1  0.66666667  0.33333333  0.77935633  1
  N  N95  1  0.66666667  0.33333333  0.88731033  1
  N  N96  1  0.25541967  0.04067933  0.73958833  1
  N  N97  1  0.78525967  0.74458033  0.73958833  1
  N  N98  1  0.95932067  0.21474033  0.73958833  1
  N  N99  1  0.07791367  0.62598733  0.92707833  1
  N  N100  1  0.54807367  0.92208633  0.92707833  1
  N  N101  1  0.37401267  0.45192633  0.92707833  1
  N  N102  1  0.27785967  0.25491333  0.82256233  1
  N  N103  1  0.97705367  0.72214033  0.82256233  1
  N  N104  1  0.74508667  0.02294633  0.82256233  1
  N  N105  1  0.05547367  0.41175333  0.84410433  1
  N  N106  1  0.35627967  0.94452633  0.84410433  1
  N  N107  1  0.58824667  0.64372033  0.84410433  1
  O  O108  1  0.21244667  0.55165933  0.01538833  1
  O  O109  1  0.33921267  0.78755333  0.01538833  1
  O  O110  1  0.44834067  0.66078733  0.01538833  1
  O  O111  1  0.45422000  0.78167400  0.31794500  1
  O  O112  1  0.32745400  0.54578000  0.31794500  1
  O  O113  1  0.21832600  0.67254600  0.31794500  1
  O  O114  1  0.06943733  0.72102567  0.06283267  1
  O  O115  1  0.65158833  0.93056267  0.06283267  1
  O  O116  1  0.27897433  0.34841167  0.06283267  1
  O  O117  1  0.59722933  0.61230767  0.27050067  1
  O  O118  1  0.01507833  0.40277067  0.27050067  1
  O  O119  1  0.38769233  0.98492167  0.27050067  1
  O  O120  1  0.05602833  0.89175467  0.03583267  1
  O  O121  1  0.83572633  0.94397167  0.03583267  1
  O  O122  1  0.10824533  0.16427367  0.03583267  1
  O  O123  1  0.61063833  0.44157867  0.29750067  1
  O  O124  1  0.83094033  0.38936167  0.29750067  1
  O  O125  1  0.55842133  0.16905967  0.29750067  1
  O  O126  1  0.01764033  0.69835067  0.00878867  1
  O  O127  1  0.68071033  0.98235967  0.00878867  1
  O  O128  1  0.30164933  0.31928967  0.00878867  1
  O  O129  1  0.64902633  0.63498267  0.32454467  1
  O  O130  1  0.98595633  0.35097367  0.32454467  1
  O  O131  1  0.36501733  0.01404367  0.32454467  1
  O  O132  1  0.88414733  0.88006167  0.10483867  1
  O  O133  1  0.99591433  0.11585267  0.10483867  1
  O  O134  1  0.11993833  0.00408567  0.10483867  1
  O  O135  1  0.78251933  0.45327167  0.22849467  1
  O  O136  1  0.67075233  0.21748067  0.22849467  1
  O  O137  1  0.54672833  0.32924767  0.22849467  1
  O  O138  1  0.21529967  0.66646233  0.11271433  1
  O  O139  1  0.45116267  0.78470033  0.11271433  1
  O  O140  1  0.33353767  0.54883733  0.11271433  1
  O  O141  1  0.45136700  0.66687100  0.22061900  1
  O  O142  1  0.21550400  0.54863300  0.22061900  1
  O  O143  1  0.33312900  0.78449600  0.22061900  1
  O  O144  1  0.04318533  0.38064167  0.07376467  1
  O  O145  1  0.33745633  0.95681467  0.07376467  1
  O  O146  1  0.61935833  0.66254367  0.07376467  1
  O  O147  1  0.62348133  0.95269167  0.25956867  1
  O  O148  1  0.32921033  0.37651867  0.25956867  1
  O  O149  1  0.04730833  0.67078967  0.25956867  1
  O  O150  1  0.84023700  0.32885900  0.09840500  1
  O  O151  1  0.48862200  0.15976300  0.09840500  1
  O  O152  1  0.67114100  0.51137800  0.09840500  1
  O  O153  1  0.82642967  0.00447433  0.23492833  1
  O  O154  1  0.17804467  0.17357033  0.23492833  1
  O  O155  1  0.99552567  0.82195533  0.23492833  1
  O  O156  1  0.88325700  0.41165200  0.04648800  1
  O  O157  1  0.52839500  0.11674300  0.04648800  1
  O  O158  1  0.58834800  0.47160500  0.04648800  1
  O  O159  1  0.78340967  0.92168133  0.28684533  1
  O  O160  1  0.13827167  0.21659033  0.28684533  1
  O  O161  1  0.07831867  0.86172833  0.28684533  1
  O  O162  1  0.97290533  0.67056967  0.13075167  1
  O  O163  1  0.69766433  0.02709467  0.13075167  1
  O  O164  1  0.32943033  0.30233567  0.13075167  1
  O  O165  1  0.69376133  0.66276367  0.20258167  1
  O  O166  1  0.96900233  0.30623867  0.20258167  1
  O  O167  1  0.33723633  0.03099767  0.20258167  1
  O  O168  1  0.82880833  0.46821367  0.15680467  1
  O  O169  1  0.63940533  0.17119167  0.15680467  1
  O  O170  1  0.53178633  0.36059467  0.15680467  1
  O  O171  1  0.83785833  0.86511967  0.17652867  1
  O  O172  1  0.02726133  0.16214167  0.17652867  1
  O  O173  1  0.13488033  0.97273867  0.17652867  1
  O  O174  1  0.03102200  0.62602200  0.18069900  1
  O  O175  1  0.59500000  0.96897800  0.18069900  1
  O  O176  1  0.37397800  0.40500000  0.18069900  1
  O  O177  1  0.63564467  0.70731133  0.15263433  1
  O  O178  1  0.07166667  0.36435533  0.15263433  1
  O  O179  1  0.29268867  0.92833333  0.15263433  1
  O  O180  1  0.87911333  0.88499267  0.34872167  1
  O  O181  1  0.00587933  0.12088667  0.34872167  1
  O  O182  1  0.11500733  0.99412067  0.34872167  1
  O  O183  1  0.12088667  0.11500733  0.65127833  1
  O  O184  1  0.99412067  0.87911333  0.65127833  1
  O  O185  1  0.88499267  0.00587933  0.65127833  1
  O  O186  1  0.73610400  0.05435900  0.39616600  1
  O  O187  1  0.31825500  0.26389600  0.39616600  1
  O  O188  1  0.94564100  0.68174500  0.39616600  1
  O  O189  1  0.26389600  0.94564100  0.60383400  1
  O  O190  1  0.68174500  0.73610400  0.60383400  1
  O  O191  1  0.05435900  0.31825500  0.60383400  1
  O  O192  1  0.72269500  0.22508800  0.36916600  1
  O  O193  1  0.50239300  0.27730500  0.36916600  1
  O  O194  1  0.77491200  0.49760700  0.36916600  1
  O  O195  1  0.27730500  0.77491200  0.63083400  1
  O  O196  1  0.49760700  0.72269500  0.63083400  1
  O  O197  1  0.22508800  0.50239300  0.63083400  1
  O  O198  1  0.68430700  0.03168400  0.34212200  1
  O  O199  1  0.34737700  0.31569300  0.34212200  1
  O  O200  1  0.96831600  0.65262300  0.34212200  1
  O  O201  1  0.31569300  0.96831600  0.65787800  1
  O  O202  1  0.65262300  0.68430700  0.65787800  1
  O  O203  1  0.03168400  0.34737700  0.65787800  1
  O  O204  1  0.55081400  0.21339500  0.43817200  1
  O  O205  1  0.66258100  0.44918600  0.43817200  1
  O  O206  1  0.78660500  0.33741900  0.43817200  1
  O  O207  1  0.44918600  0.78660500  0.56182800  1
  O  O208  1  0.33741900  0.55081400  0.56182800  1
  O  O209  1  0.21339500  0.66258100  0.56182800  1
  O  O210  1  0.88196633  0.99979567  0.44604767  1
  O  O211  1  0.11782933  0.11803367  0.44604767  1
  O  O212  1  0.00020433  0.88217067  0.44604767  1
  O  O213  1  0.11803367  0.00020433  0.55395233  1
  O  O214  1  0.88217067  0.88196633  0.55395233  1
  O  O215  1  0.99979567  0.11782933  0.55395233  1
  O  O216  1  0.70985200  0.71397500  0.40709800  1
  O  O217  1  0.00412300  0.29014800  0.40709800  1
  O  O218  1  0.28602500  0.99587700  0.40709800  1
  O  O219  1  0.29014800  0.28602500  0.59290200  1
  O  O220  1  0.99587700  0.70985200  0.59290200  1
  O  O221  1  0.71397500  0.00412300  0.59290200  1
  O  O222  1  0.50690367  0.66219233  0.43173833  1
  O  O223  1  0.15528867  0.49309633  0.43173833  1
  O  O224  1  0.33780767  0.84471133  0.43173833  1
  O  O225  1  0.49309633  0.33780767  0.56826167  1
  O  O226  1  0.84471133  0.50690367  0.56826167  1
  O  O227  1  0.66219233  0.15528867  0.56826167  1
  O  O228  1  0.54992367  0.74498533  0.37982133  1
  O  O229  1  0.19506167  0.45007633  0.37982133  1
  O  O230  1  0.25501467  0.80493833  0.37982133  1
  O  O231  1  0.45007633  0.25501467  0.62017867  1
  O  O232  1  0.80493833  0.54992367  0.62017867  1
  O  O233  1  0.74498533  0.19506167  0.62017867  1
  O  O234  1  0.63957200  0.00390300  0.46408500  1
  O  O235  1  0.36433100  0.36042800  0.46408500  1
  O  O236  1  0.99609700  0.63566900  0.46408500  1
  O  O237  1  0.36042800  0.99609700  0.53591500  1
  O  O238  1  0.63566900  0.63957200  0.53591500  1
  O  O239  1  0.00390300  0.36433100  0.53591500  1
  O  O240  1  0.49547500  0.80154700  0.49013800  1
  O  O241  1  0.30607200  0.50452500  0.49013800  1
  O  O242  1  0.19845300  0.69392800  0.49013800  1
  O  O243  1  0.50452500  0.19845300  0.50986200  1
  O  O244  1  0.69392800  0.49547500  0.50986200  1
  O  O245  1  0.80154700  0.30607200  0.50986200  1
  O  O246  1  0.69768867  0.95935533  0.51403233  1
  O  O247  1  0.26166667  0.30231133  0.51403233  1
  O  O248  1  0.04064467  0.73833333  0.51403233  1
  O  O249  1  0.30231133  0.04064467  0.48596767  1
  O  O250  1  0.73833333  0.69768867  0.48596767  1
  O  O251  1  0.95935533  0.26166667  0.48596767  1
  O  O252  1  0.54578000  0.21832600  0.68205500  1
  O  O253  1  0.67254600  0.45422000  0.68205500  1
  O  O254  1  0.78167400  0.32745400  0.68205500  1
  O  O255  1  0.78755333  0.44834067  0.98461167  1
  O  O256  1  0.66078733  0.21244667  0.98461167  1
  O  O257  1  0.55165933  0.33921267  0.98461167  1
  O  O258  1  0.40277067  0.38769233  0.72949933  1
  O  O259  1  0.98492167  0.59722933  0.72949933  1
  O  O260  1  0.61230767  0.01507833  0.72949933  1
  O  O261  1  0.93056267  0.27897433  0.93716733  1
  O  O262  1  0.34841167  0.06943733  0.93716733  1
  O  O263  1  0.72102567  0.65158833  0.93716733  1
  O  O264  1  0.38936167  0.55842133  0.70249933  1
  O  O265  1  0.16905967  0.61063833  0.70249933  1
  O  O266  1  0.44157867  0.83094033  0.70249933  1
  O  O267  1  0.94397167  0.10824533  0.96416733  1
  O  O268  1  0.16427367  0.05602833  0.96416733  1
  O  O269  1  0.89175467  0.83572633  0.96416733  1
  O  O270  1  0.35097367  0.36501733  0.67545533  1
  O  O271  1  0.01404367  0.64902633  0.67545533  1
  O  O272  1  0.63498267  0.98595633  0.67545533  1
  O  O273  1  0.98235967  0.30164933  0.99121133  1
  O  O274  1  0.31928967  0.01764033  0.99121133  1
  O  O275  1  0.69835067  0.68071033  0.99121133  1
  O  O276  1  0.21748067  0.54672833  0.77150533  1
  O  O277  1  0.32924767  0.78251933  0.77150533  1
  O  O278  1  0.45327167  0.67075233  0.77150533  1
  O  O279  1  0.11585267  0.11993833  0.89516133  1
  O  O280  1  0.00408567  0.88414733  0.89516133  1
  O  O281  1  0.88006167  0.99591433  0.89516133  1
  O  O282  1  0.54863300  0.33312900  0.77938100  1
  O  O283  1  0.78449600  0.45136700  0.77938100  1
  O  O284  1  0.66687100  0.21550400  0.77938100  1
  O  O285  1  0.78470033  0.33353767  0.88728567  1
  O  O286  1  0.54883733  0.21529967  0.88728567  1
  O  O287  1  0.66646233  0.45116267  0.88728567  1
  O  O288  1  0.37651867  0.04730833  0.74043133  1
  O  O289  1  0.67078967  0.62348133  0.74043133  1
  O  O290  1  0.95269167  0.32921033  0.74043133  1
  O  O291  1  0.95681467  0.61935833  0.92623533  1
  O  O292  1  0.66254367  0.04318533  0.92623533  1
  O  O293  1  0.38064167  0.33745633  0.92623533  1
  O  O294  1  0.17357033  0.99552567  0.76507167  1
  O  O295  1  0.82195533  0.82642967  0.76507167  1
  O  O296  1  0.00447433  0.17804467  0.76507167  1
  O  O297  1  0.15976300  0.67114100  0.90159500  1
  O  O298  1  0.51137800  0.84023700  0.90159500  1
  O  O299  1  0.32885900  0.48862200  0.90159500  1
  O  O300  1  0.21659033  0.07831867  0.71315467  1
  O  O301  1  0.86172833  0.78340967  0.71315467  1
  O  O302  1  0.92168133  0.13827167  0.71315467  1
  O  O303  1  0.11674300  0.58834800  0.95351200  1
  O  O304  1  0.47160500  0.88325700  0.95351200  1
  O  O305  1  0.41165200  0.52839500  0.95351200  1
  O  O306  1  0.30623867  0.33723633  0.79741833  1
  O  O307  1  0.03099767  0.69376133  0.79741833  1
  O  O308  1  0.66276367  0.96900233  0.79741833  1
  O  O309  1  0.02709467  0.32943033  0.86924833  1
  O  O310  1  0.30233567  0.97290533  0.86924833  1
  O  O311  1  0.67056967  0.69766433  0.86924833  1
  O  O312  1  0.16214167  0.13488033  0.82347133  1
  O  O313  1  0.97273867  0.83785833  0.82347133  1
  O  O314  1  0.86511967  0.02726133  0.82347133  1
  O  O315  1  0.17119167  0.53178633  0.84319533  1
  O  O316  1  0.36059467  0.82880833  0.84319533  1
  O  O317  1  0.46821367  0.63940533  0.84319533  1
  O  O318  1  0.36435533  0.29268867  0.84736567  1
  O  O319  1  0.92833333  0.63564467  0.84736567  1
  O  O320  1  0.70731133  0.07166667  0.84736567  1
  O  O321  1  0.96897800  0.37397800  0.81930100  1
  O  O322  1  0.40500000  0.03102200  0.81930100  1
  O  O323  1  0.62602200  0.59500000  0.81930100  1
