# generated using pymatgen
data_Ba(FeO2)2
_symmetry_space_group_name_H-M   'P 1'
_cell_length_a   8.61790600
_cell_length_b   19.44195800
_cell_length_c   5.50661500
_cell_angle_alpha   90.00000000
_cell_angle_beta   90.00000000
_cell_angle_gamma   90.00000000
_symmetry_Int_Tables_number   1
_chemical_formula_structural   Ba(FeO2)2
_chemical_formula_sum   'Ba8 Fe16 O32'
_cell_volume   922.62765216
_cell_formula_units_Z   8
loop_
 _symmetry_equiv_pos_site_id
 _symmetry_equiv_pos_as_xyz
  1  'x, y, z'
loop_
 _atom_site_type_symbol
 _atom_site_label
 _atom_site_symmetry_multiplicity
 _atom_site_fract_x
 _atom_site_fract_y
 _atom_site_fract_z
 _atom_site_occupancy
  Ba  Ba0  1  0.00000000  0.38008400  0.72441300  1
  Ba  Ba1  1  0.50000000  0.11991600  0.22441300  1
  Ba  Ba2  1  0.50000000  0.36982100  0.75725300  1
  Ba  Ba3  1  0.00000000  0.13017900  0.25725300  1
  Ba  Ba4  1  0.50000000  0.88008400  0.72441300  1
  Ba  Ba5  1  0.00000000  0.61991600  0.22441300  1
  Ba  Ba6  1  0.00000000  0.86982100  0.75725300  1
  Ba  Ba7  1  0.50000000  0.63017900  0.25725300  1
  Fe  Fe8  1  0.79155750  0.29011150  0.25261400  1
  Fe  Fe9  1  0.70844250  0.20988850  0.75261400  1
  Fe  Fe10  1  0.20844250  0.29011150  0.25261400  1
  Fe  Fe11  1  0.29155750  0.20988850  0.75261400  1
  Fe  Fe12  1  0.78013650  0.45605950  0.23146900  1
  Fe  Fe13  1  0.71986350  0.04394050  0.73146900  1
  Fe  Fe14  1  0.21986350  0.45605950  0.23146900  1
  Fe  Fe15  1  0.28013650  0.04394050  0.73146900  1
  Fe  Fe16  1  0.29155750  0.79011150  0.25261400  1
  Fe  Fe17  1  0.20844250  0.70988850  0.75261400  1
  Fe  Fe18  1  0.70844250  0.79011150  0.25261400  1
  Fe  Fe19  1  0.79155750  0.70988850  0.75261400  1
  Fe  Fe20  1  0.28013650  0.95605950  0.23146900  1
  Fe  Fe21  1  0.21986350  0.54394050  0.73146900  1
  Fe  Fe22  1  0.71986350  0.95605950  0.23146900  1
  Fe  Fe23  1  0.78013650  0.54394050  0.73146900  1
  O  O24  1  0.50000000  0.21730500  0.85826000  1
  O  O25  1  0.00000000  0.28269500  0.35826000  1
  O  O26  1  0.50000000  0.05088400  0.74392500  1
  O  O27  1  0.00000000  0.44911600  0.24392500  1
  O  O28  1  0.78768100  0.29110400  0.90568100  1
  O  O29  1  0.71231900  0.20889600  0.40568100  1
  O  O30  1  0.21231900  0.29110400  0.90568100  1
  O  O31  1  0.28768100  0.20889600  0.40568100  1
  O  O32  1  0.70523100  0.37346300  0.37826100  1
  O  O33  1  0.79476900  0.12653700  0.87826100  1
  O  O34  1  0.29476900  0.37346300  0.37826100  1
  O  O35  1  0.20523100  0.12653700  0.87826100  1
  O  O36  1  0.22197050  0.03839050  0.39754900  1
  O  O37  1  0.27802950  0.46160950  0.89754900  1
  O  O38  1  0.77802950  0.03839050  0.39754900  1
  O  O39  1  0.72197050  0.46160950  0.89754900  1
  O  O40  1  0.00000000  0.71730500  0.85826000  1
  O  O41  1  0.50000000  0.78269500  0.35826000  1
  O  O42  1  0.00000000  0.55088400  0.74392500  1
  O  O43  1  0.50000000  0.94911600  0.24392500  1
  O  O44  1  0.28768100  0.79110400  0.90568100  1
  O  O45  1  0.21231900  0.70889600  0.40568100  1
  O  O46  1  0.71231900  0.79110400  0.90568100  1
  O  O47  1  0.78768100  0.70889600  0.40568100  1
  O  O48  1  0.20523100  0.87346300  0.37826100  1
  O  O49  1  0.29476900  0.62653700  0.87826100  1
  O  O50  1  0.79476900  0.87346300  0.37826100  1
  O  O51  1  0.70523100  0.62653700  0.87826100  1
  O  O52  1  0.72197050  0.53839050  0.39754900  1
  O  O53  1  0.77802950  0.96160950  0.89754900  1
  O  O54  1  0.27802950  0.53839050  0.39754900  1
  O  O55  1  0.22197050  0.96160950  0.89754900  1
