# generated using pymatgen
data_Sn(HgSe2)2
_symmetry_space_group_name_H-M   'P 1'
_cell_length_a   5.93652000
_cell_length_b   5.93652000
_cell_length_c   11.99404600
_cell_angle_alpha   90.00000000
_cell_angle_beta   90.00000000
_cell_angle_gamma   90.00000000
_symmetry_Int_Tables_number   1
_chemical_formula_structural   Sn(HgSe2)2
_chemical_formula_sum   'Sn2 Hg4 Se8'
_cell_volume   422.69740405
_cell_formula_units_Z   2
loop_
 _symmetry_equiv_pos_site_id
 _symmetry_equiv_pos_as_xyz
  1  'x, y, z'
loop_
 _atom_site_type_symbol
 _atom_site_label
 _atom_site_symmetry_multiplicity
 _atom_site_fract_x
 _atom_site_fract_y
 _atom_site_fract_z
 _atom_site_occupancy
  Sn  Sn0  1  0.50000000  0.00000000  0.25000000  1
  Sn  Sn1  1  0.00000000  0.50000000  0.75000000  1
  Hg  Hg2  1  0.50000000  0.50000000  0.00000000  1
  Hg  Hg3  1  0.00000000  0.50000000  0.25000000  1
  Hg  Hg4  1  0.00000000  0.00000000  0.50000000  1
  Hg  Hg5  1  0.50000000  0.00000000  0.75000000  1
  Se  Se6  1  0.70955800  0.73041000  0.38467600  1
  Se  Se7  1  0.76959000  0.20955800  0.11532400  1
  Se  Se8  1  0.23041000  0.79044200  0.11532400  1
  Se  Se9  1  0.29044200  0.26959000  0.38467600  1
  Se  Se10  1  0.20955800  0.23041000  0.88467600  1
  Se  Se11  1  0.26959000  0.70955800  0.61532400  1
  Se  Se12  1  0.73041000  0.29044200  0.61532400  1
  Se  Se13  1  0.79044200  0.76959000  0.88467600  1
