# generated using pymatgen
data_Nb2Zn3O8
_symmetry_space_group_name_H-M   'P 1'
_cell_length_a   19.37340400
_cell_length_b   5.98028000
_cell_length_c   5.27124514
_cell_angle_alpha   90.00000000
_cell_angle_beta   90.14178185
_cell_angle_gamma   90.00000000
_symmetry_Int_Tables_number   1
_chemical_formula_structural   Nb2Zn3O8
_chemical_formula_sum   'Nb8 Zn12 O32'
_cell_volume   610.71605504
_cell_formula_units_Z   4
loop_
 _symmetry_equiv_pos_site_id
 _symmetry_equiv_pos_as_xyz
  1  'x, y, z'
loop_
 _atom_site_type_symbol
 _atom_site_label
 _atom_site_symmetry_multiplicity
 _atom_site_fract_x
 _atom_site_fract_y
 _atom_site_fract_z
 _atom_site_occupancy
  Nb  Nb0  1  0.88542400  0.16346800  0.73690500  1
  Nb  Nb1  1  0.61457600  0.66346800  0.76309500  1
  Nb  Nb2  1  0.61457600  0.33653200  0.26309500  1
  Nb  Nb3  1  0.88542400  0.83653200  0.23690500  1
  Nb  Nb4  1  0.38542400  0.66346800  0.73690500  1
  Nb  Nb5  1  0.11457600  0.16346800  0.76309500  1
  Nb  Nb6  1  0.11457600  0.83653200  0.26309500  1
  Nb  Nb7  1  0.38542400  0.33653200  0.23690500  1
  Zn  Zn8  1  0.00000000  0.65337000  0.75000000  1
  Zn  Zn9  1  0.00000000  0.34663000  0.25000000  1
  Zn  Zn10  1  0.72074750  0.15442450  0.76159500  1
  Zn  Zn11  1  0.77925250  0.65442450  0.73840500  1
  Zn  Zn12  1  0.72074750  0.84557550  0.26159500  1
  Zn  Zn13  1  0.77925250  0.34557550  0.23840500  1
  Zn  Zn14  1  0.50000000  0.15337000  0.75000000  1
  Zn  Zn15  1  0.50000000  0.84663000  0.25000000  1
  Zn  Zn16  1  0.22074750  0.65442450  0.76159500  1
  Zn  Zn17  1  0.27925250  0.15442450  0.73840500  1
  Zn  Zn18  1  0.22074750  0.34557550  0.26159500  1
  Zn  Zn19  1  0.27925250  0.84557550  0.23840500  1
  O  O20  1  0.94191500  0.62517800  0.08573000  1
  O  O21  1  0.55808500  0.12517800  0.41427000  1
  O  O22  1  0.55808500  0.87482200  0.91427000  1
  O  O23  1  0.94191500  0.37482200  0.58573000  1
  O  O24  1  0.56967100  0.61512000  0.42453400  1
  O  O25  1  0.93032900  0.11512000  0.07546600  1
  O  O26  1  0.93032900  0.88488000  0.57546600  1
  O  O27  1  0.56967100  0.38488000  0.92453400  1
  O  O28  1  0.80711500  0.64474200  0.36848200  1
  O  O29  1  0.69288500  0.14474200  0.13151800  1
  O  O30  1  0.67991500  0.39717500  0.55722600  1
  O  O31  1  0.82008500  0.89717500  0.94277400  1
  O  O32  1  0.82008500  0.10282500  0.44277400  1
  O  O33  1  0.67991500  0.60282500  0.05722600  1
  O  O34  1  0.80711500  0.35525800  0.86848200  1
  O  O35  1  0.69288500  0.85525800  0.63151800  1
  O  O36  1  0.44191500  0.12517800  0.08573000  1
  O  O37  1  0.05808500  0.62517800  0.41427000  1
  O  O38  1  0.05808500  0.37482200  0.91427000  1
  O  O39  1  0.44191500  0.87482200  0.58573000  1
  O  O40  1  0.06967100  0.11512000  0.42453400  1
  O  O41  1  0.43032900  0.61512000  0.07546600  1
  O  O42  1  0.43032900  0.38488000  0.57546600  1
  O  O43  1  0.06967100  0.88488000  0.92453400  1
  O  O44  1  0.30711500  0.14474200  0.36848200  1
  O  O45  1  0.19288500  0.64474200  0.13151800  1
  O  O46  1  0.17991500  0.89717500  0.55722600  1
  O  O47  1  0.32008500  0.39717500  0.94277400  1
  O  O48  1  0.32008500  0.60282500  0.44277400  1
  O  O49  1  0.17991500  0.10282500  0.05722600  1
  O  O50  1  0.30711500  0.85525800  0.86848200  1
  O  O51  1  0.19288500  0.35525800  0.63151800  1
