# generated using pymatgen
data_SrP3
_symmetry_space_group_name_H-M   'P 1'
_cell_length_a   9.23987200
_cell_length_b   7.35264000
_cell_length_c   5.74408801
_cell_angle_alpha   90.00000000
_cell_angle_beta   113.39651732
_cell_angle_gamma   90.00000000
_symmetry_Int_Tables_number   1
_chemical_formula_structural   SrP3
_chemical_formula_sum   'Sr4 P12'
_cell_volume   358.15279776
_cell_formula_units_Z   4
loop_
 _symmetry_equiv_pos_site_id
 _symmetry_equiv_pos_as_xyz
  1  'x, y, z'
loop_
 _atom_site_type_symbol
 _atom_site_label
 _atom_site_symmetry_multiplicity
 _atom_site_fract_x
 _atom_site_fract_y
 _atom_site_fract_z
 _atom_site_occupancy
  Sr  Sr0  1  0.83701000  0.50000000  0.14750700  1
  Sr  Sr1  1  0.16299000  0.50000000  0.85249300  1
  Sr  Sr2  1  0.33701000  0.00000000  0.14750700  1
  Sr  Sr3  1  0.66299000  0.00000000  0.85249300  1
  P  P4  1  0.51140300  0.50000000  0.30918600  1
  P  P5  1  0.48859700  0.50000000  0.69081400  1
  P  P6  1  0.85987450  0.25488450  0.67906000  1
  P  P7  1  0.14012550  0.25488450  0.32094000  1
  P  P8  1  0.14012550  0.74511550  0.32094000  1
  P  P9  1  0.85987450  0.74511550  0.67906000  1
  P  P10  1  0.01140300  0.00000000  0.30918600  1
  P  P11  1  0.98859700  0.00000000  0.69081400  1
  P  P12  1  0.35987450  0.75488450  0.67906000  1
  P  P13  1  0.64012550  0.75488450  0.32094000  1
  P  P14  1  0.64012550  0.24511550  0.32094000  1
  P  P15  1  0.35987450  0.24511550  0.67906000  1
