# generated using pymatgen
data_Ca2SiO4
_symmetry_space_group_name_H-M   'P 1'
_cell_length_a   5.53515824
_cell_length_b   5.53515824
_cell_length_c   7.56245100
_cell_angle_alpha   90.00000000
_cell_angle_beta   90.00000000
_cell_angle_gamma   120.00000000
_symmetry_Int_Tables_number   1
_chemical_formula_structural   Ca2SiO4
_chemical_formula_sum   'Ca4 Si2 O8'
_cell_volume   200.65652547
_cell_formula_units_Z   2
loop_
 _symmetry_equiv_pos_site_id
 _symmetry_equiv_pos_as_xyz
  1  'x, y, z'
loop_
 _atom_site_type_symbol
 _atom_site_label
 _atom_site_symmetry_multiplicity
 _atom_site_fract_x
 _atom_site_fract_y
 _atom_site_fract_z
 _atom_site_occupancy
  Ca  Ca0  1  0.33333333  0.66666667  0.81968400  1
  Ca  Ca1  1  0.66666667  0.33333333  0.31968400  1
  Ca  Ca2  1  0.00000000  0.00000000  0.56036000  1
  Ca  Ca3  1  0.00000000  0.00000000  0.06036000  1
  Si  Si4  1  0.33333333  0.66666667  0.33861700  1
  Si  Si5  1  0.66666667  0.33333333  0.83861700  1
  O  O6  1  0.33333333  0.66666667  0.55255300  1
  O  O7  1  0.66666667  0.33333333  0.05255300  1
  O  O8  1  0.66030500  0.83015250  0.27490000  1
  O  O9  1  0.16984750  0.83015250  0.27490000  1
  O  O10  1  0.16984750  0.33969500  0.27490000  1
  O  O11  1  0.33969500  0.16984750  0.77490000  1
  O  O12  1  0.83015250  0.16984750  0.77490000  1
  O  O13  1  0.83015250  0.66030500  0.77490000  1
