# generated using pymatgen
data_AlPO4
_symmetry_space_group_name_H-M   'P 1'
_cell_length_a   8.63371000
_cell_length_b   15.05685000
_cell_length_c   28.28573200
_cell_angle_alpha   90.00000000
_cell_angle_beta   90.00000000
_cell_angle_gamma   90.00000000
_symmetry_Int_Tables_number   1
_chemical_formula_structural   AlPO4
_chemical_formula_sum   'Al32 P32 O128'
_cell_volume   3677.04549278
_cell_formula_units_Z   32
loop_
 _symmetry_equiv_pos_site_id
 _symmetry_equiv_pos_as_xyz
  1  'x, y, z'
loop_
 _atom_site_type_symbol
 _atom_site_label
 _atom_site_symmetry_multiplicity
 _atom_site_fract_x
 _atom_site_fract_y
 _atom_site_fract_z
 _atom_site_occupancy
  Al  Al0  1  0.34019200  0.40733000  0.27776600  1
  Al  Al1  1  0.84019200  0.09267000  0.22223400  1
  Al  Al2  1  0.84019200  0.59267000  0.27776600  1
  Al  Al3  1  0.34019200  0.90733000  0.22223400  1
  Al  Al4  1  0.84248200  0.39785700  0.17329100  1
  Al  Al5  1  0.34248200  0.10214300  0.32670900  1
  Al  Al6  1  0.34248200  0.60214300  0.17329100  1
  Al  Al7  1  0.84248200  0.89785700  0.32670900  1
  Al  Al8  1  0.84499150  0.09469850  0.05459850  1
  Al  Al9  1  0.34499150  0.40530150  0.44540150  1
  Al  Al10  1  0.34499150  0.90530150  0.05459850  1
  Al  Al11  1  0.84499150  0.59469850  0.44540150  1
  Al  Al12  1  0.84419150  0.77714850  0.13743350  1
  Al  Al13  1  0.34419150  0.72285150  0.36256650  1
  Al  Al14  1  0.34419150  0.22285150  0.13743350  1
  Al  Al15  1  0.84419150  0.27714850  0.36256650  1
  Al  Al16  1  0.84019200  0.90733000  0.77776600  1
  Al  Al17  1  0.34019200  0.59267000  0.72223400  1
  Al  Al18  1  0.34019200  0.09267000  0.77776600  1
  Al  Al19  1  0.84019200  0.40733000  0.72223400  1
  Al  Al20  1  0.34248200  0.89785700  0.67329100  1
  Al  Al21  1  0.84248200  0.60214300  0.82670900  1
  Al  Al22  1  0.84248200  0.10214300  0.67329100  1
  Al  Al23  1  0.34248200  0.39785700  0.82670900  1
  Al  Al24  1  0.34499150  0.59469850  0.55459850  1
  Al  Al25  1  0.84499150  0.90530150  0.94540150  1
  Al  Al26  1  0.84499150  0.40530150  0.55459850  1
  Al  Al27  1  0.34499150  0.09469850  0.94540150  1
  Al  Al28  1  0.34419150  0.27714850  0.63743350  1
  Al  Al29  1  0.84419150  0.22285150  0.86256650  1
  Al  Al30  1  0.84419150  0.72285150  0.63743350  1
  Al  Al31  1  0.34419150  0.77714850  0.86256650  1
  P  P32  1  0.96701750  0.40057250  0.27899250  1
  P  P33  1  0.46701750  0.09942750  0.22100750  1
  P  P34  1  0.46701750  0.59942750  0.27899250  1
  P  P35  1  0.96701750  0.90057250  0.22100750  1
  P  P36  1  0.46828500  0.40412500  0.17143800  1
  P  P37  1  0.96828500  0.09587500  0.32856200  1
  P  P38  1  0.96828500  0.59587500  0.17143800  1
  P  P39  1  0.46828500  0.90412500  0.32856200  1
  P  P40  1  0.97095450  0.21737250  0.13888250  1
  P  P41  1  0.47095450  0.28262750  0.36111750  1
  P  P42  1  0.47095450  0.78262750  0.13888250  1
  P  P43  1  0.97095450  0.71737250  0.36111750  1
  P  P44  1  0.96653600  0.89876300  0.05342700  1
  P  P45  1  0.46653600  0.60123700  0.44657300  1
  P  P46  1  0.46653600  0.10123700  0.05342700  1
  P  P47  1  0.96653600  0.39876300  0.44657300  1
  P  P48  1  0.46701750  0.90057250  0.77899250  1
  P  P49  1  0.96701750  0.59942750  0.72100750  1
  P  P50  1  0.96701750  0.09942750  0.77899250  1
  P  P51  1  0.46701750  0.40057250  0.72100750  1
  P  P52  1  0.96828500  0.90412500  0.67143800  1
  P  P53  1  0.46828500  0.59587500  0.82856200  1
  P  P54  1  0.46828500  0.09587500  0.67143800  1
  P  P55  1  0.96828500  0.40412500  0.82856200  1
  P  P56  1  0.47095450  0.71737250  0.63888250  1
  P  P57  1  0.97095450  0.78262750  0.86111750  1
  P  P58  1  0.97095450  0.28262750  0.63888250  1
  P  P59  1  0.47095450  0.21737250  0.86111750  1
  P  P60  1  0.46653600  0.39876300  0.55342700  1
  P  P61  1  0.96653600  0.10123700  0.94657300  1
  P  P62  1  0.96653600  0.60123700  0.55342700  1
  P  P63  1  0.46653600  0.89876300  0.94657300  1
  O  O64  1  0.88106450  0.37548150  0.23323450  1
  O  O65  1  0.38106450  0.12451850  0.26676550  1
  O  O66  1  0.38106450  0.62451850  0.23323450  1
  O  O67  1  0.88106450  0.87548150  0.26676550  1
  O  O68  1  0.90311700  0.48878900  0.29872500  1
  O  O69  1  0.40311700  0.01121100  0.20127500  1
  O  O70  1  0.40311700  0.51121100  0.29872500  1
  O  O71  1  0.90311700  0.98878900  0.20127500  1
  O  O72  1  0.94459550  0.32737150  0.31586450  1
  O  O73  1  0.44459550  0.17262850  0.18413550  1
  O  O74  1  0.44459550  0.67262850  0.31586450  1
  O  O75  1  0.94459550  0.82737150  0.18413550  1
  O  O76  1  0.14050100  0.41031800  0.26809800  1
  O  O77  1  0.64050100  0.08968200  0.23190200  1
  O  O78  1  0.64050100  0.58968200  0.26809800  1
  O  O79  1  0.14050100  0.91031800  0.23190200  1
  O  O80  1  0.42955700  0.38465600  0.22361200  1
  O  O81  1  0.92955700  0.11534400  0.27638800  1
  O  O82  1  0.92955700  0.61534400  0.22361200  1
  O  O83  1  0.42955700  0.88465600  0.27638800  1
  O  O84  1  0.38580700  0.33683600  0.13917700  1
  O  O85  1  0.88580700  0.16316400  0.36082300  1
  O  O86  1  0.88580700  0.66316400  0.13917700  1
  O  O87  1  0.38580700  0.83683600  0.36082300  1
  O  O88  1  0.64337000  0.39619700  0.16425500  1
  O  O89  1  0.14337000  0.10380300  0.33574500  1
  O  O90  1  0.14337000  0.60380300  0.16425500  1
  O  O91  1  0.64337000  0.89619700  0.33574500  1
  O  O92  1  0.91534450  0.50207350  0.15754750  1
  O  O93  1  0.41534450  0.99792650  0.34245250  1
  O  O94  1  0.41534450  0.49792650  0.15754750  1
  O  O95  1  0.91534450  0.00207350  0.34245250  1
  O  O96  1  0.92936150  0.31665350  0.13777150  1
  O  O97  1  0.42936150  0.18334650  0.36222850  1
  O  O98  1  0.42936150  0.68334650  0.13777150  1
  O  O99  1  0.92936150  0.81665350  0.36222850  1
  O  O100  1  0.88595850  0.17320750  0.18044750  1
  O  O101  1  0.38595850  0.32679250  0.31955250  1
  O  O102  1  0.38595850  0.82679250  0.18044750  1
  O  O103  1  0.88595850  0.67320750  0.31955250  1
  O  O104  1  0.14610350  0.20590450  0.14533550  1
  O  O105  1  0.64610350  0.29409550  0.35466450  1
  O  O106  1  0.64610350  0.79409550  0.14533550  1
  O  O107  1  0.14610350  0.70590450  0.35466450  1
  O  O108  1  0.92117450  0.17515550  0.09205650  1
  O  O109  1  0.42117450  0.32484450  0.40794350  1
  O  O110  1  0.42117450  0.82484450  0.09205650  1
  O  O111  1  0.92117450  0.67515550  0.40794350  1
  O  O112  1  0.90263800  0.98760000  0.07246700  1
  O  O113  1  0.40263800  0.51240000  0.42753300  1
  O  O114  1  0.40263800  0.01240000  0.07246700  1
  O  O115  1  0.90263800  0.48760000  0.42753300  1
  O  O116  1  0.91461700  0.88416400  0.00220100  1
  O  O117  1  0.41461700  0.61583600  0.49779900  1
  O  O118  1  0.41461700  0.11583600  0.00220100  1
  O  O119  1  0.91461700  0.38416400  0.49779900  1
  O  O120  1  0.90470600  0.82188800  0.08351200  1
  O  O121  1  0.40470600  0.67811200  0.41648800  1
  O  O122  1  0.40470600  0.17811200  0.08351200  1
  O  O123  1  0.90470600  0.32188800  0.41648800  1
  O  O124  1  0.14373350  0.90009550  0.05565450  1
  O  O125  1  0.64373350  0.59990450  0.44434550  1
  O  O126  1  0.64373350  0.09990450  0.05565450  1
  O  O127  1  0.14373350  0.40009550  0.44434550  1
  O  O128  1  0.38106450  0.87548150  0.73323450  1
  O  O129  1  0.88106450  0.62451850  0.76676550  1
  O  O130  1  0.88106450  0.12451850  0.73323450  1
  O  O131  1  0.38106450  0.37548150  0.76676550  1
  O  O132  1  0.40311700  0.98878900  0.79872500  1
  O  O133  1  0.90311700  0.51121100  0.70127500  1
  O  O134  1  0.90311700  0.01121100  0.79872500  1
  O  O135  1  0.40311700  0.48878900  0.70127500  1
  O  O136  1  0.44459550  0.82737150  0.81586450  1
  O  O137  1  0.94459550  0.67262850  0.68413550  1
  O  O138  1  0.94459550  0.17262850  0.81586450  1
  O  O139  1  0.44459550  0.32737150  0.68413550  1
  O  O140  1  0.64050100  0.91031800  0.76809800  1
  O  O141  1  0.14050100  0.58968200  0.73190200  1
  O  O142  1  0.14050100  0.08968200  0.76809800  1
  O  O143  1  0.64050100  0.41031800  0.73190200  1
  O  O144  1  0.92955700  0.88465600  0.72361200  1
  O  O145  1  0.42955700  0.61534400  0.77638800  1
  O  O146  1  0.42955700  0.11534400  0.72361200  1
  O  O147  1  0.92955700  0.38465600  0.77638800  1
  O  O148  1  0.88580700  0.83683600  0.63917700  1
  O  O149  1  0.38580700  0.66316400  0.86082300  1
  O  O150  1  0.38580700  0.16316400  0.63917700  1
  O  O151  1  0.88580700  0.33683600  0.86082300  1
  O  O152  1  0.14337000  0.89619700  0.66425500  1
  O  O153  1  0.64337000  0.60380300  0.83574500  1
  O  O154  1  0.64337000  0.10380300  0.66425500  1
  O  O155  1  0.14337000  0.39619700  0.83574500  1
  O  O156  1  0.41534450  0.00207350  0.65754750  1
  O  O157  1  0.91534450  0.49792650  0.84245250  1
  O  O158  1  0.91534450  0.99792650  0.65754750  1
  O  O159  1  0.41534450  0.50207350  0.84245250  1
  O  O160  1  0.42936150  0.81665350  0.63777150  1
  O  O161  1  0.92936150  0.68334650  0.86222850  1
  O  O162  1  0.92936150  0.18334650  0.63777150  1
  O  O163  1  0.42936150  0.31665350  0.86222850  1
  O  O164  1  0.38595850  0.67320750  0.68044750  1
  O  O165  1  0.88595850  0.82679250  0.81955250  1
  O  O166  1  0.88595850  0.32679250  0.68044750  1
  O  O167  1  0.38595850  0.17320750  0.81955250  1
  O  O168  1  0.64610350  0.70590450  0.64533550  1
  O  O169  1  0.14610350  0.79409550  0.85466450  1
  O  O170  1  0.14610350  0.29409550  0.64533550  1
  O  O171  1  0.64610350  0.20590450  0.85466450  1
  O  O172  1  0.42117450  0.67515550  0.59205650  1
  O  O173  1  0.92117450  0.82484450  0.90794350  1
  O  O174  1  0.92117450  0.32484450  0.59205650  1
  O  O175  1  0.42117450  0.17515550  0.90794350  1
  O  O176  1  0.40263800  0.48760000  0.57246700  1
  O  O177  1  0.90263800  0.01240000  0.92753300  1
  O  O178  1  0.90263800  0.51240000  0.57246700  1
  O  O179  1  0.40263800  0.98760000  0.92753300  1
  O  O180  1  0.41461700  0.38416400  0.50220100  1
  O  O181  1  0.91461700  0.11583600  0.99779900  1
  O  O182  1  0.91461700  0.61583600  0.50220100  1
  O  O183  1  0.41461700  0.88416400  0.99779900  1
  O  O184  1  0.40470600  0.32188800  0.58351200  1
  O  O185  1  0.90470600  0.17811200  0.91648800  1
  O  O186  1  0.90470600  0.67811200  0.58351200  1
  O  O187  1  0.40470600  0.82188800  0.91648800  1
  O  O188  1  0.64373350  0.40009550  0.55565450  1
  O  O189  1  0.14373350  0.09990450  0.94434550  1
  O  O190  1  0.14373350  0.59990450  0.55565450  1
  O  O191  1  0.64373350  0.90009550  0.94434550  1
