# generated using pymatgen
data_CaCu3(SnO3)4
_symmetry_space_group_name_H-M   'P 1'
_cell_length_a   7.76667800
_cell_length_b   7.76667800
_cell_length_c   7.76667800
_cell_angle_alpha   90.00000000
_cell_angle_beta   90.00000000
_cell_angle_gamma   90.00000000
_symmetry_Int_Tables_number   1
_chemical_formula_structural   CaCu3(SnO3)4
_chemical_formula_sum   'Ca2 Cu6 Sn8 O24'
_cell_volume   468.49601388
_cell_formula_units_Z   2
loop_
 _symmetry_equiv_pos_site_id
 _symmetry_equiv_pos_as_xyz
  1  'x, y, z'
loop_
 _atom_site_type_symbol
 _atom_site_label
 _atom_site_symmetry_multiplicity
 _atom_site_fract_x
 _atom_site_fract_y
 _atom_site_fract_z
 _atom_site_occupancy
  Ca  Ca0  1  0.00000000  0.00000000  0.00000000  1
  Ca  Ca1  1  0.50000000  0.50000000  0.50000000  1
  Cu  Cu2  1  0.00000000  0.50000000  0.00000000  1
  Cu  Cu3  1  0.00000000  0.00000000  0.50000000  1
  Cu  Cu4  1  0.50000000  0.00000000  0.00000000  1
  Cu  Cu5  1  0.50000000  0.00000000  0.50000000  1
  Cu  Cu6  1  0.50000000  0.50000000  0.00000000  1
  Cu  Cu7  1  0.00000000  0.50000000  0.50000000  1
  Sn  Sn8  1  0.25000000  0.25000000  0.25000000  1
  Sn  Sn9  1  0.75000000  0.25000000  0.25000000  1
  Sn  Sn10  1  0.25000000  0.75000000  0.25000000  1
  Sn  Sn11  1  0.25000000  0.25000000  0.75000000  1
  Sn  Sn12  1  0.75000000  0.75000000  0.75000000  1
  Sn  Sn13  1  0.25000000  0.75000000  0.75000000  1
  Sn  Sn14  1  0.75000000  0.25000000  0.75000000  1
  Sn  Sn15  1  0.75000000  0.75000000  0.25000000  1
  O  O16  1  0.33041750  0.50000000  0.80714250  1
  O  O17  1  0.16958250  0.00000000  0.69285750  1
  O  O18  1  0.33041750  0.50000000  0.19285750  1
  O  O19  1  0.00000000  0.30714250  0.16958250  1
  O  O20  1  0.30714250  0.16958250  0.00000000  1
  O  O21  1  0.80714250  0.33041750  0.50000000  1
  O  O22  1  0.00000000  0.69285750  0.16958250  1
  O  O23  1  0.19285750  0.33041750  0.50000000  1
  O  O24  1  0.16958250  0.00000000  0.30714250  1
  O  O25  1  0.50000000  0.19285750  0.33041750  1
  O  O26  1  0.69285750  0.16958250  0.00000000  1
  O  O27  1  0.50000000  0.80714250  0.33041750  1
  O  O28  1  0.83041750  0.00000000  0.30714250  1
  O  O29  1  0.66958250  0.50000000  0.19285750  1
  O  O30  1  0.83041750  0.00000000  0.69285750  1
  O  O31  1  0.50000000  0.80714250  0.66958250  1
  O  O32  1  0.80714250  0.66958250  0.50000000  1
  O  O33  1  0.30714250  0.83041750  0.00000000  1
  O  O34  1  0.50000000  0.19285750  0.66958250  1
  O  O35  1  0.69285750  0.83041750  0.00000000  1
  O  O36  1  0.66958250  0.50000000  0.80714250  1
  O  O37  1  0.00000000  0.69285750  0.83041750  1
  O  O38  1  0.19285750  0.66958250  0.50000000  1
  O  O39  1  0.00000000  0.30714250  0.83041750  1
