# generated using pymatgen
data_Ba2Mn(PO4)2
_symmetry_space_group_name_H-M   'P 1'
_cell_length_a   5.41325311
_cell_length_b   9.11716030
_cell_length_c   17.28054325
_cell_angle_alpha   90.00000000
_cell_angle_beta   107.89630235
_cell_angle_gamma   90.00000000
_symmetry_Int_Tables_number   1
_chemical_formula_structural   Ba2Mn(PO4)2
_chemical_formula_sum   'Ba8 Mn4 P8 O32'
_cell_volume   811.58917717
_cell_formula_units_Z   4
loop_
 _symmetry_equiv_pos_site_id
 _symmetry_equiv_pos_as_xyz
  1  'x, y, z'
loop_
 _atom_site_type_symbol
 _atom_site_label
 _atom_site_symmetry_multiplicity
 _atom_site_fract_x
 _atom_site_fract_y
 _atom_site_fract_z
 _atom_site_occupancy
  Ba  Ba0  1  0.03060394  0.65739321  0.27042518  1
  Ba  Ba1  1  0.96939606  0.15739321  0.22957482  1
  Ba  Ba2  1  0.96939606  0.34260679  0.72957482  1
  Ba  Ba3  1  0.03060394  0.84260679  0.77042518  1
  Ba  Ba4  1  0.18317628  0.20212830  0.97947117  1
  Ba  Ba5  1  0.81682372  0.70212830  0.52052883  1
  Ba  Ba6  1  0.81682372  0.79787170  0.02052883  1
  Ba  Ba7  1  0.18317628  0.29787170  0.47947117  1
  Mn  Mn8  1  0.59606577  0.01787283  0.36436726  1
  Mn  Mn9  1  0.40393423  0.51787283  0.13563274  1
  Mn  Mn10  1  0.59606577  0.48212717  0.86436726  1
  Mn  Mn11  1  0.40393423  0.98212717  0.63563274  1
  P  P12  1  0.42157580  0.89592360  0.16302688  1
  P  P13  1  0.57842420  0.39592360  0.33697312  1
  P  P14  1  0.57842420  0.10407640  0.83697312  1
  P  P15  1  0.42157580  0.60407640  0.66302688  1
  P  P16  1  0.18235769  0.90460753  0.42208582  1
  P  P17  1  0.18235769  0.59539247  0.92208582  1
  P  P18  1  0.81764231  0.09539247  0.57791418  1
  P  P19  1  0.81764231  0.40460753  0.07791418  1
  O  O20  1  0.39896256  0.98946065  0.23649829  1
  O  O21  1  0.60103744  0.48946065  0.26350171  1
  O  O22  1  0.60103744  0.01053935  0.76350171  1
  O  O23  1  0.39896256  0.51053935  0.73649829  1
  O  O24  1  0.71224340  0.88761451  0.16577348  1
  O  O25  1  0.28775660  0.38761451  0.33422652  1
  O  O26  1  0.28775660  0.11238549  0.83422652  1
  O  O27  1  0.71224340  0.61238549  0.66577348  1
  O  O28  1  0.31113993  0.73905617  0.16963223  1
  O  O29  1  0.68886007  0.23905617  0.33036777  1
  O  O30  1  0.68886007  0.26094383  0.83036777  1
  O  O31  1  0.31113993  0.76094383  0.66963223  1
  O  O32  1  0.25347851  0.96762252  0.08231059  1
  O  O33  1  0.74652149  0.46762252  0.41768941  1
  O  O34  1  0.74652149  0.03237748  0.91768941  1
  O  O35  1  0.25347851  0.53237748  0.58231059  1
  O  O36  1  0.89964311  0.85167738  0.37650444  1
  O  O37  1  0.10035689  0.35167738  0.12349556  1
  O  O38  1  0.10035689  0.14832262  0.62349556  1
  O  O39  1  0.89964311  0.64832262  0.87650444  1
  O  O40  1  0.22366248  0.59804317  0.01404134  1
  O  O41  1  0.77633752  0.09804317  0.48595866  1
  O  O42  1  0.77633752  0.40195683  0.98595866  1
  O  O43  1  0.22366248  0.90195683  0.51404134  1
  O  O44  1  0.37846997  0.69858765  0.89929961  1
  O  O45  1  0.62153003  0.19858765  0.60070039  1
  O  O46  1  0.22017994  0.06000076  0.38896208  1
  O  O47  1  0.37846997  0.80141235  0.39929961  1
  O  O48  1  0.22017994  0.43999924  0.88896208  1
  O  O49  1  0.77982006  0.93999924  0.61103792  1
  O  O50  1  0.77982006  0.56000076  0.11103792  1
  O  O51  1  0.62153003  0.30141235  0.10070039  1
