# generated using pymatgen
data_CsTbCdTe3
_symmetry_space_group_name_H-M   'P 1'
_cell_length_a   4.56043200
_cell_length_b   17.38120400
_cell_length_c   11.91725800
_cell_angle_alpha   90.00000000
_cell_angle_beta   90.00000000
_cell_angle_gamma   90.00000000
_symmetry_Int_Tables_number   1
_chemical_formula_structural   CsTbCdTe3
_chemical_formula_sum   'Cs4 Tb4 Cd4 Te12'
_cell_volume   944.63097631
_cell_formula_units_Z   4
loop_
 _symmetry_equiv_pos_site_id
 _symmetry_equiv_pos_as_xyz
  1  'x, y, z'
loop_
 _atom_site_type_symbol
 _atom_site_label
 _atom_site_symmetry_multiplicity
 _atom_site_fract_x
 _atom_site_fract_y
 _atom_site_fract_z
 _atom_site_occupancy
  Cs  Cs0  1  0.50000000  0.25077900  0.75000000  1
  Cs  Cs1  1  0.00000000  0.24922100  0.25000000  1
  Cs  Cs2  1  0.00000000  0.75077900  0.75000000  1
  Cs  Cs3  1  0.50000000  0.74922100  0.25000000  1
  Tb  Tb4  1  0.00000000  0.00000000  0.00000000  1
  Tb  Tb5  1  0.00000000  0.00000000  0.50000000  1
  Tb  Tb6  1  0.50000000  0.50000000  0.00000000  1
  Tb  Tb7  1  0.50000000  0.50000000  0.50000000  1
  Cd  Cd8  1  0.00000000  0.46325100  0.75000000  1
  Cd  Cd9  1  0.50000000  0.03674900  0.25000000  1
  Cd  Cd10  1  0.50000000  0.96325100  0.75000000  1
  Cd  Cd11  1  0.00000000  0.53674900  0.25000000  1
  Te  Te12  1  0.00000000  0.37979100  0.54719000  1
  Te  Te13  1  0.50000000  0.12020900  0.45281000  1
  Te  Te14  1  0.50000000  0.43463500  0.25000000  1
  Te  Te15  1  0.00000000  0.06536500  0.75000000  1
  Te  Te16  1  0.00000000  0.37979100  0.95281000  1
  Te  Te17  1  0.50000000  0.12020900  0.04719000  1
  Te  Te18  1  0.50000000  0.87979100  0.54719000  1
  Te  Te19  1  0.00000000  0.62020900  0.45281000  1
  Te  Te20  1  0.00000000  0.93463500  0.25000000  1
  Te  Te21  1  0.50000000  0.56536500  0.75000000  1
  Te  Te22  1  0.50000000  0.87979100  0.95281000  1
  Te  Te23  1  0.00000000  0.62020900  0.04719000  1
