# generated using pymatgen
data_Sr2Cu(PO4)2
_symmetry_space_group_name_H-M   'P 1'
_cell_length_a   11.65146400
_cell_length_b   5.13289400
_cell_length_c   6.67946099
_cell_angle_alpha   90.00000000
_cell_angle_beta   106.37595949
_cell_angle_gamma   90.00000000
_symmetry_Int_Tables_number   1
_chemical_formula_structural   Sr2Cu(PO4)2
_chemical_formula_sum   'Sr4 Cu2 P4 O16'
_cell_volume   383.26448025
_cell_formula_units_Z   2
loop_
 _symmetry_equiv_pos_site_id
 _symmetry_equiv_pos_as_xyz
  1  'x, y, z'
loop_
 _atom_site_type_symbol
 _atom_site_label
 _atom_site_symmetry_multiplicity
 _atom_site_fract_x
 _atom_site_fract_y
 _atom_site_fract_z
 _atom_site_occupancy
  Sr  Sr0  1  0.82943200  0.00000000  0.78330100  1
  Sr  Sr1  1  0.67056800  0.50000000  0.21669900  1
  Sr  Sr2  1  0.32943200  0.50000000  0.78330100  1
  Sr  Sr3  1  0.17056800  0.00000000  0.21669900  1
  Cu  Cu4  1  0.00000000  0.50000000  0.50000000  1
  Cu  Cu5  1  0.50000000  0.00000000  0.50000000  1
  P  P6  1  0.64249300  0.50000000  0.71012800  1
  P  P7  1  0.85750700  0.00000000  0.28987200  1
  P  P8  1  0.14249300  0.00000000  0.71012800  1
  P  P9  1  0.35750700  0.50000000  0.28987200  1
  O  O10  1  0.86927600  0.75487200  0.43649600  1
  O  O11  1  0.63072400  0.25487200  0.56350400  1
  O  O12  1  0.63072400  0.74512800  0.56350400  1
  O  O13  1  0.86927600  0.24512800  0.43649600  1
  O  O14  1  0.77129700  0.50000000  0.85845700  1
  O  O15  1  0.95031800  0.00000000  0.16765100  1
  O  O16  1  0.54968200  0.50000000  0.83234900  1
  O  O17  1  0.72870300  0.00000000  0.14154300  1
  O  O18  1  0.36927600  0.25487200  0.43649600  1
  O  O19  1  0.13072400  0.75487200  0.56350400  1
  O  O20  1  0.13072400  0.24512800  0.56350400  1
  O  O21  1  0.36927600  0.74512800  0.43649600  1
  O  O22  1  0.27129700  0.00000000  0.85845700  1
  O  O23  1  0.45031800  0.50000000  0.16765100  1
  O  O24  1  0.04968200  0.00000000  0.83234900  1
  O  O25  1  0.22870300  0.50000000  0.14154300  1
