# generated using pymatgen
data_LiV2O5
_symmetry_space_group_name_H-M   'P 1'
_cell_length_a   3.66346448
_cell_length_b   10.03750814
_cell_length_c   11.43070246
_cell_angle_alpha   90.00000000
_cell_angle_beta   90.00000000
_cell_angle_gamma   90.00000000
_symmetry_Int_Tables_number   1
_chemical_formula_structural   LiV2O5
_chemical_formula_sum   'Li4 V8 O20'
_cell_volume   420.33041427
_cell_formula_units_Z   4
loop_
 _symmetry_equiv_pos_site_id
 _symmetry_equiv_pos_as_xyz
  1  'x, y, z'
loop_
 _atom_site_type_symbol
 _atom_site_label
 _atom_site_symmetry_multiplicity
 _atom_site_fract_x
 _atom_site_fract_y
 _atom_site_fract_z
 _atom_site_occupancy
  Li  Li0  1  0.50000000  0.40118919  0.75000000  1
  Li  Li1  1  0.00000000  0.09881081  0.25000000  1
  Li  Li2  1  0.00000000  0.90118919  0.75000000  1
  Li  Li3  1  0.50000000  0.59881081  0.25000000  1
  V  V4  1  0.00000000  0.20580338  0.60161300  1
  V  V5  1  0.00000000  0.20580338  0.89838700  1
  V  V6  1  0.50000000  0.29419662  0.10161300  1
  V  V7  1  0.50000000  0.29419662  0.39838700  1
  V  V8  1  0.50000000  0.70580338  0.60161300  1
  V  V9  1  0.50000000  0.70580338  0.89838700  1
  V  V10  1  0.00000000  0.79419662  0.10161300  1
  V  V11  1  0.00000000  0.79419662  0.39838700  1
  O  O12  1  0.50000000  0.45478574  0.12634847  1
  O  O13  1  0.50000000  0.21498348  0.25000000  1
  O  O14  1  0.00000000  0.28501652  0.75000000  1
  O  O15  1  0.00000000  0.23989386  0.07098501  1
  O  O16  1  0.00000000  0.04521426  0.62634847  1
  O  O17  1  0.50000000  0.45478574  0.37365153  1
  O  O18  1  0.50000000  0.26010614  0.92901499  1
  O  O19  1  0.50000000  0.26010614  0.57098501  1
  O  O20  1  0.00000000  0.23989386  0.42901499  1
  O  O21  1  0.00000000  0.04521426  0.87365153  1
  O  O22  1  0.00000000  0.95478574  0.12634847  1
  O  O23  1  0.00000000  0.71498348  0.25000000  1
  O  O24  1  0.50000000  0.78501652  0.75000000  1
  O  O25  1  0.50000000  0.73989386  0.07098501  1
  O  O26  1  0.50000000  0.54521426  0.62634847  1
  O  O27  1  0.00000000  0.95478574  0.37365153  1
  O  O28  1  0.00000000  0.76010614  0.92901499  1
  O  O29  1  0.00000000  0.76010614  0.57098501  1
  O  O30  1  0.50000000  0.73989386  0.42901499  1
  O  O31  1  0.50000000  0.54521426  0.87365153  1
