# generated using pymatgen
data_Sr2TaN3
_symmetry_space_group_name_H-M   'P 1'
_cell_length_a   6.07507000
_cell_length_b   11.34950800
_cell_length_c   12.67590997
_cell_angle_alpha   90.00000000
_cell_angle_beta   92.10489692
_cell_angle_gamma   90.00000000
_symmetry_Int_Tables_number   1
_chemical_formula_structural   Sr2TaN3
_chemical_formula_sum   'Sr16 Ta8 N24'
_cell_volume   873.40230166
_cell_formula_units_Z   8
loop_
 _symmetry_equiv_pos_site_id
 _symmetry_equiv_pos_as_xyz
  1  'x, y, z'
loop_
 _atom_site_type_symbol
 _atom_site_label
 _atom_site_symmetry_multiplicity
 _atom_site_fract_x
 _atom_site_fract_y
 _atom_site_fract_z
 _atom_site_occupancy
  Sr  Sr0  1  0.74717350  0.79928450  0.86064800  1
  Sr  Sr1  1  0.77116650  0.61598150  0.57684600  1
  Sr  Sr2  1  0.27116650  0.88401850  0.07684600  1
  Sr  Sr3  1  0.72883350  0.88401850  0.42315400  1
  Sr  Sr4  1  0.75282650  0.70071550  0.13935200  1
  Sr  Sr5  1  0.24717350  0.70071550  0.36064800  1
  Sr  Sr6  1  0.25282650  0.79928450  0.63935200  1
  Sr  Sr7  1  0.22883350  0.61598150  0.92315400  1
  Sr  Sr8  1  0.24717350  0.29928450  0.86064800  1
  Sr  Sr9  1  0.27116650  0.11598150  0.57684600  1
  Sr  Sr10  1  0.77116650  0.38401850  0.07684600  1
  Sr  Sr11  1  0.22883350  0.38401850  0.42315400  1
  Sr  Sr12  1  0.25282650  0.20071550  0.13935200  1
  Sr  Sr13  1  0.74717350  0.20071550  0.36064800  1
  Sr  Sr14  1  0.75282650  0.29928450  0.63935200  1
  Sr  Sr15  1  0.72883350  0.11598150  0.92315400  1
  Ta  Ta16  1  0.76544350  0.99786850  0.66370300  1
  Ta  Ta17  1  0.23455650  0.99786850  0.83629700  1
  Ta  Ta18  1  0.73455650  0.50213150  0.33629700  1
  Ta  Ta19  1  0.26544350  0.50213150  0.16370300  1
  Ta  Ta20  1  0.26544350  0.49786850  0.66370300  1
  Ta  Ta21  1  0.73455650  0.49786850  0.83629700  1
  Ta  Ta22  1  0.23455650  0.00213150  0.33629700  1
  Ta  Ta23  1  0.76544350  0.00213150  0.16370300  1
  N  N24  1  0.00000000  0.50162500  0.25000000  1
  N  N25  1  0.50000000  0.99837500  0.75000000  1
  N  N26  1  0.00000000  0.91857200  0.25000000  1
  N  N27  1  0.50000000  0.58142800  0.75000000  1
  N  N28  1  0.66942900  0.66274700  0.37601600  1
  N  N29  1  0.33057100  0.66274700  0.12398400  1
  N  N30  1  0.83057100  0.83725300  0.62398400  1
  N  N31  1  0.16942900  0.83725300  0.87601600  1
  N  N32  1  0.70977250  0.90607850  0.04145800  1
  N  N33  1  0.20977250  0.59392150  0.54145800  1
  N  N34  1  0.79022750  0.59392150  0.95854200  1
  N  N35  1  0.29022750  0.90607850  0.45854200  1
  N  N36  1  0.50000000  0.00162500  0.25000000  1
  N  N37  1  0.00000000  0.49837500  0.75000000  1
  N  N38  1  0.50000000  0.41857200  0.25000000  1
  N  N39  1  0.00000000  0.08142800  0.75000000  1
  N  N40  1  0.16942900  0.16274700  0.37601600  1
  N  N41  1  0.83057100  0.16274700  0.12398400  1
  N  N42  1  0.33057100  0.33725300  0.62398400  1
  N  N43  1  0.66942900  0.33725300  0.87601600  1
  N  N44  1  0.20977250  0.40607850  0.04145800  1
  N  N45  1  0.70977250  0.09392150  0.54145800  1
  N  N46  1  0.29022750  0.09392150  0.95854200  1
  N  N47  1  0.79022750  0.40607850  0.45854200  1
