# generated using pymatgen
data_Sr3Y(BO3)3
_symmetry_space_group_name_H-M   'P 1'
_cell_length_a   12.58343343
_cell_length_b   12.58343343
_cell_length_c   9.53070671
_cell_angle_alpha   90.00000000
_cell_angle_beta   90.00000000
_cell_angle_gamma   120.00000000
_symmetry_Int_Tables_number   1
_chemical_formula_structural   Sr3Y(BO3)3
_chemical_formula_sum   'Sr18 Y6 B18 O54'
_cell_volume   1306.93517990
_cell_formula_units_Z   6
loop_
 _symmetry_equiv_pos_site_id
 _symmetry_equiv_pos_as_xyz
  1  'x, y, z'
loop_
 _atom_site_type_symbol
 _atom_site_label
 _atom_site_symmetry_multiplicity
 _atom_site_fract_x
 _atom_site_fract_y
 _atom_site_fract_z
 _atom_site_occupancy
  Sr  Sr0  1  0.08305100  0.29201700  0.65212600  1
  Sr  Sr1  1  0.70798300  0.79103400  0.65212600  1
  Sr  Sr2  1  0.20896600  0.91694900  0.65212600  1
  Sr  Sr3  1  0.91694900  0.70798300  0.34787400  1
  Sr  Sr4  1  0.29201700  0.20896600  0.34787400  1
  Sr  Sr5  1  0.79103400  0.08305100  0.34787400  1
  Sr  Sr6  1  0.74971767  0.62535033  0.98545933  1
  Sr  Sr7  1  0.37464967  0.12436733  0.98545933  1
  Sr  Sr8  1  0.87563267  0.25028233  0.98545933  1
  Sr  Sr9  1  0.58361567  0.04131633  0.68120733  1
  Sr  Sr10  1  0.95868367  0.54229933  0.68120733  1
  Sr  Sr11  1  0.45770067  0.41638433  0.68120733  1
  Sr  Sr12  1  0.41638433  0.95868367  0.31879267  1
  Sr  Sr13  1  0.04131633  0.45770067  0.31879267  1
  Sr  Sr14  1  0.54229933  0.58361567  0.31879267  1
  Sr  Sr15  1  0.25028233  0.37464967  0.01454067  1
  Sr  Sr16  1  0.62535033  0.87563267  0.01454067  1
  Sr  Sr17  1  0.12436733  0.74971767  0.01454067  1
  Y  Y18  1  0.00000000  0.00000000  0.50000000  1
  Y  Y19  1  0.00000000  0.00000000  0.00000000  1
  Y  Y20  1  0.66666667  0.33333333  0.83333333  1
  Y  Y21  1  0.66666667  0.33333333  0.33333333  1
  Y  Y22  1  0.33333333  0.66666667  0.16666667  1
  Y  Y23  1  0.33333333  0.66666667  0.66666667  1
  B  B24  1  0.85151000  0.05201500  0.75942800  1
  B  B25  1  0.94798500  0.79949500  0.75942800  1
  B  B26  1  0.20050500  0.14849000  0.75942800  1
  B  B27  1  0.05201500  0.20050500  0.24057200  1
  B  B28  1  0.79949500  0.85151000  0.24057200  1
  B  B29  1  0.14849000  0.94798500  0.24057200  1
  B  B30  1  0.51817667  0.38534833  0.09276133  1
  B  B31  1  0.61465167  0.13282833  0.09276133  1
  B  B32  1  0.86717167  0.48182333  0.09276133  1
  B  B33  1  0.71868167  0.53383833  0.57390533  1
  B  B34  1  0.46616167  0.18484333  0.57390533  1
  B  B35  1  0.81515667  0.28131833  0.57390533  1
  B  B36  1  0.18484333  0.71868167  0.42609467  1
  B  B37  1  0.28131833  0.46616167  0.42609467  1
  B  B38  1  0.53383833  0.81515667  0.42609467  1
  B  B39  1  0.38534833  0.86717167  0.90723867  1
  B  B40  1  0.13282833  0.51817667  0.90723867  1
  B  B41  1  0.48182333  0.61465167  0.90723867  1
  O  O42  1  0.35213367  0.41472933  0.45968533  1
  O  O43  1  0.58527067  0.93740433  0.45968533  1
  O  O44  1  0.11197367  0.93565033  0.38117833  1
  O  O45  1  0.82367667  0.88802633  0.38117833  1
  O  O46  1  0.06434967  0.17632333  0.38117833  1
  O  O47  1  0.93565033  0.82367667  0.61882167  1
  O  O48  1  0.88802633  0.06434967  0.61882167  1
  O  O49  1  0.17632333  0.11197367  0.61882167  1
  O  O50  1  0.72472133  0.22019167  0.47249067  1
  O  O51  1  0.49547033  0.27527867  0.47249067  1
  O  O52  1  0.77980833  0.50452967  0.47249067  1
  O  O53  1  0.27527867  0.77980833  0.52750933  1
  O  O54  1  0.50452967  0.72472133  0.52750933  1
  O  O55  1  0.22019167  0.49547033  0.52750933  1
  O  O56  1  0.93740433  0.35213367  0.54031467  1
  O  O57  1  0.41472933  0.06259567  0.54031467  1
  O  O58  1  0.64786633  0.58527067  0.54031467  1
  O  O59  1  0.06259567  0.64786633  0.45968533  1
  O  O60  1  0.01880033  0.74806267  0.79301867  1
  O  O61  1  0.25193733  0.27073767  0.79301867  1
  O  O62  1  0.77864033  0.26898367  0.71451167  1
  O  O63  1  0.49034333  0.22135967  0.71451167  1
  O  O64  1  0.73101633  0.50965667  0.71451167  1
  O  O65  1  0.60231700  0.15701000  0.95215500  1
  O  O66  1  0.55469300  0.39768300  0.95215500  1
  O  O67  1  0.84299000  0.44530700  0.95215500  1
  O  O68  1  0.39138800  0.55352500  0.80582400  1
  O  O69  1  0.16213700  0.60861200  0.80582400  1
  O  O70  1  0.44647500  0.83786300  0.80582400  1
  O  O71  1  0.94194533  0.11314167  0.86084267  1
  O  O72  1  0.17119633  0.05805467  0.86084267  1
  O  O73  1  0.88685833  0.82880367  0.86084267  1
  O  O74  1  0.60407100  0.68546700  0.87364800  1
  O  O75  1  0.08139600  0.39592900  0.87364800  1
  O  O76  1  0.31453300  0.91860400  0.87364800  1
  O  O77  1  0.72926233  0.98119967  0.79301867  1
  O  O78  1  0.68546700  0.08139600  0.12635200  1
  O  O79  1  0.91860400  0.60407100  0.12635200  1
  O  O80  1  0.44530700  0.60231700  0.04784500  1
  O  O81  1  0.15701000  0.55469300  0.04784500  1
  O  O82  1  0.39768300  0.84299000  0.04784500  1
  O  O83  1  0.26898367  0.49034333  0.28548833  1
  O  O84  1  0.22135967  0.73101633  0.28548833  1
  O  O85  1  0.50965667  0.77864033  0.28548833  1
  O  O86  1  0.05805467  0.88685833  0.13915733  1
  O  O87  1  0.82880367  0.94194533  0.13915733  1
  O  O88  1  0.11314167  0.17119633  0.13915733  1
  O  O89  1  0.60861200  0.44647500  0.19417600  1
  O  O90  1  0.83786300  0.39138800  0.19417600  1
  O  O91  1  0.55352500  0.16213700  0.19417600  1
  O  O92  1  0.27073767  0.01880033  0.20698133  1
  O  O93  1  0.74806267  0.72926233  0.20698133  1
  O  O94  1  0.98119967  0.25193733  0.20698133  1
  O  O95  1  0.39592900  0.31453300  0.12635200  1
