# generated using pymatgen
data_Rb2Hf3OF12
_symmetry_space_group_name_H-M   'P 1'
_cell_length_a   7.75781369
_cell_length_b   7.75781369
_cell_length_c   30.27918904
_cell_angle_alpha   90.00000000
_cell_angle_beta   90.00000000
_cell_angle_gamma   120.00000000
_symmetry_Int_Tables_number   1
_chemical_formula_structural   Rb2Hf3OF12
_chemical_formula_sum   'Rb12 Hf18 O6 F72'
_cell_volume   1578.16919436
_cell_formula_units_Z   6
loop_
 _symmetry_equiv_pos_site_id
 _symmetry_equiv_pos_as_xyz
  1  'x, y, z'
loop_
 _atom_site_type_symbol
 _atom_site_label
 _atom_site_symmetry_multiplicity
 _atom_site_fract_x
 _atom_site_fract_y
 _atom_site_fract_z
 _atom_site_occupancy
  Rb  Rb0  1  0.00000000  0.00000000  0.00000000  1
  Rb  Rb1  1  0.33333333  0.66666667  0.16666667  1
  Rb  Rb2  1  0.00000000  0.00000000  0.13859000  1
  Rb  Rb3  1  0.66666667  0.33333333  0.19474333  1
  Rb  Rb4  1  0.66666667  0.33333333  0.33333333  1
  Rb  Rb5  1  1.00000000  1.00000000  0.50000000  1
  Rb  Rb6  1  0.66666667  0.33333333  0.47192333  1
  Rb  Rb7  1  0.33333333  0.66666667  0.52807667  1
  Rb  Rb8  1  0.33333333  0.66666667  0.66666667  1
  Rb  Rb9  1  0.66666667  0.33333333  0.83333333  1
  Rb  Rb10  1  0.33333333  0.66666667  0.80525667  1
  Rb  Rb11  1  0.00000000  0.00000000  0.86141000  1
  Hf  Hf12  1  0.51572933  0.48427067  0.05954167  1
  Hf  Hf13  1  0.51572933  0.03145867  0.05954167  1
  Hf  Hf14  1  0.96854133  0.48427067  0.05954167  1
  Hf  Hf15  1  0.69812533  0.84906267  0.27379167  1
  Hf  Hf16  1  0.15093733  0.30187467  0.27379167  1
  Hf  Hf17  1  0.15093733  0.84906267  0.27379167  1
  Hf  Hf18  1  0.18239600  0.81760400  0.39287500  1
  Hf  Hf19  1  0.18239600  0.36479200  0.39287500  1
  Hf  Hf20  1  0.63520800  0.81760400  0.39287500  1
  Hf  Hf21  1  0.36479200  0.18239600  0.60712500  1
  Hf  Hf22  1  0.81760400  0.63520800  0.60712500  1
  Hf  Hf23  1  0.81760400  0.18239600  0.60712500  1
  Hf  Hf24  1  0.84906267  0.15093733  0.72620833  1
  Hf  Hf25  1  0.84906267  0.69812533  0.72620833  1
  Hf  Hf26  1  0.30187467  0.15093733  0.72620833  1
  Hf  Hf27  1  0.03145867  0.51572933  0.94045833  1
  Hf  Hf28  1  0.48427067  0.96854133  0.94045833  1
  Hf  Hf29  1  0.48427067  0.51572933  0.94045833  1
  O  O30  1  0.00000000  0.00000000  0.28706700  1
  O  O31  1  0.66666667  0.33333333  0.04626633  1
  O  O32  1  0.66666667  0.33333333  0.62040033  1
  O  O33  1  0.33333333  0.66666667  0.37959967  1
  O  O34  1  0.33333333  0.66666667  0.95373367  1
  O  O35  1  0.00000000  0.00000000  0.71293300  1
  F  F36  1  0.44509433  0.89018867  0.26265167  1
  F  F37  1  0.10981133  0.55490567  0.26265167  1
  F  F38  1  0.44509433  0.55490567  0.26265167  1
  F  F39  1  0.22157233  0.44314467  0.07068167  1
  F  F40  1  0.55685533  0.77842767  0.07068167  1
  F  F41  1  0.22157233  0.77842767  0.07068167  1
  F  F42  1  0.33857133  0.16928567  0.25974267  1
  F  F43  1  0.83071433  0.16928567  0.25974267  1
  F  F44  1  0.35280100  0.00000000  0.00000000  1
  F  F45  1  0.64719900  0.64719900  0.00000000  1
  F  F46  1  0.00000000  0.35280100  0.00000000  1
  F  F47  1  0.64719900  0.00000000  0.00000000  1
  F  F48  1  0.35280100  0.35280100  0.00000000  1
  F  F49  1  0.00000000  0.64719900  0.00000000  1
  F  F50  1  0.52112600  0.04225200  0.12523000  1
  F  F51  1  0.52112600  0.47887400  0.12523000  1
  F  F52  1  0.95774800  0.47887400  0.12523000  1
  F  F53  1  0.70891867  0.85445933  0.20810333  1
  F  F54  1  0.14554067  0.29108133  0.20810333  1
  F  F55  1  0.14554067  0.85445933  0.20810333  1
  F  F56  1  0.32809533  0.16404767  0.07359067  1
  F  F57  1  0.83595233  0.67190467  0.07359067  1
  F  F58  1  0.83595233  0.16404767  0.07359067  1
  F  F59  1  0.83071433  0.66142867  0.25974267  1
  F  F60  1  0.11176100  0.22352200  0.59598500  1
  F  F61  1  0.77647800  0.88823900  0.59598500  1
  F  F62  1  0.11176100  0.88823900  0.59598500  1
  F  F63  1  0.88823900  0.77647800  0.40401500  1
  F  F64  1  0.22352200  0.11176100  0.40401500  1
  F  F65  1  0.88823900  0.11176100  0.40401500  1
  F  F66  1  0.00523800  0.50261900  0.59307600  1
  F  F67  1  0.49738100  0.50261900  0.59307600  1
  F  F68  1  0.01946767  0.33333333  0.33333333  1
  F  F69  1  0.31386567  0.98053233  0.33333333  1
  F  F70  1  0.66666667  0.68613433  0.33333333  1
  F  F71  1  0.31386567  0.33333333  0.33333333  1
  F  F72  1  0.01946767  0.68613433  0.33333333  1
  F  F73  1  0.66666667  0.98053233  0.33333333  1
  F  F74  1  0.18779267  0.37558533  0.45856333  1
  F  F75  1  0.18779267  0.81220733  0.45856333  1
  F  F76  1  0.62441467  0.81220733  0.45856333  1
  F  F77  1  0.37558533  0.18779267  0.54143667  1
  F  F78  1  0.81220733  0.62441467  0.54143667  1
  F  F79  1  0.81220733  0.18779267  0.54143667  1
  F  F80  1  0.99476200  0.49738100  0.40692400  1
  F  F81  1  0.50261900  0.00523800  0.40692400  1
  F  F82  1  0.50261900  0.49738100  0.40692400  1
  F  F83  1  0.49738100  0.99476200  0.59307600  1
  F  F84  1  0.77842767  0.55685533  0.92931833  1
  F  F85  1  0.44314467  0.22157233  0.92931833  1
  F  F86  1  0.77842767  0.22157233  0.92931833  1
  F  F87  1  0.55490567  0.10981133  0.73734833  1
  F  F88  1  0.89018867  0.44509433  0.73734833  1
  F  F89  1  0.55490567  0.44509433  0.73734833  1
  F  F90  1  0.67190467  0.83595233  0.92640933  1
  F  F91  1  0.16404767  0.83595233  0.92640933  1
  F  F92  1  0.68613433  0.66666667  0.66666667  1
  F  F93  1  0.98053233  0.31386567  0.66666667  1
  F  F94  1  0.33333333  0.01946767  0.66666667  1
  F  F95  1  0.98053233  0.66666667  0.66666667  1
  F  F96  1  0.68613433  0.01946767  0.66666667  1
  F  F97  1  0.33333333  0.31386567  0.66666667  1
  F  F98  1  0.85445933  0.70891867  0.79189667  1
  F  F99  1  0.85445933  0.14554067  0.79189667  1
  F  F100  1  0.29108133  0.14554067  0.79189667  1
  F  F101  1  0.04225200  0.52112600  0.87477000  1
  F  F102  1  0.47887400  0.95774800  0.87477000  1
  F  F103  1  0.47887400  0.52112600  0.87477000  1
  F  F104  1  0.66142867  0.83071433  0.74025733  1
  F  F105  1  0.16928567  0.33857133  0.74025733  1
  F  F106  1  0.16928567  0.83071433  0.74025733  1
  F  F107  1  0.16404767  0.32809533  0.92640933  1
