# generated using pymatgen
data_Tl2O3
_symmetry_space_group_name_H-M   'P 1'
_cell_length_a   10.77425400
_cell_length_b   10.77425400
_cell_length_c   10.77425400
_cell_angle_alpha   90.00000000
_cell_angle_beta   90.00000000
_cell_angle_gamma   90.00000000
_symmetry_Int_Tables_number   1
_chemical_formula_structural   Tl2O3
_chemical_formula_sum   'Tl32 O48'
_cell_volume   1250.72441917
_cell_formula_units_Z   16
loop_
 _symmetry_equiv_pos_site_id
 _symmetry_equiv_pos_as_xyz
  1  'x, y, z'
loop_
 _atom_site_type_symbol
 _atom_site_label
 _atom_site_symmetry_multiplicity
 _atom_site_fract_x
 _atom_site_fract_y
 _atom_site_fract_z
 _atom_site_occupancy
  Tl  Tl0  1  0.75000000  0.28407500  0.50000000  1
  Tl  Tl1  1  0.25000000  0.21592500  0.50000000  1
  Tl  Tl2  1  0.28407500  0.50000000  0.75000000  1
  Tl  Tl3  1  0.21592500  0.50000000  0.25000000  1
  Tl  Tl4  1  0.50000000  0.75000000  0.28407500  1
  Tl  Tl5  1  0.50000000  0.25000000  0.21592500  1
  Tl  Tl6  1  0.75000000  0.21592500  0.00000000  1
  Tl  Tl7  1  0.25000000  0.28407500  0.00000000  1
  Tl  Tl8  1  0.21592500  0.00000000  0.75000000  1
  Tl  Tl9  1  0.28407500  0.00000000  0.25000000  1
  Tl  Tl10  1  0.00000000  0.75000000  0.21592500  1
  Tl  Tl11  1  0.00000000  0.25000000  0.28407500  1
  Tl  Tl12  1  0.00000000  0.50000000  0.00000000  1
  Tl  Tl13  1  0.00000000  0.00000000  0.50000000  1
  Tl  Tl14  1  0.50000000  0.00000000  0.00000000  1
  Tl  Tl15  1  0.00000000  0.00000000  0.00000000  1
  Tl  Tl16  1  0.25000000  0.78407500  0.00000000  1
  Tl  Tl17  1  0.75000000  0.71592500  0.00000000  1
  Tl  Tl18  1  0.78407500  0.00000000  0.25000000  1
  Tl  Tl19  1  0.71592500  0.00000000  0.75000000  1
  Tl  Tl20  1  0.00000000  0.25000000  0.78407500  1
  Tl  Tl21  1  0.00000000  0.75000000  0.71592500  1
  Tl  Tl22  1  0.25000000  0.71592500  0.50000000  1
  Tl  Tl23  1  0.75000000  0.78407500  0.50000000  1
  Tl  Tl24  1  0.71592500  0.50000000  0.25000000  1
  Tl  Tl25  1  0.78407500  0.50000000  0.75000000  1
  Tl  Tl26  1  0.50000000  0.25000000  0.71592500  1
  Tl  Tl27  1  0.50000000  0.75000000  0.78407500  1
  Tl  Tl28  1  0.50000000  0.00000000  0.50000000  1
  Tl  Tl29  1  0.50000000  0.50000000  0.00000000  1
  Tl  Tl30  1  0.00000000  0.50000000  0.50000000  1
  Tl  Tl31  1  0.50000000  0.50000000  0.50000000  1
  O  O32  1  0.63425200  0.90461300  0.36243200  1
  O  O33  1  0.36574800  0.40461300  0.13756800  1
  O  O34  1  0.63425200  0.09538700  0.13756800  1
  O  O35  1  0.36574800  0.59538700  0.36243200  1
  O  O36  1  0.90461300  0.36243200  0.63425200  1
  O  O37  1  0.40461300  0.13756800  0.36574800  1
  O  O38  1  0.09538700  0.13756800  0.63425200  1
  O  O39  1  0.59538700  0.36243200  0.36574800  1
  O  O40  1  0.36243200  0.63425200  0.90461300  1
  O  O41  1  0.13756800  0.36574800  0.40461300  1
  O  O42  1  0.13756800  0.63425200  0.09538700  1
  O  O43  1  0.36243200  0.36574800  0.59538700  1
  O  O44  1  0.86574800  0.59538700  0.13756800  1
  O  O45  1  0.13425200  0.09538700  0.36243200  1
  O  O46  1  0.86574800  0.40461300  0.36243200  1
  O  O47  1  0.13425200  0.90461300  0.13756800  1
  O  O48  1  0.59538700  0.13756800  0.86574800  1
  O  O49  1  0.09538700  0.36243200  0.13425200  1
  O  O50  1  0.40461300  0.36243200  0.86574800  1
  O  O51  1  0.90461300  0.13756800  0.13425200  1
  O  O52  1  0.13756800  0.86574800  0.59538700  1
  O  O53  1  0.36243200  0.13425200  0.09538700  1
  O  O54  1  0.36243200  0.86574800  0.40461300  1
  O  O55  1  0.13756800  0.13425200  0.90461300  1
  O  O56  1  0.13425200  0.40461300  0.86243200  1
  O  O57  1  0.86574800  0.90461300  0.63756800  1
  O  O58  1  0.13425200  0.59538700  0.63756800  1
  O  O59  1  0.86574800  0.09538700  0.86243200  1
  O  O60  1  0.40461300  0.86243200  0.13425200  1
  O  O61  1  0.90461300  0.63756800  0.86574800  1
  O  O62  1  0.59538700  0.63756800  0.13425200  1
  O  O63  1  0.09538700  0.86243200  0.86574800  1
  O  O64  1  0.86243200  0.13425200  0.40461300  1
  O  O65  1  0.63756800  0.86574800  0.90461300  1
  O  O66  1  0.63756800  0.13425200  0.59538700  1
  O  O67  1  0.86243200  0.86574800  0.09538700  1
  O  O68  1  0.36574800  0.09538700  0.63756800  1
  O  O69  1  0.63425200  0.59538700  0.86243200  1
  O  O70  1  0.36574800  0.90461300  0.86243200  1
  O  O71  1  0.63425200  0.40461300  0.63756800  1
  O  O72  1  0.09538700  0.63756800  0.36574800  1
  O  O73  1  0.59538700  0.86243200  0.63425200  1
  O  O74  1  0.90461300  0.86243200  0.36574800  1
  O  O75  1  0.40461300  0.63756800  0.63425200  1
  O  O76  1  0.63756800  0.36574800  0.09538700  1
  O  O77  1  0.86243200  0.63425200  0.59538700  1
  O  O78  1  0.86243200  0.36574800  0.90461300  1
  O  O79  1  0.63756800  0.63425200  0.40461300  1
