# generated using pymatgen
data_AgHg3SbO6
_symmetry_space_group_name_H-M   'P 1'
_cell_length_a   9.89845046
_cell_length_b   9.89845046
_cell_length_c   12.80505055
_cell_angle_alpha   90.00000000
_cell_angle_beta   90.00000000
_cell_angle_gamma   120.00000000
_symmetry_Int_Tables_number   1
_chemical_formula_structural   AgHg3SbO6
_chemical_formula_sum   'Ag6 Hg18 Sb6 O36'
_cell_volume   1086.54159494
_cell_formula_units_Z   6
loop_
 _symmetry_equiv_pos_site_id
 _symmetry_equiv_pos_as_xyz
  1  'x, y, z'
loop_
 _atom_site_type_symbol
 _atom_site_label
 _atom_site_symmetry_multiplicity
 _atom_site_fract_x
 _atom_site_fract_y
 _atom_site_fract_z
 _atom_site_occupancy
  Ag  Ag0  1  0.33333333  0.66666667  0.91666667  1
  Ag  Ag1  1  0.33333333  0.66666667  0.41666667  1
  Ag  Ag2  1  0.00000000  0.00000000  0.25000000  1
  Ag  Ag3  1  0.00000000  0.00000000  0.75000000  1
  Ag  Ag4  1  0.66666667  0.33333333  0.58333333  1
  Ag  Ag5  1  0.66666667  0.33333333  0.08333333  1
  Hg  Hg6  1  0.66666667  0.68064333  0.08333333  1
  Hg  Hg7  1  0.31935667  0.98602333  0.08333333  1
  Hg  Hg8  1  0.00000000  0.65269000  0.25000000  1
  Hg  Hg9  1  0.34731000  0.34731000  0.25000000  1
  Hg  Hg10  1  0.01397667  0.33333333  0.08333333  1
  Hg  Hg11  1  0.65269000  0.00000000  0.25000000  1
  Hg  Hg12  1  0.33333333  0.01397667  0.41666667  1
  Hg  Hg13  1  0.98602333  0.31935667  0.41666667  1
  Hg  Hg14  1  0.66666667  0.98602333  0.58333333  1
  Hg  Hg15  1  0.01397667  0.68064333  0.58333333  1
  Hg  Hg16  1  0.68064333  0.66666667  0.41666667  1
  Hg  Hg17  1  0.31935667  0.33333333  0.58333333  1
  Hg  Hg18  1  0.00000000  0.34731000  0.75000000  1
  Hg  Hg19  1  0.65269000  0.65269000  0.75000000  1
  Hg  Hg20  1  0.33333333  0.31935667  0.91666667  1
  Hg  Hg21  1  0.68064333  0.01397667  0.91666667  1
  Hg  Hg22  1  0.34731000  0.00000000  0.75000000  1
  Hg  Hg23  1  0.98602333  0.66666667  0.91666667  1
  Sb  Sb24  1  0.00000000  0.00000000  0.00000000  1
  Sb  Sb25  1  0.33333333  0.66666667  0.16666667  1
  Sb  Sb26  1  0.66666667  0.33333333  0.33333333  1
  Sb  Sb27  1  0.00000000  0.00000000  0.50000000  1
  Sb  Sb28  1  0.33333333  0.66666667  0.66666667  1
  Sb  Sb29  1  0.66666667  0.33333333  0.83333333  1
  O  O30  1  0.52434733  0.75990167  0.26078767  1
  O  O31  1  0.24009833  0.76444567  0.26078767  1
  O  O32  1  0.23555433  0.47565267  0.26078767  1
  O  O33  1  0.76444567  0.24009833  0.23921233  1
  O  O34  1  0.75990167  0.52434733  0.23921233  1
  O  O35  1  0.47565267  0.23555433  0.23921233  1
  O  O36  1  0.14231933  0.57343167  0.07254567  1
  O  O37  1  0.42656833  0.56888767  0.07254567  1
  O  O38  1  0.43111233  0.85768067  0.07254567  1
  O  O39  1  0.90222100  0.09323500  0.09412100  1
  O  O40  1  0.19101400  0.09777900  0.09412100  1
  O  O41  1  0.90676500  0.80898600  0.09412100  1
  O  O42  1  0.19101400  0.09323500  0.59412100  1
  O  O43  1  0.90676500  0.09777900  0.59412100  1
  O  O44  1  0.90222100  0.80898600  0.59412100  1
  O  O45  1  0.43111233  0.57343167  0.57254567  1
  O  O46  1  0.42656833  0.85768067  0.57254567  1
  O  O47  1  0.14231933  0.56888767  0.57254567  1
  O  O48  1  0.80898600  0.90676500  0.40587900  1
  O  O49  1  0.09323500  0.90222100  0.40587900  1
  O  O50  1  0.09777900  0.19101400  0.40587900  1
  O  O51  1  0.56888767  0.42656833  0.42745433  1
  O  O52  1  0.85768067  0.43111233  0.42745433  1
  O  O53  1  0.57343167  0.14231933  0.42745433  1
  O  O54  1  0.85768067  0.42656833  0.92745433  1
  O  O55  1  0.57343167  0.43111233  0.92745433  1
  O  O56  1  0.56888767  0.14231933  0.92745433  1
  O  O57  1  0.09777900  0.90676500  0.90587900  1
  O  O58  1  0.09323500  0.19101400  0.90587900  1
  O  O59  1  0.80898600  0.90222100  0.90587900  1
  O  O60  1  0.47565267  0.24009833  0.73921233  1
  O  O61  1  0.75990167  0.23555433  0.73921233  1
  O  O62  1  0.76444567  0.52434733  0.73921233  1
  O  O63  1  0.23555433  0.75990167  0.76078767  1
  O  O64  1  0.52434733  0.76444567  0.76078767  1
  O  O65  1  0.24009833  0.47565267  0.76078767  1
