# generated using pymatgen
data_NaNb3O8
_symmetry_space_group_name_H-M   'P 1'
_cell_length_a   7.18135800
_cell_length_b   7.48238400
_cell_length_c   10.42116800
_cell_angle_alpha   90.00000000
_cell_angle_beta   90.00000000
_cell_angle_gamma   90.00000000
_symmetry_Int_Tables_number   1
_chemical_formula_structural   NaNb3O8
_chemical_formula_sum   'Na4 Nb12 O32'
_cell_volume   559.96768775
_cell_formula_units_Z   4
loop_
 _symmetry_equiv_pos_site_id
 _symmetry_equiv_pos_as_xyz
  1  'x, y, z'
loop_
 _atom_site_type_symbol
 _atom_site_label
 _atom_site_symmetry_multiplicity
 _atom_site_fract_x
 _atom_site_fract_y
 _atom_site_fract_z
 _atom_site_occupancy
  Na  Na0  1  0.75000000  0.00000000  0.00000000  1
  Na  Na1  1  0.25000000  0.00000000  0.00000000  1
  Na  Na2  1  0.25000000  0.50000000  0.50000000  1
  Na  Na3  1  0.75000000  0.50000000  0.50000000  1
  Nb  Nb4  1  0.00000000  0.75486750  0.23652550  1
  Nb  Nb5  1  0.00000000  0.24513250  0.76347450  1
  Nb  Nb6  1  0.50000000  0.75486750  0.76347450  1
  Nb  Nb7  1  0.50000000  0.24513250  0.23652550  1
  Nb  Nb8  1  0.75000000  0.50000000  0.00000000  1
  Nb  Nb9  1  0.25000000  0.50000000  0.00000000  1
  Nb  Nb10  1  0.50000000  0.25486750  0.73652550  1
  Nb  Nb11  1  0.50000000  0.74513250  0.26347450  1
  Nb  Nb12  1  0.00000000  0.25486750  0.26347450  1
  Nb  Nb13  1  0.00000000  0.74513250  0.73652550  1
  Nb  Nb14  1  0.25000000  0.00000000  0.50000000  1
  Nb  Nb15  1  0.75000000  0.00000000  0.50000000  1
  O  O16  1  0.29990000  0.30173100  0.86132400  1
  O  O17  1  0.29990000  0.69826900  0.13867600  1
  O  O18  1  0.20010000  0.30173100  0.13867600  1
  O  O19  1  0.20010000  0.69826900  0.86132400  1
  O  O20  1  0.70010000  0.69826900  0.13867600  1
  O  O21  1  0.70010000  0.30173100  0.86132400  1
  O  O22  1  0.79990000  0.69826900  0.86132400  1
  O  O23  1  0.79990000  0.30173100  0.13867600  1
  O  O24  1  0.50000000  0.51804750  0.33537350  1
  O  O25  1  0.50000000  0.48195250  0.66462650  1
  O  O26  1  0.00000000  0.51804750  0.66462650  1
  O  O27  1  0.00000000  0.48195250  0.33537350  1
  O  O28  1  0.50000000  0.39564200  0.07822100  1
  O  O29  1  0.50000000  0.60435800  0.92177900  1
  O  O30  1  0.00000000  0.39564200  0.92177900  1
  O  O31  1  0.00000000  0.60435800  0.07822100  1
  O  O32  1  0.79990000  0.80173100  0.36132400  1
  O  O33  1  0.79990000  0.19826900  0.63867600  1
  O  O34  1  0.70010000  0.80173100  0.63867600  1
  O  O35  1  0.70010000  0.19826900  0.36132400  1
  O  O36  1  0.20010000  0.19826900  0.63867600  1
  O  O37  1  0.20010000  0.80173100  0.36132400  1
  O  O38  1  0.29990000  0.19826900  0.36132400  1
  O  O39  1  0.29990000  0.80173100  0.63867600  1
  O  O40  1  0.00000000  0.01804750  0.83537350  1
  O  O41  1  0.00000000  0.98195250  0.16462650  1
  O  O42  1  0.50000000  0.01804750  0.16462650  1
  O  O43  1  0.50000000  0.98195250  0.83537350  1
  O  O44  1  0.00000000  0.89564200  0.57822100  1
  O  O45  1  0.00000000  0.10435800  0.42177900  1
  O  O46  1  0.50000000  0.89564200  0.42177900  1
  O  O47  1  0.50000000  0.10435800  0.57822100  1
