# generated using pymatgen
data_KB(S2O7)2
_symmetry_space_group_name_H-M   'P 1'
_cell_length_a   11.78338800
_cell_length_b   15.10690800
_cell_length_c   14.10173872
_cell_angle_alpha   90.00000000
_cell_angle_beta   94.18366795
_cell_angle_gamma   90.00000000
_symmetry_Int_Tables_number   1
_chemical_formula_structural   KB(S2O7)2
_chemical_formula_sum   'K8 B8 S32 O112'
_cell_volume   2503.56933167
_cell_formula_units_Z   8
loop_
 _symmetry_equiv_pos_site_id
 _symmetry_equiv_pos_as_xyz
  1  'x, y, z'
loop_
 _atom_site_type_symbol
 _atom_site_label
 _atom_site_symmetry_multiplicity
 _atom_site_fract_x
 _atom_site_fract_y
 _atom_site_fract_z
 _atom_site_occupancy
  K  K0  1  0.11854500  0.03026100  0.67210200  1
  K  K1  1  0.11854500  0.96973900  0.17210200  1
  K  K2  1  0.70337300  0.01507700  0.75104000  1
  K  K3  1  0.70337300  0.98492300  0.25104000  1
  K  K4  1  0.61854500  0.53026100  0.67210200  1
  K  K5  1  0.61854500  0.46973900  0.17210200  1
  K  K6  1  0.20337300  0.51507700  0.75104000  1
  K  K7  1  0.20337300  0.48492300  0.25104000  1
  B  B8  1  0.39623750  0.21683650  0.45624700  1
  B  B9  1  0.39623750  0.78316350  0.95624700  1
  B  B10  1  0.44098750  0.76422250  0.44472400  1
  B  B11  1  0.44098750  0.23577750  0.94472400  1
  B  B12  1  0.89623750  0.71683650  0.45624700  1
  B  B13  1  0.89623750  0.28316350  0.95624700  1
  B  B14  1  0.94098750  0.26422250  0.44472400  1
  B  B15  1  0.94098750  0.73577750  0.94472400  1
  S  S16  1  0.52390050  0.78383750  0.80249400  1
  S  S17  1  0.52390050  0.21616250  0.30249400  1
  S  S18  1  0.27748600  0.79746500  0.79121100  1
  S  S19  1  0.27748600  0.20253500  0.29121100  1
  S  S20  1  0.41963900  0.15861900  0.63450200  1
  S  S21  1  0.41963900  0.84138100  0.13450200  1
  S  S22  1  0.38704350  0.34265650  0.59329200  1
  S  S23  1  0.38704350  0.65734350  0.09329200  1
  S  S24  1  0.47546300  0.59512500  0.40266700  1
  S  S25  1  0.47546300  0.40487500  0.90266700  1
  S  S26  1  0.83181850  0.14349950  0.54832000  1
  S  S27  1  0.83181850  0.85650050  0.04832000  1
  S  S28  1  0.31327500  0.08892400  0.92888100  1
  S  S29  1  0.31327500  0.91107600  0.42888100  1
  S  S30  1  0.55137150  0.08084450  0.98844200  1
  S  S31  1  0.55137150  0.91915550  0.48844200  1
  S  S32  1  0.02390050  0.28383750  0.80249400  1
  S  S33  1  0.02390050  0.71616250  0.30249400  1
  S  S34  1  0.77748600  0.29746500  0.79121100  1
  S  S35  1  0.77748600  0.70253500  0.29121100  1
  S  S36  1  0.91963900  0.65861900  0.63450200  1
  S  S37  1  0.91963900  0.34138100  0.13450200  1
  S  S38  1  0.88704350  0.84265650  0.59329200  1
  S  S39  1  0.88704350  0.15734350  0.09329200  1
  S  S40  1  0.97546300  0.09512500  0.40266700  1
  S  S41  1  0.97546300  0.90487500  0.90266700  1
  S  S42  1  0.33181850  0.64349950  0.54832000  1
  S  S43  1  0.33181850  0.35650050  0.04832000  1
  S  S44  1  0.81327500  0.58892400  0.92888100  1
  S  S45  1  0.81327500  0.41107600  0.42888100  1
  S  S46  1  0.05137150  0.58084450  0.98844200  1
  S  S47  1  0.05137150  0.41915550  0.48844200  1
  O  O48  1  0.56915250  0.71246050  0.75086900  1
  O  O49  1  0.56915250  0.28753950  0.25086900  1
  O  O50  1  0.58484150  0.86524350  0.81505600  1
  O  O51  1  0.58484150  0.13475650  0.31505600  1
  O  O52  1  0.74970550  0.20510750  0.78816200  1
  O  O53  1  0.74970550  0.79489250  0.28816200  1
  O  O54  1  0.20451250  0.86100550  0.74388300  1
  O  O55  1  0.20451250  0.13899450  0.24388300  1
  O  O56  1  0.30138650  0.14364550  0.64535600  1
  O  O57  1  0.30138650  0.85635450  0.14535600  1
  O  O58  1  0.50512950  0.11242150  0.69135000  1
  O  O59  1  0.50512950  0.88757850  0.19135000  1
  O  O60  1  0.47808150  0.40105050  0.57441000  1
  O  O61  1  0.47808150  0.59894950  0.07441000  1
  O  O62  1  0.79209650  0.87314350  0.64162900  1
  O  O63  1  0.79209650  0.12685650  0.14162900  1
  O  O64  1  0.45831650  0.54349850  0.31787700  1
  O  O65  1  0.45831650  0.45650150  0.81787700  1
  O  O66  1  0.56770000  0.57710400  0.47147100  1
  O  O67  1  0.56770000  0.42289600  0.97147100  1
  O  O68  1  0.71470700  0.16725100  0.53735700  1
  O  O69  1  0.71470700  0.83274900  0.03735700  1
  O  O70  1  0.87522300  0.09302600  0.62916600  1
  O  O71  1  0.87522300  0.90697400  0.12916600  1
  O  O72  1  0.24675800  0.04947600  0.85170100  1
  O  O73  1  0.24675800  0.95052400  0.35170100  1
  O  O74  1  0.27984250  0.91524450  0.52399800  1
  O  O75  1  0.27984250  0.08475550  0.02399800  1
  O  O76  1  0.53759350  0.06612450  0.08692900  1
  O  O77  1  0.53759350  0.93387550  0.58692900  1
  O  O78  1  0.64585300  0.04394900  0.94426200  1
  O  O79  1  0.64585300  0.95605100  0.44426200  1
  O  O80  1  0.48547500  0.74707600  0.89787900  1
  O  O81  1  0.48547500  0.25292400  0.39787900  1
  O  O82  1  0.30806850  0.82942750  0.89522700  1
  O  O83  1  0.30806850  0.17057250  0.39522700  1
  O  O84  1  0.44664650  0.15413850  0.52818200  1
  O  O85  1  0.44664650  0.84586150  0.02818200  1
  O  O86  1  0.34097750  0.29169050  0.50332900  1
  O  O87  1  0.34097750  0.70830950  0.00332900  1
  O  O88  1  0.46859050  0.69479350  0.37555700  1
  O  O89  1  0.46859050  0.30520650  0.87555700  1
  O  O90  1  0.41361550  0.72230950  0.53621800  1
  O  O91  1  0.41361550  0.27769050  0.03621800  1
  O  O92  1  0.34442250  0.81500050  0.39961200  1
  O  O93  1  0.34442250  0.18499950  0.89961200  1
  O  O94  1  0.54308300  0.18087500  0.96291500  1
  O  O95  1  0.54308300  0.81912500  0.46291500  1
  O  O96  1  0.40035300  0.81133100  0.74472900  1
  O  O97  1  0.40035300  0.18866900  0.24472900  1
  O  O98  1  0.44952700  0.26296100  0.65830300  1
  O  O99  1  0.44952700  0.73703900  0.15830300  1
  O  O100  1  0.85347550  0.08361250  0.45193600  1
  O  O101  1  0.85347550  0.91638750  0.95193600  1
  O  O102  1  0.43969500  0.04065300  0.92453800  1
  O  O103  1  0.43969500  0.95934700  0.42453800  1
  O  O104  1  0.06915250  0.21246050  0.75086900  1
  O  O105  1  0.06915250  0.78753950  0.25086900  1
  O  O106  1  0.08484150  0.36524350  0.81505600  1
  O  O107  1  0.08484150  0.63475650  0.31505600  1
  O  O108  1  0.24970550  0.70510750  0.78816200  1
  O  O109  1  0.24970550  0.29489250  0.28816200  1
  O  O110  1  0.70451250  0.36100550  0.74388300  1
  O  O111  1  0.70451250  0.63899450  0.24388300  1
  O  O112  1  0.80138650  0.64364550  0.64535600  1
  O  O113  1  0.80138650  0.35635450  0.14535600  1
  O  O114  1  0.00512950  0.61242150  0.69135000  1
  O  O115  1  0.00512950  0.38757850  0.19135000  1
  O  O116  1  0.97808150  0.90105050  0.57441000  1
  O  O117  1  0.97808150  0.09894950  0.07441000  1
  O  O118  1  0.29209650  0.37314350  0.64162900  1
  O  O119  1  0.29209650  0.62685650  0.14162900  1
  O  O120  1  0.95831650  0.04349850  0.31787700  1
  O  O121  1  0.95831650  0.95650150  0.81787700  1
  O  O122  1  0.06770000  0.07710400  0.47147100  1
  O  O123  1  0.06770000  0.92289600  0.97147100  1
  O  O124  1  0.21470700  0.66725100  0.53735700  1
  O  O125  1  0.21470700  0.33274900  0.03735700  1
  O  O126  1  0.37522300  0.59302600  0.62916600  1
  O  O127  1  0.37522300  0.40697400  0.12916600  1
  O  O128  1  0.74675800  0.54947600  0.85170100  1
  O  O129  1  0.74675800  0.45052400  0.35170100  1
  O  O130  1  0.77984250  0.41524450  0.52399800  1
  O  O131  1  0.77984250  0.58475550  0.02399800  1
  O  O132  1  0.03759350  0.56612450  0.08692900  1
  O  O133  1  0.03759350  0.43387550  0.58692900  1
  O  O134  1  0.14585300  0.54394900  0.94426200  1
  O  O135  1  0.14585300  0.45605100  0.44426200  1
  O  O136  1  0.98547500  0.24707600  0.89787900  1
  O  O137  1  0.98547500  0.75292400  0.39787900  1
  O  O138  1  0.80806850  0.32942750  0.89522700  1
  O  O139  1  0.80806850  0.67057250  0.39522700  1
  O  O140  1  0.94664650  0.65413850  0.52818200  1
  O  O141  1  0.94664650  0.34586150  0.02818200  1
  O  O142  1  0.84097750  0.79169050  0.50332900  1
  O  O143  1  0.84097750  0.20830950  0.00332900  1
  O  O144  1  0.96859050  0.19479350  0.37555700  1
  O  O145  1  0.96859050  0.80520650  0.87555700  1
  O  O146  1  0.91361550  0.22230950  0.53621800  1
  O  O147  1  0.91361550  0.77769050  0.03621800  1
  O  O148  1  0.84442250  0.31500050  0.39961200  1
  O  O149  1  0.84442250  0.68499950  0.89961200  1
  O  O150  1  0.04308300  0.68087500  0.96291500  1
  O  O151  1  0.04308300  0.31912500  0.46291500  1
  O  O152  1  0.90035300  0.31133100  0.74472900  1
  O  O153  1  0.90035300  0.68866900  0.24472900  1
  O  O154  1  0.94952700  0.76296100  0.65830300  1
  O  O155  1  0.94952700  0.23703900  0.15830300  1
  O  O156  1  0.35347550  0.58361250  0.45193600  1
  O  O157  1  0.35347550  0.41638750  0.95193600  1
  O  O158  1  0.93969500  0.54065300  0.92453800  1
  O  O159  1  0.93969500  0.45934700  0.42453800  1
