# generated using pymatgen
data_BaNaNd(SiO3)3
_symmetry_space_group_name_H-M   'P 1'
_cell_length_a   5.73224300
_cell_length_b   11.69211500
_cell_length_c   12.76310000
_cell_angle_alpha   90.00000000
_cell_angle_beta   90.00000000
_cell_angle_gamma   90.00000000
_symmetry_Int_Tables_number   1
_chemical_formula_structural   BaNaNd(SiO3)3
_chemical_formula_sum   'Ba4 Na4 Nd4 Si12 O36'
_cell_volume   855.40905442
_cell_formula_units_Z   4
loop_
 _symmetry_equiv_pos_site_id
 _symmetry_equiv_pos_as_xyz
  1  'x, y, z'
loop_
 _atom_site_type_symbol
 _atom_site_label
 _atom_site_symmetry_multiplicity
 _atom_site_fract_x
 _atom_site_fract_y
 _atom_site_fract_z
 _atom_site_occupancy
  Ba  Ba0  1  0.10404700  0.61847400  0.07965500  1
  Ba  Ba1  1  0.60404700  0.88152600  0.92034500  1
  Ba  Ba2  1  0.89595300  0.11847400  0.42034500  1
  Ba  Ba3  1  0.39595300  0.38152600  0.57965500  1
  Na  Na4  1  0.06539100  0.28722100  0.10396400  1
  Na  Na5  1  0.56539100  0.21277900  0.89603600  1
  Na  Na6  1  0.43460900  0.71277900  0.60396400  1
  Na  Na7  1  0.93460900  0.78722100  0.39603600  1
  Nd  Nd8  1  0.38657300  0.02777500  0.63988500  1
  Nd  Nd9  1  0.88657300  0.47222500  0.36011500  1
  Nd  Nd10  1  0.61342700  0.52777500  0.86011500  1
  Nd  Nd11  1  0.11342700  0.97222500  0.13988500  1
  Si  Si12  1  0.10105900  0.08735100  0.87687800  1
  Si  Si13  1  0.60098800  0.80350200  0.18696500  1
  Si  Si14  1  0.89901200  0.19649800  0.68696500  1
  Si  Si15  1  0.10098800  0.69649800  0.81303500  1
  Si  Si16  1  0.40503600  0.65351900  0.35602600  1
  Si  Si17  1  0.90503600  0.84648100  0.64397400  1
  Si  Si18  1  0.59496400  0.15351900  0.14397400  1
  Si  Si19  1  0.09496400  0.34648100  0.85602600  1
  Si  Si20  1  0.39894100  0.91264900  0.37687800  1
  Si  Si21  1  0.89894100  0.58735100  0.62312200  1
  Si  Si22  1  0.39901200  0.30350200  0.31303500  1
  Si  Si23  1  0.60105900  0.41264900  0.12312200  1
  O  O24  1  0.14709600  0.94204000  0.32544400  1
  O  O25  1  0.64709600  0.55796000  0.67455600  1
  O  O26  1  0.85290400  0.44204000  0.17455600  1
  O  O27  1  0.35290400  0.05796000  0.82544400  1
  O  O28  1  0.34329800  0.68419400  0.87667900  1
  O  O29  1  0.84329800  0.81580600  0.12332100  1
  O  O30  1  0.65670200  0.18419400  0.62332100  1
  O  O31  1  0.15670200  0.31580600  0.37667900  1
  O  O32  1  0.50539800  0.50110600  0.03681500  1
  O  O33  1  0.00539800  0.99889400  0.96318500  1
  O  O34  1  0.49460200  0.00110600  0.46318500  1
  O  O35  1  0.99460200  0.49889400  0.53681500  1
  O  O36  1  0.39214400  0.77788100  0.42515000  1
  O  O37  1  0.89214400  0.72211900  0.57485000  1
  O  O38  1  0.08928300  0.81844600  0.74385200  1
  O  O39  1  0.60785600  0.27788100  0.07485000  1
  O  O40  1  0.37317400  0.81225900  0.11210700  1
  O  O41  1  0.87317400  0.68774100  0.88789300  1
  O  O42  1  0.62682600  0.31225900  0.38789300  1
  O  O43  1  0.12682600  0.18774100  0.61210700  1
  O  O44  1  0.09878000  0.59628100  0.71876700  1
  O  O45  1  0.59878000  0.90371900  0.28123300  1
  O  O46  1  0.90122000  0.09628100  0.78123300  1
  O  O47  1  0.40122000  0.40371900  0.21876700  1
  O  O48  1  0.35770600  0.37346300  0.81571900  1
  O  O49  1  0.85770600  0.12653700  0.18428100  1
  O  O50  1  0.64229400  0.87346300  0.68428100  1
  O  O51  1  0.14229400  0.62653700  0.31571900  1
  O  O52  1  0.96402400  0.43985100  0.92795900  1
  O  O53  1  0.46402400  0.06014900  0.07204100  1
  O  O54  1  0.03597600  0.93985100  0.57204100  1
  O  O55  1  0.53597600  0.56014900  0.42795900  1
  O  O56  1  0.41071700  0.18155400  0.24385200  1
  O  O57  1  0.91071700  0.31844600  0.75614800  1
  O  O58  1  0.58928300  0.68155400  0.25614800  1
  O  O59  1  0.10785600  0.22211900  0.92515000  1
