# generated using pymatgen
data_MnO2
_symmetry_space_group_name_H-M   'P 1'
_cell_length_a   9.92008069
_cell_length_b   9.92008069
_cell_length_c   2.92510505
_cell_angle_alpha   90.00000000
_cell_angle_beta   90.00000000
_cell_angle_gamma   90.00000000
_symmetry_Int_Tables_number   1
_chemical_formula_structural   MnO2
_chemical_formula_sum   'Mn8 O16'
_cell_volume   287.85374052
_cell_formula_units_Z   8
loop_
 _symmetry_equiv_pos_site_id
 _symmetry_equiv_pos_as_xyz
  1  'x, y, z'
loop_
 _atom_site_type_symbol
 _atom_site_label
 _atom_site_symmetry_multiplicity
 _atom_site_fract_x
 _atom_site_fract_y
 _atom_site_fract_z
 _atom_site_occupancy
  Mn  Mn0  1  0.83297700  0.65168300  0.00000000  1
  Mn  Mn1  1  0.15168300  0.66702300  0.50000000  1
  Mn  Mn2  1  0.84831700  0.33297700  0.50000000  1
  Mn  Mn3  1  0.16702300  0.34831700  0.00000000  1
  Mn  Mn4  1  0.33297700  0.15168300  0.50000000  1
  Mn  Mn5  1  0.65168300  0.16702300  0.00000000  1
  Mn  Mn6  1  0.34831700  0.83297700  0.00000000  1
  Mn  Mn7  1  0.66702300  0.84831700  0.50000000  1
  O  O8  1  0.04261950  0.33517050  0.50000000  1
  O  O9  1  0.83517050  0.45738050  0.00000000  1
  O  O10  1  0.16482950  0.54261950  0.00000000  1
  O  O11  1  0.95738050  0.66482950  0.50000000  1
  O  O12  1  0.70409800  0.65643900  0.50000000  1
  O  O13  1  0.15643900  0.79590200  0.00000000  1
  O  O14  1  0.29590200  0.34356100  0.50000000  1
  O  O15  1  0.84356100  0.20409800  0.00000000  1
  O  O16  1  0.54261950  0.83517050  0.00000000  1
  O  O17  1  0.33517050  0.95738050  0.50000000  1
  O  O18  1  0.66482950  0.04261950  0.50000000  1
  O  O19  1  0.45738050  0.16482950  0.00000000  1
  O  O20  1  0.20409800  0.15643900  0.00000000  1
  O  O21  1  0.65643900  0.29590200  0.50000000  1
  O  O22  1  0.79590200  0.84356100  0.00000000  1
  O  O23  1  0.34356100  0.70409800  0.50000000  1
