# generated using pymatgen
data_Ga8(Pb3O7)3
_symmetry_space_group_name_H-M   'P 1'
_cell_length_a   13.67694500
_cell_length_b   13.67694500
_cell_length_c   13.67694500
_cell_angle_alpha   90.00000000
_cell_angle_beta   90.00000000
_cell_angle_gamma   90.00000000
_symmetry_Int_Tables_number   1
_chemical_formula_structural   Ga8(Pb3O7)3
_chemical_formula_sum   'Ga32 Pb36 O84'
_cell_volume   2558.39325490
_cell_formula_units_Z   4
loop_
 _symmetry_equiv_pos_site_id
 _symmetry_equiv_pos_as_xyz
  1  'x, y, z'
loop_
 _atom_site_type_symbol
 _atom_site_label
 _atom_site_symmetry_multiplicity
 _atom_site_fract_x
 _atom_site_fract_y
 _atom_site_fract_z
 _atom_site_occupancy
  Ga  Ga0  1  0.21863200  0.45291200  0.10613500  1
  Ga  Ga1  1  0.10613500  0.21863200  0.45291200  1
  Ga  Ga2  1  0.45291200  0.10613500  0.21863200  1
  Ga  Ga3  1  0.04708800  0.89386500  0.71863200  1
  Ga  Ga4  1  0.60613500  0.28136800  0.54708800  1
  Ga  Ga5  1  0.54708800  0.60613500  0.28136800  1
  Ga  Ga6  1  0.39386500  0.78136800  0.95291200  1
  Ga  Ga7  1  0.89386500  0.71863200  0.04708800  1
  Ga  Ga8  1  0.95291200  0.39386500  0.78136800  1
  Ga  Ga9  1  0.71863200  0.04708800  0.89386500  1
  Ga  Ga10  1  0.78136800  0.95291200  0.39386500  1
  Ga  Ga11  1  0.28136800  0.54708800  0.60613500  1
  Ga  Ga12  1  0.78136800  0.54708800  0.89386500  1
  Ga  Ga13  1  0.89386500  0.78136800  0.54708800  1
  Ga  Ga14  1  0.54708800  0.89386500  0.78136800  1
  Ga  Ga15  1  0.95291200  0.10613500  0.28136800  1
  Ga  Ga16  1  0.39386500  0.71863200  0.45291200  1
  Ga  Ga17  1  0.45291200  0.39386500  0.71863200  1
  Ga  Ga18  1  0.60613500  0.21863200  0.04708800  1
  Ga  Ga19  1  0.10613500  0.28136800  0.95291200  1
  Ga  Ga20  1  0.04708800  0.60613500  0.21863200  1
  Ga  Ga21  1  0.28136800  0.95291200  0.10613500  1
  Ga  Ga22  1  0.21863200  0.04708800  0.60613500  1
  Ga  Ga23  1  0.71863200  0.45291200  0.39386500  1
  Ga  Ga24  1  0.07681500  0.07681500  0.07681500  1
  Ga  Ga25  1  0.42318500  0.92318500  0.57681500  1
  Ga  Ga26  1  0.57681500  0.42318500  0.92318500  1
  Ga  Ga27  1  0.92318500  0.57681500  0.42318500  1
  Ga  Ga28  1  0.92318500  0.92318500  0.92318500  1
  Ga  Ga29  1  0.57681500  0.07681500  0.42318500  1
  Ga  Ga30  1  0.42318500  0.57681500  0.07681500  1
  Ga  Ga31  1  0.07681500  0.42318500  0.57681500  1
  Pb  Pb32  1  0.26130400  0.95924000  0.37738400  1
  Pb  Pb33  1  0.37738400  0.26130400  0.95924000  1
  Pb  Pb34  1  0.95924000  0.37738400  0.26130400  1
  Pb  Pb35  1  0.54076000  0.62261600  0.76130400  1
  Pb  Pb36  1  0.87738400  0.23869600  0.04076000  1
  Pb  Pb37  1  0.04076000  0.87738400  0.23869600  1
  Pb  Pb38  1  0.12261600  0.73869600  0.45924000  1
  Pb  Pb39  1  0.62261600  0.76130400  0.54076000  1
  Pb  Pb40  1  0.45924000  0.12261600  0.73869600  1
  Pb  Pb41  1  0.76130400  0.54076000  0.62261600  1
  Pb  Pb42  1  0.73869600  0.45924000  0.12261600  1
  Pb  Pb43  1  0.23869600  0.04076000  0.87738400  1
  Pb  Pb44  1  0.73869600  0.04076000  0.62261600  1
  Pb  Pb45  1  0.62261600  0.73869600  0.04076000  1
  Pb  Pb46  1  0.04076000  0.62261600  0.73869600  1
  Pb  Pb47  1  0.45924000  0.37738400  0.23869600  1
  Pb  Pb48  1  0.12261600  0.76130400  0.95924000  1
  Pb  Pb49  1  0.95924000  0.12261600  0.76130400  1
  Pb  Pb50  1  0.87738400  0.26130400  0.54076000  1
  Pb  Pb51  1  0.37738400  0.23869600  0.45924000  1
  Pb  Pb52  1  0.54076000  0.87738400  0.26130400  1
  Pb  Pb53  1  0.23869600  0.45924000  0.37738400  1
  Pb  Pb54  1  0.26130400  0.54076000  0.87738400  1
  Pb  Pb55  1  0.76130400  0.95924000  0.12261600  1
  Pb  Pb56  1  0.50000000  0.50000000  0.50000000  1
  Pb  Pb57  1  0.00000000  0.50000000  0.00000000  1
  Pb  Pb58  1  0.00000000  0.00000000  0.50000000  1
  Pb  Pb59  1  0.50000000  0.00000000  0.00000000  1
  Pb  Pb60  1  0.22572000  0.22572000  0.22572000  1
  Pb  Pb61  1  0.27428000  0.77428000  0.72572000  1
  Pb  Pb62  1  0.72572000  0.27428000  0.77428000  1
  Pb  Pb63  1  0.77428000  0.72572000  0.27428000  1
  Pb  Pb64  1  0.77428000  0.77428000  0.77428000  1
  Pb  Pb65  1  0.72572000  0.22572000  0.27428000  1
  Pb  Pb66  1  0.27428000  0.72572000  0.22572000  1
  Pb  Pb67  1  0.22572000  0.27428000  0.72572000  1
  O  O68  1  0.05695900  0.05088900  0.21043000  1
  O  O69  1  0.21043000  0.05695900  0.05088900  1
  O  O70  1  0.05088900  0.21043000  0.05695900  1
  O  O71  1  0.44911100  0.78957000  0.55695900  1
  O  O72  1  0.71043000  0.44304100  0.94911100  1
  O  O73  1  0.94911100  0.71043000  0.44304100  1
  O  O74  1  0.28957000  0.94304100  0.55088900  1
  O  O75  1  0.78957000  0.55695900  0.44911100  1
  O  O76  1  0.55088900  0.28957000  0.94304100  1
  O  O77  1  0.55695900  0.44911100  0.78957000  1
  O  O78  1  0.94304100  0.55088900  0.28957000  1
  O  O79  1  0.44304100  0.94911100  0.71043000  1
  O  O80  1  0.94304100  0.94911100  0.78957000  1
  O  O81  1  0.78957000  0.94304100  0.94911100  1
  O  O82  1  0.94911100  0.78957000  0.94304100  1
  O  O83  1  0.55088900  0.21043000  0.44304100  1
  O  O84  1  0.28957000  0.55695900  0.05088900  1
  O  O85  1  0.05088900  0.28957000  0.55695900  1
  O  O86  1  0.71043000  0.05695900  0.44911100  1
  O  O87  1  0.21043000  0.44304100  0.55088900  1
  O  O88  1  0.44911100  0.71043000  0.05695900  1
  O  O89  1  0.44304100  0.55088900  0.21043000  1
  O  O90  1  0.05695900  0.44911100  0.71043000  1
  O  O91  1  0.55695900  0.05088900  0.28957000  1
  O  O92  1  0.70738300  0.62582100  0.81229300  1
  O  O93  1  0.81229300  0.70738300  0.62582100  1
  O  O94  1  0.62582100  0.81229300  0.70738300  1
  O  O95  1  0.87417900  0.18770700  0.20738300  1
  O  O96  1  0.31229300  0.79261700  0.37417900  1
  O  O97  1  0.37417900  0.31229300  0.79261700  1
  O  O98  1  0.68770700  0.29261700  0.12582100  1
  O  O99  1  0.18770700  0.20738300  0.87417900  1
  O  O100  1  0.12582100  0.68770700  0.29261700  1
  O  O101  1  0.20738300  0.87417900  0.18770700  1
  O  O102  1  0.29261700  0.12582100  0.68770700  1
  O  O103  1  0.79261700  0.37417900  0.31229300  1
  O  O104  1  0.29261700  0.37417900  0.18770700  1
  O  O105  1  0.18770700  0.29261700  0.37417900  1
  O  O106  1  0.37417900  0.18770700  0.29261700  1
  O  O107  1  0.12582100  0.81229300  0.79261700  1
  O  O108  1  0.68770700  0.20738300  0.62582100  1
  O  O109  1  0.62582100  0.68770700  0.20738300  1
  O  O110  1  0.31229300  0.70738300  0.87417900  1
  O  O111  1  0.81229300  0.79261700  0.12582100  1
  O  O112  1  0.87417900  0.31229300  0.70738300  1
  O  O113  1  0.79261700  0.12582100  0.81229300  1
  O  O114  1  0.70738300  0.87417900  0.31229300  1
  O  O115  1  0.20738300  0.62582100  0.68770700  1
  O  O116  1  0.00000000  0.00000000  0.00000000  1
  O  O117  1  0.50000000  0.00000000  0.50000000  1
  O  O118  1  0.50000000  0.50000000  0.00000000  1
  O  O119  1  0.00000000  0.50000000  0.50000000  1
  O  O120  1  0.39460800  0.50865700  0.67179400  1
  O  O121  1  0.67179400  0.39460800  0.50865700  1
  O  O122  1  0.50865700  0.67179400  0.39460800  1
  O  O123  1  0.99134300  0.32820600  0.89460800  1
  O  O124  1  0.17179400  0.10539200  0.49134300  1
  O  O125  1  0.49134300  0.17179400  0.10539200  1
  O  O126  1  0.82820600  0.60539200  0.00865700  1
  O  O127  1  0.32820600  0.89460800  0.99134300  1
  O  O128  1  0.00865700  0.82820600  0.60539200  1
  O  O129  1  0.89460800  0.99134300  0.32820600  1
  O  O130  1  0.60539200  0.00865700  0.82820600  1
  O  O131  1  0.10539200  0.49134300  0.17179400  1
  O  O132  1  0.60539200  0.49134300  0.32820600  1
  O  O133  1  0.32820600  0.60539200  0.49134300  1
  O  O134  1  0.49134300  0.32820600  0.60539200  1
  O  O135  1  0.00865700  0.67179400  0.10539200  1
  O  O136  1  0.82820600  0.89460800  0.50865700  1
  O  O137  1  0.50865700  0.82820600  0.89460800  1
  O  O138  1  0.17179400  0.39460800  0.99134300  1
  O  O139  1  0.67179400  0.10539200  0.00865700  1
  O  O140  1  0.99134300  0.17179400  0.39460800  1
  O  O141  1  0.10539200  0.00865700  0.67179400  1
  O  O142  1  0.39460800  0.99134300  0.17179400  1
  O  O143  1  0.89460800  0.50865700  0.82820600  1
  O  O144  1  0.39168900  0.39168900  0.39168900  1
  O  O145  1  0.10831100  0.60831100  0.89168900  1
  O  O146  1  0.89168900  0.10831100  0.60831100  1
  O  O147  1  0.60831100  0.89168900  0.10831100  1
  O  O148  1  0.60831100  0.60831100  0.60831100  1
  O  O149  1  0.89168900  0.39168900  0.10831100  1
  O  O150  1  0.10831100  0.89168900  0.39168900  1
  O  O151  1  0.39168900  0.10831100  0.89168900  1
