# generated using pymatgen
data_SrNb6O16
_symmetry_space_group_name_H-M   'P 1'
_cell_length_a   10.54200400
_cell_length_b   15.03064200
_cell_length_c   3.91688000
_cell_angle_alpha   90.00000000
_cell_angle_beta   90.00000000
_cell_angle_gamma   90.00000000
_symmetry_Int_Tables_number   1
_chemical_formula_structural   SrNb6O16
_chemical_formula_sum   'Sr2 Nb12 O32'
_cell_volume   620.64173166
_cell_formula_units_Z   2
loop_
 _symmetry_equiv_pos_site_id
 _symmetry_equiv_pos_as_xyz
  1  'x, y, z'
loop_
 _atom_site_type_symbol
 _atom_site_label
 _atom_site_symmetry_multiplicity
 _atom_site_fract_x
 _atom_site_fract_y
 _atom_site_fract_z
 _atom_site_occupancy
  Sr  Sr0  1  0.50000000  0.10153800  0.50000000  1
  Sr  Sr1  1  0.00000000  0.60153800  0.50000000  1
  Nb  Nb2  1  0.81274200  0.18520400  0.00000000  1
  Nb  Nb3  1  0.68101450  0.93914050  0.00000000  1
  Nb  Nb4  1  0.31898550  0.93914050  0.00000000  1
  Nb  Nb5  1  0.50000000  0.29371600  0.00000000  1
  Nb  Nb6  1  0.50000000  0.50671500  0.00000000  1
  Nb  Nb7  1  0.18725800  0.18520400  0.00000000  1
  Nb  Nb8  1  0.31274200  0.68520400  0.00000000  1
  Nb  Nb9  1  0.18101450  0.43914050  0.00000000  1
  Nb  Nb10  1  0.81898550  0.43914050  0.00000000  1
  Nb  Nb11  1  0.00000000  0.79371600  0.00000000  1
  Nb  Nb12  1  0.00000000  0.00671500  0.00000000  1
  Nb  Nb13  1  0.68725800  0.68520400  0.00000000  1
  O  O14  1  0.50000000  0.98839700  0.00000000  1
  O  O15  1  0.50000000  0.64269400  0.00000000  1
  O  O16  1  0.64950600  0.81659000  0.00000000  1
  O  O17  1  0.35049400  0.81659000  0.00000000  1
  O  O18  1  0.19186350  0.04628950  0.00000000  1
  O  O19  1  0.80813650  0.04628950  0.00000000  1
  O  O20  1  0.37181300  0.18495800  0.00000000  1
  O  O21  1  0.50000000  0.49663200  0.50000000  1
  O  O22  1  0.50000000  0.27523500  0.50000000  1
  O  O23  1  0.32949250  0.96259650  0.50000000  1
  O  O24  1  0.67050750  0.96259650  0.50000000  1
  O  O25  1  0.31572650  0.68880750  0.50000000  1
  O  O26  1  0.68427350  0.68880750  0.50000000  1
  O  O27  1  0.12466950  0.88895050  0.00000000  1
  O  O28  1  0.87533050  0.88895050  0.00000000  1
  O  O29  1  0.62818700  0.18495800  0.00000000  1
  O  O30  1  0.00000000  0.48839700  0.00000000  1
  O  O31  1  0.00000000  0.14269400  0.00000000  1
  O  O32  1  0.14950600  0.31659000  0.00000000  1
  O  O33  1  0.85049400  0.31659000  0.00000000  1
  O  O34  1  0.69186350  0.54628950  0.00000000  1
  O  O35  1  0.30813650  0.54628950  0.00000000  1
  O  O36  1  0.87181300  0.68495800  0.00000000  1
  O  O37  1  0.00000000  0.99663200  0.50000000  1
  O  O38  1  0.00000000  0.77523500  0.50000000  1
  O  O39  1  0.82949250  0.46259650  0.50000000  1
  O  O40  1  0.17050750  0.46259650  0.50000000  1
  O  O41  1  0.81572650  0.18880750  0.50000000  1
  O  O42  1  0.18427350  0.18880750  0.50000000  1
  O  O43  1  0.62466950  0.38895050  0.00000000  1
  O  O44  1  0.37533050  0.38895050  0.00000000  1
  O  O45  1  0.12818700  0.68495800  0.00000000  1
