# generated using pymatgen
data_Zn3TeO6
_symmetry_space_group_name_H-M   'P 1'
_cell_length_a   15.12515600
_cell_length_b   8.97618200
_cell_length_c   10.54130878
_cell_angle_alpha   90.00000000
_cell_angle_beta   92.82899180
_cell_angle_gamma   90.00000000
_symmetry_Int_Tables_number   1
_chemical_formula_structural   Zn3TeO6
_chemical_formula_sum   'Zn36 Te12 O72'
_cell_volume   1429.40878311
_cell_formula_units_Z   12
loop_
 _symmetry_equiv_pos_site_id
 _symmetry_equiv_pos_as_xyz
  1  'x, y, z'
loop_
 _atom_site_type_symbol
 _atom_site_label
 _atom_site_symmetry_multiplicity
 _atom_site_fract_x
 _atom_site_fract_y
 _atom_site_fract_z
 _atom_site_occupancy
  Zn  Zn0  1  0.50000000  0.29909200  0.25000000  1
  Zn  Zn1  1  0.50000000  0.70090800  0.75000000  1
  Zn  Zn2  1  0.47265650  0.85009750  0.44770300  1
  Zn  Zn3  1  0.52734350  0.85009750  0.05229700  1
  Zn  Zn4  1  0.52734350  0.14990250  0.55229700  1
  Zn  Zn5  1  0.47265650  0.14990250  0.94770300  1
  Zn  Zn6  1  0.63585400  0.63729700  0.25746400  1
  Zn  Zn7  1  0.36414600  0.63729700  0.24253600  1
  Zn  Zn8  1  0.36414600  0.36270300  0.74253600  1
  Zn  Zn9  1  0.63585400  0.36270300  0.75746400  1
  Zn  Zn10  1  0.79616750  0.86101850  0.07467900  1
  Zn  Zn11  1  0.20383250  0.86101850  0.42532100  1
  Zn  Zn12  1  0.20383250  0.13898150  0.92532100  1
  Zn  Zn13  1  0.79616750  0.13898150  0.57467900  1
  Zn  Zn14  1  0.33783500  0.23637600  0.44131200  1
  Zn  Zn15  1  0.66216500  0.23637600  0.05868800  1
  Zn  Zn16  1  0.66216500  0.76362400  0.55868800  1
  Zn  Zn17  1  0.33783500  0.76362400  0.94131200  1
  Zn  Zn18  1  0.00000000  0.79909200  0.25000000  1
  Zn  Zn19  1  0.00000000  0.20090800  0.75000000  1
  Zn  Zn20  1  0.97265650  0.35009750  0.44770300  1
  Zn  Zn21  1  0.02734350  0.35009750  0.05229700  1
  Zn  Zn22  1  0.02734350  0.64990250  0.55229700  1
  Zn  Zn23  1  0.97265650  0.64990250  0.94770300  1
  Zn  Zn24  1  0.13585400  0.13729700  0.25746400  1
  Zn  Zn25  1  0.86414600  0.13729700  0.24253600  1
  Zn  Zn26  1  0.86414600  0.86270300  0.74253600  1
  Zn  Zn27  1  0.13585400  0.86270300  0.75746400  1
  Zn  Zn28  1  0.29616750  0.36101850  0.07467900  1
  Zn  Zn29  1  0.70383250  0.36101850  0.42532100  1
  Zn  Zn30  1  0.70383250  0.63898150  0.92532100  1
  Zn  Zn31  1  0.29616750  0.63898150  0.57467900  1
  Zn  Zn32  1  0.83783500  0.73637600  0.44131200  1
  Zn  Zn33  1  0.16216500  0.73637600  0.05868800  1
  Zn  Zn34  1  0.16216500  0.26362400  0.55868800  1
  Zn  Zn35  1  0.83783500  0.26362400  0.94131200  1
  Te  Te36  1  0.00000000  0.00000000  0.50000000  1
  Te  Te37  1  0.00000000  0.00000000  0.00000000  1
  Te  Te38  1  0.33564600  0.00178400  0.19445900  1
  Te  Te39  1  0.66435400  0.00178400  0.30554100  1
  Te  Te40  1  0.66435400  0.99821600  0.80554100  1
  Te  Te41  1  0.33564600  0.99821600  0.69445900  1
  Te  Te42  1  0.50000000  0.50000000  0.50000000  1
  Te  Te43  1  0.50000000  0.50000000  0.00000000  1
  Te  Te44  1  0.83564600  0.50178400  0.19445900  1
  Te  Te45  1  0.16435400  0.50178400  0.30554100  1
  Te  Te46  1  0.16435400  0.49821600  0.80554100  1
  Te  Te47  1  0.83564600  0.49821600  0.69445900  1
  O  O48  1  0.57132500  0.66061700  0.42890500  1
  O  O49  1  0.42867500  0.66061700  0.07109500  1
  O  O50  1  0.42867500  0.33938300  0.57109500  1
  O  O51  1  0.57132500  0.33938300  0.92890500  1
  O  O52  1  0.57215100  0.99779500  0.42773800  1
  O  O53  1  0.42784900  0.99779500  0.07226200  1
  O  O54  1  0.42784900  0.00220500  0.57226200  1
  O  O55  1  0.57215100  0.00220500  0.92773800  1
  O  O56  1  0.61026700  0.84198900  0.20096700  1
  O  O57  1  0.38973300  0.84198900  0.29903300  1
  O  O58  1  0.38973300  0.15801100  0.79903300  1
  O  O59  1  0.61026700  0.15801100  0.70096700  1
  O  O60  1  0.72404600  0.84502400  0.40516100  1
  O  O61  1  0.27595400  0.84502400  0.09483900  1
  O  O62  1  0.39842400  0.15731800  0.29484800  1
  O  O63  1  0.27595400  0.15497600  0.59483900  1
  O  O64  1  0.24104250  0.01826550  0.31735700  1
  O  O65  1  0.75895750  0.01826550  0.18264300  1
  O  O66  1  0.75895750  0.98173450  0.68264300  1
  O  O67  1  0.24104250  0.98173450  0.81735700  1
  O  O68  1  0.26323850  0.14985750  0.09964300  1
  O  O69  1  0.73676150  0.14985750  0.40035700  1
  O  O70  1  0.73676150  0.85014250  0.90035700  1
  O  O71  1  0.26323850  0.85014250  0.59964300  1
  O  O72  1  0.92991350  0.02270650  0.84203500  1
  O  O73  1  0.07008650  0.02270650  0.65796500  1
  O  O74  1  0.07008650  0.97729350  0.15796500  1
  O  O75  1  0.92991350  0.97729350  0.34203500  1
  O  O76  1  0.42653300  0.66400200  0.55948600  1
  O  O77  1  0.57346700  0.66400200  0.94051400  1
  O  O78  1  0.57346700  0.33599800  0.44051400  1
  O  O79  1  0.42653300  0.33599800  0.05948600  1
  O  O80  1  0.39842400  0.84268200  0.79484800  1
  O  O81  1  0.60157600  0.84268200  0.70515200  1
  O  O82  1  0.60157600  0.15731800  0.20515200  1
  O  O83  1  0.72404600  0.15497600  0.90516100  1
  O  O84  1  0.07132500  0.16061700  0.42890500  1
  O  O85  1  0.92867500  0.16061700  0.07109500  1
  O  O86  1  0.92867500  0.83938300  0.57109500  1
  O  O87  1  0.07132500  0.83938300  0.92890500  1
  O  O88  1  0.07215100  0.49779500  0.42773800  1
  O  O89  1  0.92784900  0.49779500  0.07226200  1
  O  O90  1  0.92784900  0.50220500  0.57226200  1
  O  O91  1  0.07215100  0.50220500  0.92773800  1
  O  O92  1  0.11026700  0.34198900  0.20096700  1
  O  O93  1  0.88973300  0.34198900  0.29903300  1
  O  O94  1  0.88973300  0.65801100  0.79903300  1
  O  O95  1  0.11026700  0.65801100  0.70096700  1
  O  O96  1  0.22404600  0.34502400  0.40516100  1
  O  O97  1  0.77595400  0.34502400  0.09483900  1
  O  O98  1  0.89842400  0.65731800  0.29484800  1
  O  O99  1  0.77595400  0.65497600  0.59483900  1
  O  O100  1  0.74104250  0.51826550  0.31735700  1
  O  O101  1  0.25895750  0.51826550  0.18264300  1
  O  O102  1  0.25895750  0.48173450  0.68264300  1
  O  O103  1  0.74104250  0.48173450  0.81735700  1
  O  O104  1  0.76323850  0.64985750  0.09964300  1
  O  O105  1  0.23676150  0.64985750  0.40035700  1
  O  O106  1  0.23676150  0.35014250  0.90035700  1
  O  O107  1  0.76323850  0.35014250  0.59964300  1
  O  O108  1  0.42991350  0.52270650  0.84203500  1
  O  O109  1  0.57008650  0.52270650  0.65796500  1
  O  O110  1  0.57008650  0.47729350  0.15796500  1
  O  O111  1  0.42991350  0.47729350  0.34203500  1
  O  O112  1  0.92653300  0.16400200  0.55948600  1
  O  O113  1  0.07346700  0.16400200  0.94051400  1
  O  O114  1  0.07346700  0.83599800  0.44051400  1
  O  O115  1  0.92653300  0.83599800  0.05948600  1
  O  O116  1  0.89842400  0.34268200  0.79484800  1
  O  O117  1  0.10157600  0.34268200  0.70515200  1
  O  O118  1  0.10157600  0.65731800  0.20515200  1
  O  O119  1  0.22404600  0.65497600  0.90516100  1
