# generated using pymatgen
data_Na3Fe(PO4)2
_symmetry_space_group_name_H-M   'P 1'
_cell_length_a   9.20225400
_cell_length_b   5.08793400
_cell_length_c   14.07404237
_cell_angle_alpha   90.00000000
_cell_angle_beta   92.01532055
_cell_angle_gamma   90.00000000
_symmetry_Int_Tables_number   1
_chemical_formula_structural   Na3Fe(PO4)2
_chemical_formula_sum   'Na12 Fe4 P8 O32'
_cell_volume   658.54556251
_cell_formula_units_Z   4
loop_
 _symmetry_equiv_pos_site_id
 _symmetry_equiv_pos_as_xyz
  1  'x, y, z'
loop_
 _atom_site_type_symbol
 _atom_site_label
 _atom_site_symmetry_multiplicity
 _atom_site_fract_x
 _atom_site_fract_y
 _atom_site_fract_z
 _atom_site_occupancy
  Na  Na0  1  0.00000000  0.04934000  0.75000000  1
  Na  Na1  1  0.00000000  0.95066000  0.25000000  1
  Na  Na2  1  0.83090150  0.54143350  0.86610800  1
  Na  Na3  1  0.66909850  0.04143350  0.63389200  1
  Na  Na4  1  0.83090150  0.45856650  0.36610800  1
  Na  Na5  1  0.66909850  0.95856650  0.13389200  1
  Na  Na6  1  0.50000000  0.54934000  0.75000000  1
  Na  Na7  1  0.50000000  0.45066000  0.25000000  1
  Na  Na8  1  0.33090150  0.04143350  0.86610800  1
  Na  Na9  1  0.16909850  0.54143350  0.63389200  1
  Na  Na10  1  0.33090150  0.95856650  0.36610800  1
  Na  Na11  1  0.16909850  0.45856650  0.13389200  1
  Fe  Fe12  1  0.00000000  0.00000000  0.50000000  1
  Fe  Fe13  1  0.00000000  0.00000000  0.00000000  1
  Fe  Fe14  1  0.50000000  0.50000000  0.50000000  1
  Fe  Fe15  1  0.50000000  0.50000000  0.00000000  1
  P  P16  1  0.66802350  0.01983150  0.88732400  1
  P  P17  1  0.66802350  0.98016850  0.38732400  1
  P  P18  1  0.83197650  0.51983150  0.61267600  1
  P  P19  1  0.83197650  0.48016850  0.11267600  1
  P  P20  1  0.16802350  0.51983150  0.88732400  1
  P  P21  1  0.16802350  0.48016850  0.38732400  1
  P  P22  1  0.33197650  0.01983150  0.61267600  1
  P  P23  1  0.33197650  0.98016850  0.11267600  1
  O  O24  1  0.67143950  0.39967950  0.08472900  1
  O  O25  1  0.82856050  0.89967950  0.41527100  1
  O  O26  1  0.82856050  0.10032050  0.91527100  1
  O  O27  1  0.67143950  0.60032050  0.58472900  1
  O  O28  1  0.92520450  0.22087750  0.11494600  1
  O  O29  1  0.57479550  0.72087750  0.38505400  1
  O  O30  1  0.57479550  0.27912250  0.88505400  1
  O  O31  1  0.92520450  0.77912250  0.61494600  1
  O  O32  1  0.89073850  0.67292550  0.03751200  1
  O  O33  1  0.60926150  0.17292550  0.46248800  1
  O  O34  1  0.60926150  0.82707450  0.96248800  1
  O  O35  1  0.89073850  0.32707450  0.53751200  1
  O  O36  1  0.83468000  0.38650900  0.70991300  1
  O  O37  1  0.66532000  0.88650900  0.79008700  1
  O  O38  1  0.66532000  0.11349100  0.29008700  1
  O  O39  1  0.83468000  0.61349100  0.20991300  1
  O  O40  1  0.17143950  0.89967950  0.08472900  1
  O  O41  1  0.32856050  0.39967950  0.41527100  1
  O  O42  1  0.32856050  0.60032050  0.91527100  1
  O  O43  1  0.17143950  0.10032050  0.58472900  1
  O  O44  1  0.42520450  0.72087750  0.11494600  1
  O  O45  1  0.07479550  0.22087750  0.38505400  1
  O  O46  1  0.07479550  0.77912250  0.88505400  1
  O  O47  1  0.42520450  0.27912250  0.61494600  1
  O  O48  1  0.39073850  0.17292550  0.03751200  1
  O  O49  1  0.10926150  0.67292550  0.46248800  1
  O  O50  1  0.10926150  0.32707450  0.96248800  1
  O  O51  1  0.39073850  0.82707450  0.53751200  1
  O  O52  1  0.33468000  0.88650900  0.70991300  1
  O  O53  1  0.16532000  0.38650900  0.79008700  1
  O  O54  1  0.16532000  0.61349100  0.29008700  1
  O  O55  1  0.33468000  0.11349100  0.20991300  1
