# generated using pymatgen
data_Ce(PO3)4
_symmetry_space_group_name_H-M   'P 1'
_cell_length_a   14.00086000
_cell_length_b   30.21282600
_cell_length_c   9.13782295
_cell_angle_alpha   90.00000000
_cell_angle_beta   90.08868544
_cell_angle_gamma   90.00000000
_symmetry_Int_Tables_number   1
_chemical_formula_structural   Ce(PO3)4
_chemical_formula_sum   'Ce16 P64 O192'
_cell_volume   3865.34516372
_cell_formula_units_Z   16
loop_
 _symmetry_equiv_pos_site_id
 _symmetry_equiv_pos_as_xyz
  1  'x, y, z'
loop_
 _atom_site_type_symbol
 _atom_site_label
 _atom_site_symmetry_multiplicity
 _atom_site_fract_x
 _atom_site_fract_y
 _atom_site_fract_z
 _atom_site_occupancy
  Ce  Ce0  1  0.50000000  0.43054100  0.25000000  1
  Ce  Ce1  1  0.00000000  0.06945900  0.75000000  1
  Ce  Ce2  1  0.75978550  0.18069350  0.25036500  1
  Ce  Ce3  1  0.24021450  0.18069350  0.24963500  1
  Ce  Ce4  1  0.74021450  0.31930650  0.74963500  1
  Ce  Ce5  1  0.25978550  0.31930650  0.75036500  1
  Ce  Ce6  1  0.00000000  0.43184900  0.25000000  1
  Ce  Ce7  1  0.50000000  0.06815100  0.75000000  1
  Ce  Ce8  1  0.00000000  0.93054100  0.25000000  1
  Ce  Ce9  1  0.50000000  0.56945900  0.75000000  1
  Ce  Ce10  1  0.25978550  0.68069350  0.25036500  1
  Ce  Ce11  1  0.74021450  0.68069350  0.24963500  1
  Ce  Ce12  1  0.24021450  0.81930650  0.74963500  1
  Ce  Ce13  1  0.75978550  0.81930650  0.75036500  1
  Ce  Ce14  1  0.50000000  0.93184900  0.25000000  1
  Ce  Ce15  1  0.00000000  0.56815100  0.75000000  1
  P  P16  1  0.89408250  0.25901550  0.01194200  1
  P  P17  1  0.10591750  0.25901550  0.48805800  1
  P  P18  1  0.60591750  0.24098450  0.98805800  1
  P  P19  1  0.39408250  0.24098450  0.51194200  1
  P  P20  1  0.39312050  0.25878550  0.02744900  1
  P  P21  1  0.60687950  0.25878550  0.47255100  1
  P  P22  1  0.10687950  0.24121450  0.97255100  1
  P  P23  1  0.89312050  0.24121450  0.52744900  1
  P  P24  1  0.85620500  0.00663800  0.01705000  1
  P  P25  1  0.14379500  0.00663800  0.48295000  1
  P  P26  1  0.64379500  0.49336200  0.98295000  1
  P  P27  1  0.35620500  0.49336200  0.51705000  1
  P  P28  1  0.35570800  0.01126500  0.02212600  1
  P  P29  1  0.64429200  0.01126500  0.47787400  1
  P  P30  1  0.14429200  0.48873500  0.97787400  1
  P  P31  1  0.85570800  0.48873500  0.52212600  1
  P  P32  1  0.82659750  0.15692650  0.63986500  1
  P  P33  1  0.17340250  0.15692650  0.86013500  1
  P  P34  1  0.67340250  0.34307350  0.36013500  1
  P  P35  1  0.32659750  0.34307350  0.13986500  1
  P  P36  1  0.32760100  0.15685800  0.63344900  1
  P  P37  1  0.67239900  0.15685800  0.86655100  1
  P  P38  1  0.17239900  0.34314200  0.36655100  1
  P  P39  1  0.82760100  0.34314200  0.13344900  1
  P  P40  1  0.57849500  0.09498400  0.36188000  1
  P  P41  1  0.42150500  0.09498400  0.13812000  1
  P  P42  1  0.92150500  0.40501600  0.63812000  1
  P  P43  1  0.07849500  0.40501600  0.86188000  1
  P  P44  1  0.07575950  0.09078750  0.36515100  1
  P  P45  1  0.92424050  0.09078750  0.13484900  1
  P  P46  1  0.42424050  0.40921250  0.63484900  1
  P  P47  1  0.57575950  0.40921250  0.86515100  1
  P  P48  1  0.39408250  0.75901550  0.01194200  1
  P  P49  1  0.60591750  0.75901550  0.48805800  1
  P  P50  1  0.10591750  0.74098450  0.98805800  1
  P  P51  1  0.89408250  0.74098450  0.51194200  1
  P  P52  1  0.89312050  0.75878550  0.02744900  1
  P  P53  1  0.10687950  0.75878550  0.47255100  1
  P  P54  1  0.60687950  0.74121450  0.97255100  1
  P  P55  1  0.39312050  0.74121450  0.52744900  1
  P  P56  1  0.35620500  0.50663800  0.01705000  1
  P  P57  1  0.64379500  0.50663800  0.48295000  1
  P  P58  1  0.14379500  0.99336200  0.98295000  1
  P  P59  1  0.85620500  0.99336200  0.51705000  1
  P  P60  1  0.85570800  0.51126500  0.02212600  1
  P  P61  1  0.14429200  0.51126500  0.47787400  1
  P  P62  1  0.64429200  0.98873500  0.97787400  1
  P  P63  1  0.35570800  0.98873500  0.52212600  1
  P  P64  1  0.32659750  0.65692650  0.63986500  1
  P  P65  1  0.67340250  0.65692650  0.86013500  1
  P  P66  1  0.17340250  0.84307350  0.36013500  1
  P  P67  1  0.82659750  0.84307350  0.13986500  1
  P  P68  1  0.82760100  0.65685800  0.63344900  1
  P  P69  1  0.17239900  0.65685800  0.86655100  1
  P  P70  1  0.67239900  0.84314200  0.36655100  1
  P  P71  1  0.32760100  0.84314200  0.13344900  1
  P  P72  1  0.07849500  0.59498400  0.36188000  1
  P  P73  1  0.92150500  0.59498400  0.13812000  1
  P  P74  1  0.42150500  0.90501600  0.63812000  1
  P  P75  1  0.57849500  0.90501600  0.86188000  1
  P  P76  1  0.57575950  0.59078750  0.36515100  1
  P  P77  1  0.42424050  0.59078750  0.13484900  1
  P  P78  1  0.92424050  0.90921250  0.63484900  1
  P  P79  1  0.07575950  0.90921250  0.86515100  1
  O  O80  1  0.49902350  0.24061850  0.04835200  1
  O  O81  1  0.50097650  0.24061850  0.45164800  1
  O  O82  1  0.00097650  0.25938150  0.95164800  1
  O  O83  1  0.99902350  0.25938150  0.54835200  1
  O  O84  1  0.24382200  0.32402100  0.24410900  1
  O  O85  1  0.75617800  0.32402100  0.25589100  1
  O  O86  1  0.25617800  0.17597900  0.75589100  1
  O  O87  1  0.74382200  0.17597900  0.74410900  1
  O  O88  1  0.00000000  0.07149100  0.25000000  1
  O  O89  1  0.50000000  0.42850900  0.75000000  1
  O  O90  1  0.50000000  0.07540200  0.25000000  1
  O  O91  1  0.00000000  0.42459800  0.75000000  1
  O  O92  1  0.84998350  0.44708750  0.63268100  1
  O  O93  1  0.15001650  0.44708750  0.86731900  1
  O  O94  1  0.65001650  0.05291250  0.36731900  1
  O  O95  1  0.34998350  0.05291250  0.13268100  1
  O  O96  1  0.35348250  0.45095250  0.62473800  1
  O  O97  1  0.64651750  0.45095250  0.87526200  1
  O  O98  1  0.14651750  0.04904750  0.37526200  1
  O  O99  1  0.85348250  0.04904750  0.12473800  1
  O  O100  1  0.60173250  0.19905950  0.87816300  1
  O  O101  1  0.39826750  0.19905950  0.62183700  1
  O  O102  1  0.89826750  0.30094050  0.12183700  1
  O  O103  1  0.10173250  0.30094050  0.37816300  1
  O  O104  1  0.10355500  0.19946200  0.86237200  1
  O  O105  1  0.89644500  0.19946200  0.63762800  1
  O  O106  1  0.39644500  0.30053800  0.13762800  1
  O  O107  1  0.60355500  0.30053800  0.36237200  1
  O  O108  1  0.74912350  0.00839550  0.95657900  1
  O  O109  1  0.25087650  0.00839550  0.54342100  1
  O  O110  1  0.75087650  0.49160450  0.04342100  1
  O  O111  1  0.24912350  0.49160450  0.45657900  1
  O  O112  1  0.83150400  0.27009100  0.88262200  1
  O  O113  1  0.16849600  0.27009100  0.61737800  1
  O  O114  1  0.66849600  0.22990900  0.11737800  1
  O  O115  1  0.33150400  0.22990900  0.38262200  1
  O  O116  1  0.62735850  0.28306250  0.90918700  1
  O  O117  1  0.37264150  0.28306250  0.59081300  1
  O  O118  1  0.87264150  0.21693750  0.09081300  1
  O  O119  1  0.12735850  0.21693750  0.40918700  1
  O  O120  1  0.37454500  0.27530400  0.87500200  1
  O  O121  1  0.62545500  0.27530400  0.62499800  1
  O  O122  1  0.12545500  0.22469600  0.12499800  1
  O  O123  1  0.87454500  0.22469600  0.37500200  1
  O  O124  1  0.32891800  0.22293400  0.08393300  1
  O  O125  1  0.67108200  0.22293400  0.41606700  1
  O  O126  1  0.17108200  0.27706600  0.91606700  1
  O  O127  1  0.82891800  0.27706600  0.58393300  1
  O  O128  1  0.07933000  0.01693500  0.61078100  1
  O  O129  1  0.92067000  0.01693500  0.88921900  1
  O  O130  1  0.42067000  0.48306500  0.38921900  1
  O  O131  1  0.57933000  0.48306500  0.11078100  1
  O  O132  1  0.62474900  0.46517800  0.39887900  1
  O  O133  1  0.37525100  0.46517800  0.10112100  1
  O  O134  1  0.87525100  0.03482200  0.60112100  1
  O  O135  1  0.12474900  0.03482200  0.89887900  1
  O  O136  1  0.62728900  0.02717400  0.63152000  1
  O  O137  1  0.37271100  0.02717400  0.86848000  1
  O  O138  1  0.87271100  0.47282600  0.36848000  1
  O  O139  1  0.12728900  0.47282600  0.13152000  1
  O  O140  1  0.07705000  0.47657400  0.41939500  1
  O  O141  1  0.92295000  0.47657400  0.08060500  1
  O  O142  1  0.42295000  0.02342600  0.58060500  1
  O  O143  1  0.57705000  0.02342600  0.91939500  1
  O  O144  1  0.78735350  0.14748850  0.49055700  1
  O  O145  1  0.21264650  0.14748850  0.00944300  1
  O  O146  1  0.71264650  0.35251150  0.50944300  1
  O  O147  1  0.28735350  0.35251150  0.99055700  1
  O  O148  1  0.12027050  0.12100850  0.77974600  1
  O  O149  1  0.87972950  0.12100850  0.72025400  1
  O  O150  1  0.37972950  0.37899150  0.22025400  1
  O  O151  1  0.62027050  0.37899150  0.27974600  1
  O  O152  1  0.27724300  0.14867500  0.49161300  1
  O  O153  1  0.72275700  0.14867500  0.00838700  1
  O  O154  1  0.22275700  0.35132500  0.50838700  1
  O  O155  1  0.77724300  0.35132500  0.99161300  1
  O  O156  1  0.61718350  0.11923950  0.79869400  1
  O  O157  1  0.38281650  0.11923950  0.70130600  1
  O  O158  1  0.88281650  0.38076050  0.20130600  1
  O  O159  1  0.11718350  0.38076050  0.29869400  1
  O  O160  1  0.03466900  0.39735800  0.00932400  1
  O  O161  1  0.96533100  0.39735800  0.49067600  1
  O  O162  1  0.46533100  0.10264200  0.99067600  1
  O  O163  1  0.53466900  0.10264200  0.50932400  1
  O  O164  1  0.86889000  0.36773600  0.71190700  1
  O  O165  1  0.13111000  0.36773600  0.78809300  1
  O  O166  1  0.63111000  0.13226400  0.28809300  1
  O  O167  1  0.36889000  0.13226400  0.21190700  1
  O  O168  1  0.52957750  0.39984250  0.00974300  1
  O  O169  1  0.47042250  0.39984250  0.49025700  1
  O  O170  1  0.97042250  0.10015750  0.99025700  1
  O  O171  1  0.02957750  0.10015750  0.50974300  1
  O  O172  1  0.36994500  0.37272300  0.70933400  1
  O  O173  1  0.63005500  0.37272300  0.79066600  1
  O  O174  1  0.13005500  0.12727700  0.29066600  1
  O  O175  1  0.86994500  0.12727700  0.20933400  1
  O  O176  1  0.99902350  0.74061850  0.04835200  1
  O  O177  1  0.00097650  0.74061850  0.45164800  1
  O  O178  1  0.50097650  0.75938150  0.95164800  1
  O  O179  1  0.49902350  0.75938150  0.54835200  1
  O  O180  1  0.74382200  0.82402100  0.24410900  1
  O  O181  1  0.25617800  0.82402100  0.25589100  1
  O  O182  1  0.75617800  0.67597900  0.75589100  1
  O  O183  1  0.24382200  0.67597900  0.74410900  1
  O  O184  1  0.50000000  0.57149100  0.25000000  1
  O  O185  1  0.00000000  0.92850900  0.75000000  1
  O  O186  1  0.00000000  0.57540200  0.25000000  1
  O  O187  1  0.50000000  0.92459800  0.75000000  1
  O  O188  1  0.34998350  0.94708750  0.63268100  1
  O  O189  1  0.65001650  0.94708750  0.86731900  1
  O  O190  1  0.15001650  0.55291250  0.36731900  1
  O  O191  1  0.84998350  0.55291250  0.13268100  1
  O  O192  1  0.85348250  0.95095250  0.62473800  1
  O  O193  1  0.14651750  0.95095250  0.87526200  1
  O  O194  1  0.64651750  0.54904750  0.37526200  1
  O  O195  1  0.35348250  0.54904750  0.12473800  1
  O  O196  1  0.10173250  0.69905950  0.87816300  1
  O  O197  1  0.89826750  0.69905950  0.62183700  1
  O  O198  1  0.39826750  0.80094050  0.12183700  1
  O  O199  1  0.60173250  0.80094050  0.37816300  1
  O  O200  1  0.60355500  0.69946200  0.86237200  1
  O  O201  1  0.39644500  0.69946200  0.63762800  1
  O  O202  1  0.89644500  0.80053800  0.13762800  1
  O  O203  1  0.10355500  0.80053800  0.36237200  1
  O  O204  1  0.24912350  0.50839550  0.95657900  1
  O  O205  1  0.75087650  0.50839550  0.54342100  1
  O  O206  1  0.25087650  0.99160450  0.04342100  1
  O  O207  1  0.74912350  0.99160450  0.45657900  1
  O  O208  1  0.33150400  0.77009100  0.88262200  1
  O  O209  1  0.66849600  0.77009100  0.61737800  1
  O  O210  1  0.16849600  0.72990900  0.11737800  1
  O  O211  1  0.83150400  0.72990900  0.38262200  1
  O  O212  1  0.12735850  0.78306250  0.90918700  1
  O  O213  1  0.87264150  0.78306250  0.59081300  1
  O  O214  1  0.37264150  0.71693750  0.09081300  1
  O  O215  1  0.62735850  0.71693750  0.40918700  1
  O  O216  1  0.87454500  0.77530400  0.87500200  1
  O  O217  1  0.12545500  0.77530400  0.62499800  1
  O  O218  1  0.62545500  0.72469600  0.12499800  1
  O  O219  1  0.37454500  0.72469600  0.37500200  1
  O  O220  1  0.82891800  0.72293400  0.08393300  1
  O  O221  1  0.17108200  0.72293400  0.41606700  1
  O  O222  1  0.67108200  0.77706600  0.91606700  1
  O  O223  1  0.32891800  0.77706600  0.58393300  1
  O  O224  1  0.57933000  0.51693500  0.61078100  1
  O  O225  1  0.42067000  0.51693500  0.88921900  1
  O  O226  1  0.92067000  0.98306500  0.38921900  1
  O  O227  1  0.07933000  0.98306500  0.11078100  1
  O  O228  1  0.12474900  0.96517800  0.39887900  1
  O  O229  1  0.87525100  0.96517800  0.10112100  1
  O  O230  1  0.37525100  0.53482200  0.60112100  1
  O  O231  1  0.62474900  0.53482200  0.89887900  1
  O  O232  1  0.12728900  0.52717400  0.63152000  1
  O  O233  1  0.87271100  0.52717400  0.86848000  1
  O  O234  1  0.37271100  0.97282600  0.36848000  1
  O  O235  1  0.62728900  0.97282600  0.13152000  1
  O  O236  1  0.57705000  0.97657400  0.41939500  1
  O  O237  1  0.42295000  0.97657400  0.08060500  1
  O  O238  1  0.92295000  0.52342600  0.58060500  1
  O  O239  1  0.07705000  0.52342600  0.91939500  1
  O  O240  1  0.28735350  0.64748850  0.49055700  1
  O  O241  1  0.71264650  0.64748850  0.00944300  1
  O  O242  1  0.21264650  0.85251150  0.50944300  1
  O  O243  1  0.78735350  0.85251150  0.99055700  1
  O  O244  1  0.62027050  0.62100850  0.77974600  1
  O  O245  1  0.37972950  0.62100850  0.72025400  1
  O  O246  1  0.87972950  0.87899150  0.22025400  1
  O  O247  1  0.12027050  0.87899150  0.27974600  1
  O  O248  1  0.77724300  0.64867500  0.49161300  1
  O  O249  1  0.22275700  0.64867500  0.00838700  1
  O  O250  1  0.72275700  0.85132500  0.50838700  1
  O  O251  1  0.27724300  0.85132500  0.99161300  1
  O  O252  1  0.11718350  0.61923950  0.79869400  1
  O  O253  1  0.88281650  0.61923950  0.70130600  1
  O  O254  1  0.38281650  0.88076050  0.20130600  1
  O  O255  1  0.61718350  0.88076050  0.29869400  1
  O  O256  1  0.53466900  0.89735800  0.00932400  1
  O  O257  1  0.46533100  0.89735800  0.49067600  1
  O  O258  1  0.96533100  0.60264200  0.99067600  1
  O  O259  1  0.03466900  0.60264200  0.50932400  1
  O  O260  1  0.36889000  0.86773600  0.71190700  1
  O  O261  1  0.63111000  0.86773600  0.78809300  1
  O  O262  1  0.13111000  0.63226400  0.28809300  1
  O  O263  1  0.86889000  0.63226400  0.21190700  1
  O  O264  1  0.02957750  0.89984250  0.00974300  1
  O  O265  1  0.97042250  0.89984250  0.49025700  1
  O  O266  1  0.47042250  0.60015750  0.99025700  1
  O  O267  1  0.52957750  0.60015750  0.50974300  1
  O  O268  1  0.86994500  0.87272300  0.70933400  1
  O  O269  1  0.13005500  0.87272300  0.79066600  1
  O  O270  1  0.63005500  0.62727700  0.29066600  1
  O  O271  1  0.36994500  0.62727700  0.20933400  1
