# generated using pymatgen
data_CaCuF4
_symmetry_space_group_name_H-M   'P 1'
_cell_length_a   5.48342400
_cell_length_b   5.48342400
_cell_length_c   10.41283200
_cell_angle_alpha   90.00000000
_cell_angle_beta   90.00000000
_cell_angle_gamma   90.00000000
_symmetry_Int_Tables_number   1
_chemical_formula_structural   CaCuF4
_chemical_formula_sum   'Ca4 Cu4 F16'
_cell_volume   313.09239493
_cell_formula_units_Z   4
loop_
 _symmetry_equiv_pos_site_id
 _symmetry_equiv_pos_as_xyz
  1  'x, y, z'
loop_
 _atom_site_type_symbol
 _atom_site_label
 _atom_site_symmetry_multiplicity
 _atom_site_fract_x
 _atom_site_fract_y
 _atom_site_fract_z
 _atom_site_occupancy
  Ca  Ca0  1  0.50000000  0.50000000  0.25000000  1
  Ca  Ca1  1  0.00000000  0.00000000  0.25000000  1
  Ca  Ca2  1  0.00000000  0.00000000  0.75000000  1
  Ca  Ca3  1  0.50000000  0.50000000  0.75000000  1
  Cu  Cu4  1  0.50000000  0.00000000  0.00000000  1
  Cu  Cu5  1  0.00000000  0.50000000  0.00000000  1
  Cu  Cu6  1  0.00000000  0.50000000  0.50000000  1
  Cu  Cu7  1  0.50000000  0.00000000  0.50000000  1
  F  F8  1  0.32218000  0.82218000  0.12851600  1
  F  F9  1  0.82218000  0.32218000  0.37148400  1
  F  F10  1  0.17782000  0.67782000  0.37148400  1
  F  F11  1  0.32218000  0.17782000  0.37148400  1
  F  F12  1  0.67782000  0.17782000  0.12851600  1
  F  F13  1  0.82218000  0.67782000  0.12851600  1
  F  F14  1  0.17782000  0.32218000  0.12851600  1
  F  F15  1  0.67782000  0.82218000  0.37148400  1
  F  F16  1  0.82218000  0.32218000  0.62851600  1
  F  F17  1  0.32218000  0.82218000  0.87148400  1
  F  F18  1  0.67782000  0.17782000  0.87148400  1
  F  F19  1  0.82218000  0.67782000  0.87148400  1
  F  F20  1  0.17782000  0.67782000  0.62851600  1
  F  F21  1  0.32218000  0.17782000  0.62851600  1
  F  F22  1  0.67782000  0.82218000  0.62851600  1
  F  F23  1  0.17782000  0.32218000  0.87148400  1
