# generated using pymatgen
data_Ba2Mg(BO2)6
_symmetry_space_group_name_H-M   'P 1'
_cell_length_a   7.14944189
_cell_length_b   7.14944189
_cell_length_c   17.06254612
_cell_angle_alpha   90.00000000
_cell_angle_beta   90.00000000
_cell_angle_gamma   120.00000000
_symmetry_Int_Tables_number   1
_chemical_formula_structural   Ba2Mg(BO2)6
_chemical_formula_sum   'Ba6 Mg3 B18 O36'
_cell_volume   755.29872501
_cell_formula_units_Z   3
loop_
 _symmetry_equiv_pos_site_id
 _symmetry_equiv_pos_as_xyz
  1  'x, y, z'
loop_
 _atom_site_type_symbol
 _atom_site_label
 _atom_site_symmetry_multiplicity
 _atom_site_fract_x
 _atom_site_fract_y
 _atom_site_fract_z
 _atom_site_occupancy
  Ba  Ba0  1  0.33333333  0.66666667  0.45762367  1
  Ba  Ba1  1  0.33333333  0.66666667  0.87570967  1
  Ba  Ba2  1  0.00000000  0.00000000  0.79095700  1
  Ba  Ba3  1  0.00000000  0.00000000  0.20904300  1
  Ba  Ba4  1  0.66666667  0.33333333  0.12429033  1
  Ba  Ba5  1  0.66666667  0.33333333  0.54237633  1
  Mg  Mg6  1  0.00000000  0.00000000  0.00000000  1
  Mg  Mg7  1  0.66666667  0.33333333  0.33333333  1
  Mg  Mg8  1  0.33333333  0.66666667  0.66666667  1
  B  B9  1  0.55721967  0.83400633  0.07820433  1
  B  B10  1  0.27678667  0.44278033  0.07820433  1
  B  B11  1  0.16599367  0.72321333  0.07820433  1
  B  B12  1  0.10944700  0.49932700  0.25512900  1
  B  B13  1  0.38988000  0.89055300  0.25512900  1
  B  B14  1  0.50067300  0.61012000  0.25512900  1
  B  B15  1  0.22388633  0.16733967  0.41153767  1
  B  B16  1  0.94345333  0.77611367  0.41153767  1
  B  B17  1  0.83266033  0.05654667  0.41153767  1
  B  B18  1  0.77611367  0.83266033  0.58846233  1
  B  B19  1  0.05654667  0.22388633  0.58846233  1
  B  B20  1  0.16733967  0.94345333  0.58846233  1
  B  B21  1  0.89055300  0.50067300  0.74487100  1
  B  B22  1  0.61012000  0.10944700  0.74487100  1
  B  B23  1  0.49932700  0.38988000  0.74487100  1
  B  B24  1  0.44278033  0.16599367  0.92179567  1
  B  B25  1  0.72321333  0.55721967  0.92179567  1
  B  B26  1  0.83400633  0.27678667  0.92179567  1
  O  O27  1  0.00702133  0.76870167  0.07913767  1
  O  O28  1  0.76168033  0.99297867  0.07913767  1
  O  O29  1  0.23129833  0.23831967  0.07913767  1
  O  O30  1  0.65964533  0.56463167  0.25419567  1
  O  O31  1  0.90498633  0.34035467  0.25419567  1
  O  O32  1  0.43536833  0.09501367  0.25419567  1
  O  O33  1  0.38722733  0.88179567  0.07829567  1
  O  O34  1  0.49456833  0.61277267  0.07829567  1
  O  O35  1  0.11820433  0.50543167  0.07829567  1
  O  O36  1  0.27943933  0.45153767  0.25503767  1
  O  O37  1  0.17209833  0.72056067  0.25503767  1
  O  O38  1  0.54846233  0.82790167  0.25503767  1
  O  O39  1  0.67368800  0.10203500  0.41247100  1
  O  O40  1  0.42834700  0.32631200  0.41247100  1
  O  O41  1  0.89796500  0.57165300  0.41247100  1
  O  O42  1  0.32631200  0.89796500  0.58752900  1
  O  O43  1  0.57165300  0.67368800  0.58752900  1
  O  O44  1  0.10203500  0.42834700  0.58752900  1
  O  O45  1  0.05389400  0.21512900  0.41162900  1
  O  O46  1  0.16123500  0.94610600  0.41162900  1
  O  O47  1  0.78487100  0.83876500  0.41162900  1
  O  O48  1  0.94610600  0.78487100  0.58837100  1
  O  O49  1  0.83876500  0.05389400  0.58837100  1
  O  O50  1  0.21512900  0.16123500  0.58837100  1
  O  O51  1  0.34035467  0.43536833  0.74580433  1
  O  O52  1  0.09501367  0.65964533  0.74580433  1
  O  O53  1  0.56463167  0.90498633  0.74580433  1
  O  O54  1  0.99297867  0.23129833  0.92086233  1
  O  O55  1  0.23831967  0.00702133  0.92086233  1
  O  O56  1  0.76870167  0.76168033  0.92086233  1
  O  O57  1  0.72056067  0.54846233  0.74496233  1
  O  O58  1  0.82790167  0.27943933  0.74496233  1
  O  O59  1  0.45153767  0.17209833  0.74496233  1
  O  O60  1  0.61277267  0.11820433  0.92170433  1
  O  O61  1  0.50543167  0.38722733  0.92170433  1
  O  O62  1  0.88179567  0.49456833  0.92170433  1
