# generated using pymatgen
data_Lu2Sn2O7
_symmetry_space_group_name_H-M   'P 1'
_cell_length_a   10.37339800
_cell_length_b   10.37339800
_cell_length_c   10.37339800
_cell_angle_alpha   90.00000000
_cell_angle_beta   90.00000000
_cell_angle_gamma   90.00000000
_symmetry_Int_Tables_number   1
_chemical_formula_structural   Lu2Sn2O7
_chemical_formula_sum   'Lu16 Sn16 O56'
_cell_volume   1116.25424341
_cell_formula_units_Z   8
loop_
 _symmetry_equiv_pos_site_id
 _symmetry_equiv_pos_as_xyz
  1  'x, y, z'
loop_
 _atom_site_type_symbol
 _atom_site_label
 _atom_site_symmetry_multiplicity
 _atom_site_fract_x
 _atom_site_fract_y
 _atom_site_fract_z
 _atom_site_occupancy
  Lu  Lu0  1  0.37500000  0.87500000  0.12500000  1
  Lu  Lu1  1  0.37500000  0.62500000  0.37500000  1
  Lu  Lu2  1  0.12500000  0.87500000  0.37500000  1
  Lu  Lu3  1  0.12500000  0.62500000  0.12500000  1
  Lu  Lu4  1  0.37500000  0.37500000  0.62500000  1
  Lu  Lu5  1  0.37500000  0.12500000  0.87500000  1
  Lu  Lu6  1  0.12500000  0.37500000  0.87500000  1
  Lu  Lu7  1  0.12500000  0.12500000  0.62500000  1
  Lu  Lu8  1  0.87500000  0.87500000  0.62500000  1
  Lu  Lu9  1  0.87500000  0.62500000  0.87500000  1
  Lu  Lu10  1  0.62500000  0.87500000  0.87500000  1
  Lu  Lu11  1  0.62500000  0.62500000  0.62500000  1
  Lu  Lu12  1  0.87500000  0.37500000  0.12500000  1
  Lu  Lu13  1  0.87500000  0.12500000  0.37500000  1
  Lu  Lu14  1  0.62500000  0.37500000  0.37500000  1
  Lu  Lu15  1  0.62500000  0.12500000  0.12500000  1
  Sn  Sn16  1  0.87500000  0.87500000  0.12500000  1
  Sn  Sn17  1  0.37500000  0.12500000  0.37500000  1
  Sn  Sn18  1  0.62500000  0.87500000  0.37500000  1
  Sn  Sn19  1  0.12500000  0.12500000  0.12500000  1
  Sn  Sn20  1  0.87500000  0.37500000  0.62500000  1
  Sn  Sn21  1  0.37500000  0.62500000  0.87500000  1
  Sn  Sn22  1  0.62500000  0.37500000  0.87500000  1
  Sn  Sn23  1  0.12500000  0.62500000  0.62500000  1
  Sn  Sn24  1  0.37500000  0.87500000  0.62500000  1
  Sn  Sn25  1  0.87500000  0.12500000  0.87500000  1
  Sn  Sn26  1  0.12500000  0.87500000  0.87500000  1
  Sn  Sn27  1  0.62500000  0.12500000  0.62500000  1
  Sn  Sn28  1  0.37500000  0.37500000  0.12500000  1
  Sn  Sn29  1  0.87500000  0.62500000  0.37500000  1
  Sn  Sn30  1  0.12500000  0.37500000  0.37500000  1
  Sn  Sn31  1  0.62500000  0.62500000  0.12500000  1
  O  O32  1  0.25000000  0.75000000  0.25000000  1
  O  O33  1  0.00000000  0.00000000  0.50000000  1
  O  O34  1  0.25000000  0.03245300  0.25000000  1
  O  O35  1  0.50000000  0.78245300  0.50000000  1
  O  O36  1  0.25000000  0.25000000  0.03245300  1
  O  O37  1  0.03245300  0.25000000  0.25000000  1
  O  O38  1  0.46754700  0.25000000  0.25000000  1
  O  O39  1  0.25000000  0.25000000  0.46754700  1
  O  O40  1  0.25000000  0.46754700  0.25000000  1
  O  O41  1  0.28245300  0.00000000  0.50000000  1
  O  O42  1  0.71754700  0.00000000  0.50000000  1
  O  O43  1  0.50000000  0.21754700  0.50000000  1
  O  O44  1  0.50000000  0.00000000  0.28245300  1
  O  O45  1  0.00000000  0.00000000  0.21754700  1
  O  O46  1  0.25000000  0.25000000  0.75000000  1
  O  O47  1  0.00000000  0.50000000  0.00000000  1
  O  O48  1  0.25000000  0.53245300  0.75000000  1
  O  O49  1  0.50000000  0.28245300  0.00000000  1
  O  O50  1  0.25000000  0.75000000  0.53245300  1
  O  O51  1  0.03245300  0.75000000  0.75000000  1
  O  O52  1  0.46754700  0.75000000  0.75000000  1
  O  O53  1  0.25000000  0.75000000  0.96754700  1
  O  O54  1  0.25000000  0.96754700  0.75000000  1
  O  O55  1  0.28245300  0.50000000  0.00000000  1
  O  O56  1  0.71754700  0.50000000  0.00000000  1
  O  O57  1  0.50000000  0.71754700  0.00000000  1
  O  O58  1  0.50000000  0.50000000  0.78245300  1
  O  O59  1  0.00000000  0.50000000  0.71754700  1
  O  O60  1  0.75000000  0.75000000  0.75000000  1
  O  O61  1  0.50000000  0.00000000  0.00000000  1
  O  O62  1  0.75000000  0.03245300  0.75000000  1
  O  O63  1  0.00000000  0.78245300  0.00000000  1
  O  O64  1  0.75000000  0.25000000  0.53245300  1
  O  O65  1  0.53245300  0.25000000  0.75000000  1
  O  O66  1  0.96754700  0.25000000  0.75000000  1
  O  O67  1  0.75000000  0.25000000  0.96754700  1
  O  O68  1  0.75000000  0.46754700  0.75000000  1
  O  O69  1  0.78245300  0.00000000  0.00000000  1
  O  O70  1  0.21754700  0.00000000  0.00000000  1
  O  O71  1  0.00000000  0.21754700  0.00000000  1
  O  O72  1  0.00000000  0.00000000  0.78245300  1
  O  O73  1  0.50000000  0.00000000  0.71754700  1
  O  O74  1  0.75000000  0.25000000  0.25000000  1
  O  O75  1  0.50000000  0.50000000  0.50000000  1
  O  O76  1  0.75000000  0.53245300  0.25000000  1
  O  O77  1  0.00000000  0.28245300  0.50000000  1
  O  O78  1  0.75000000  0.75000000  0.03245300  1
  O  O79  1  0.53245300  0.75000000  0.25000000  1
  O  O80  1  0.96754700  0.75000000  0.25000000  1
  O  O81  1  0.75000000  0.75000000  0.46754700  1
  O  O82  1  0.75000000  0.96754700  0.25000000  1
  O  O83  1  0.78245300  0.50000000  0.50000000  1
  O  O84  1  0.21754700  0.50000000  0.50000000  1
  O  O85  1  0.00000000  0.71754700  0.50000000  1
  O  O86  1  0.00000000  0.50000000  0.28245300  1
  O  O87  1  0.50000000  0.50000000  0.21754700  1
