# generated using pymatgen
data_Zr(WO4)2
_symmetry_space_group_name_H-M   'P 1'
_cell_length_a   9.36435300
_cell_length_b   9.36435300
_cell_length_c   9.36435300
_cell_angle_alpha   90.00000000
_cell_angle_beta   90.00000000
_cell_angle_gamma   90.00000000
_symmetry_Int_Tables_number   1
_chemical_formula_structural   Zr(WO4)2
_chemical_formula_sum   'Zr4 W8 O32'
_cell_volume   821.17048193
_cell_formula_units_Z   4
loop_
 _symmetry_equiv_pos_site_id
 _symmetry_equiv_pos_as_xyz
  1  'x, y, z'
loop_
 _atom_site_type_symbol
 _atom_site_label
 _atom_site_symmetry_multiplicity
 _atom_site_fract_x
 _atom_site_fract_y
 _atom_site_fract_z
 _atom_site_occupancy
  Zr  Zr0  1  0.00157200  0.00157200  0.00157200  1
  Zr  Zr1  1  0.49842800  0.99842800  0.50157200  1
  Zr  Zr2  1  0.50157200  0.49842800  0.99842800  1
  Zr  Zr3  1  0.99842800  0.50157200  0.49842800  1
  W  W4  1  0.65491000  0.84509000  0.15491000  1
  W  W5  1  0.84509000  0.15491000  0.65491000  1
  W  W6  1  0.15491000  0.65491000  0.84509000  1
  W  W7  1  0.34509000  0.34509000  0.34509000  1
  W  W8  1  0.59910400  0.59910400  0.59910400  1
  W  W9  1  0.90089600  0.40089600  0.09910400  1
  W  W10  1  0.09910400  0.90089600  0.40089600  1
  W  W11  1  0.40089600  0.09910400  0.90089600  1
  O  O12  1  0.76290900  0.73709100  0.26290900  1
  O  O13  1  0.73709100  0.26290900  0.76290900  1
  O  O14  1  0.26290900  0.76290900  0.73709100  1
  O  O15  1  0.23709100  0.23709100  0.23709100  1
  O  O16  1  0.51072700  0.98927300  0.01072700  1
  O  O17  1  0.98927300  0.01072700  0.51072700  1
  O  O18  1  0.01072700  0.51072700  0.98927300  1
  O  O19  1  0.48927300  0.48927300  0.48927300  1
  O  O20  1  0.71400500  0.43255500  0.05461100  1
  O  O21  1  0.21400500  0.06744500  0.94538900  1
  O  O22  1  0.28599500  0.93255500  0.44538900  1
  O  O23  1  0.06744500  0.94538900  0.21400500  1
  O  O24  1  0.20486800  0.44125500  0.44697600  1
  O  O25  1  0.44697600  0.20486800  0.44125500  1
  O  O26  1  0.44125500  0.44697600  0.20486800  1
  O  O27  1  0.05874500  0.55302400  0.70486800  1
  O  O28  1  0.94697600  0.29513200  0.55874500  1
  O  O29  1  0.55874500  0.94697600  0.29513200  1
  O  O30  1  0.05302400  0.79513200  0.94125500  1
  O  O31  1  0.55302400  0.70486800  0.05874500  1
  O  O32  1  0.94125500  0.05302400  0.79513200  1
  O  O33  1  0.70486800  0.05874500  0.55302400  1
  O  O34  1  0.79513200  0.94125500  0.05302400  1
  O  O35  1  0.29513200  0.55874500  0.94697600  1
  O  O36  1  0.78599500  0.56744500  0.55461100  1
  O  O37  1  0.55461100  0.78599500  0.56744500  1
  O  O38  1  0.56744500  0.55461100  0.78599500  1
  O  O39  1  0.93255500  0.44538900  0.28599500  1
  O  O40  1  0.05461100  0.71400500  0.43255500  1
  O  O41  1  0.43255500  0.05461100  0.71400500  1
  O  O42  1  0.94538900  0.21400500  0.06744500  1
  O  O43  1  0.44538900  0.28599500  0.93255500  1
