# generated using pymatgen
data_La3SiAgS7
_symmetry_space_group_name_H-M   'P 1'
_cell_length_a   10.49348369
_cell_length_b   10.49348369
_cell_length_c   5.83684700
_cell_angle_alpha   90.00000000
_cell_angle_beta   90.00000000
_cell_angle_gamma   120.00000000
_symmetry_Int_Tables_number   1
_chemical_formula_structural   La3SiAgS7
_chemical_formula_sum   'La6 Si2 Ag2 S14'
_cell_volume   556.60656535
_cell_formula_units_Z   2
loop_
 _symmetry_equiv_pos_site_id
 _symmetry_equiv_pos_as_xyz
  1  'x, y, z'
loop_
 _atom_site_type_symbol
 _atom_site_label
 _atom_site_symmetry_multiplicity
 _atom_site_fract_x
 _atom_site_fract_y
 _atom_site_fract_z
 _atom_site_occupancy
  La  La0  1  0.64071300  0.76214100  0.11676600  1
  La  La1  1  0.87857200  0.64071300  0.61676600  1
  La  La2  1  0.76214100  0.12142800  0.61676600  1
  La  La3  1  0.23785900  0.87857200  0.11676600  1
  La  La4  1  0.12142800  0.35928700  0.11676600  1
  La  La5  1  0.35928700  0.23785900  0.61676600  1
  Si  Si6  1  0.33333333  0.66666667  0.70522300  1
  Si  Si7  1  0.66666667  0.33333333  0.20522300  1
  Ag  Ag8  1  0.00000000  0.00000000  0.07127700  1
  Ag  Ag9  1  0.00000000  0.00000000  0.57127700  1
  S  S10  1  0.33333333  0.66666667  0.34268300  1
  S  S11  1  0.66666667  0.33333333  0.84268300  1
  S  S12  1  0.88141500  0.40682900  0.34798200  1
  S  S13  1  0.47458600  0.88141500  0.84798200  1
  S  S14  1  0.40682900  0.52541400  0.84798200  1
  S  S15  1  0.59317100  0.47458600  0.34798200  1
  S  S16  1  0.17729300  0.91207000  0.60322500  1
  S  S17  1  0.26522300  0.17729300  0.10322500  1
  S  S18  1  0.91207000  0.73477700  0.10322500  1
  S  S19  1  0.08793000  0.26522300  0.60322500  1
  S  S20  1  0.73477700  0.82270700  0.60322500  1
  S  S21  1  0.82270700  0.08793000  0.10322500  1
  S  S22  1  0.11858500  0.59317100  0.84798200  1
  S  S23  1  0.52541400  0.11858500  0.34798200  1
