# generated using pymatgen
data_Cd(GaTe2)2
_symmetry_space_group_name_H-M   'P 1'
_cell_length_a   6.27269200
_cell_length_b   6.27269200
_cell_length_c   12.01422400
_cell_angle_alpha   90.00000000
_cell_angle_beta   90.00000000
_cell_angle_gamma   90.00000000
_symmetry_Int_Tables_number   1
_chemical_formula_structural   Cd(GaTe2)2
_chemical_formula_sum   'Cd2 Ga4 Te8'
_cell_volume   472.71964608
_cell_formula_units_Z   2
loop_
 _symmetry_equiv_pos_site_id
 _symmetry_equiv_pos_as_xyz
  1  'x, y, z'
loop_
 _atom_site_type_symbol
 _atom_site_label
 _atom_site_symmetry_multiplicity
 _atom_site_fract_x
 _atom_site_fract_y
 _atom_site_fract_z
 _atom_site_occupancy
  Cd  Cd0  1  0.00000000  0.00000000  0.00000000  1
  Cd  Cd1  1  0.50000000  0.50000000  0.50000000  1
  Ga  Ga2  1  0.50000000  0.00000000  0.25000000  1
  Ga  Ga3  1  0.50000000  0.50000000  0.00000000  1
  Ga  Ga4  1  0.00000000  0.50000000  0.75000000  1
  Ga  Ga5  1  0.00000000  0.00000000  0.50000000  1
  Te  Te6  1  0.77494650  0.24691150  0.36190750  1
  Te  Te7  1  0.25308850  0.27494650  0.13809250  1
  Te  Te8  1  0.74691150  0.72505350  0.13809250  1
  Te  Te9  1  0.22505350  0.75308850  0.36190750  1
  Te  Te10  1  0.27494650  0.74691150  0.86190750  1
  Te  Te11  1  0.75308850  0.77494650  0.63809250  1
  Te  Te12  1  0.24691150  0.22505350  0.63809250  1
  Te  Te13  1  0.72505350  0.25308850  0.86190750  1
