# generated using pymatgen
data_Zr2Ga(PO4)3
_symmetry_space_group_name_H-M   'P 1'
_cell_length_a   8.87680807
_cell_length_b   8.87680807
_cell_length_c   24.16405675
_cell_angle_alpha   90.00000000
_cell_angle_beta   90.00000000
_cell_angle_gamma   120.00000000
_symmetry_Int_Tables_number   1
_chemical_formula_structural   Zr2Ga(PO4)3
_chemical_formula_sum   'Zr12 Ga6 P18 O72'
_cell_volume   1648.97525540
_cell_formula_units_Z   6
loop_
 _symmetry_equiv_pos_site_id
 _symmetry_equiv_pos_as_xyz
  1  'x, y, z'
loop_
 _atom_site_type_symbol
 _atom_site_label
 _atom_site_symmetry_multiplicity
 _atom_site_fract_x
 _atom_site_fract_y
 _atom_site_fract_z
 _atom_site_occupancy
  Zr  Zr0  1  0.33333333  0.66666667  0.31597767  1
  Zr  Zr1  1  0.00000000  0.00000000  0.14931100  1
  Zr  Zr2  1  0.33333333  0.66666667  0.01735567  1
  Zr  Zr3  1  0.66666667  0.33333333  0.18402233  1
  Zr  Zr4  1  0.00000000  0.00000000  0.64931100  1
  Zr  Zr5  1  0.66666667  0.33333333  0.48264433  1
  Zr  Zr6  1  0.00000000  0.00000000  0.35068900  1
  Zr  Zr7  1  0.33333333  0.66666667  0.51735567  1
  Zr  Zr8  1  0.66666667  0.33333333  0.98264433  1
  Zr  Zr9  1  0.33333333  0.66666667  0.81597767  1
  Zr  Zr10  1  0.66666667  0.33333333  0.68402233  1
  Zr  Zr11  1  0.00000000  0.00000000  0.85068900  1
  Ga  Ga12  1  0.33333333  0.66666667  0.16666667  1
  Ga  Ga13  1  0.00000000  0.00000000  0.00000000  1
  Ga  Ga14  1  1.00000000  0.00000000  0.50000000  1
  Ga  Ga15  1  0.66666667  0.33333333  0.33333333  1
  Ga  Ga16  1  0.66666667  0.33333333  0.83333333  1
  Ga  Ga17  1  0.33333333  0.66666667  0.66666667  1
  P  P18  1  0.66666667  0.04583733  0.08333333  1
  P  P19  1  0.37917067  0.33333333  0.08333333  1
  P  P20  1  0.95416267  0.62082933  0.08333333  1
  P  P21  1  0.28749600  0.00000000  0.25000000  1
  P  P22  1  0.71250400  0.71250400  0.25000000  1
  P  P23  1  0.00000000  0.28749600  0.25000000  1
  P  P24  1  0.33333333  0.37917067  0.41666667  1
  P  P25  1  0.04583733  0.66666667  0.41666667  1
  P  P26  1  0.62082933  0.95416267  0.41666667  1
  P  P27  1  0.95416267  0.33333333  0.58333333  1
  P  P28  1  0.37917067  0.04583733  0.58333333  1
  P  P29  1  0.66666667  0.62082933  0.58333333  1
  P  P30  1  0.00000000  0.71250400  0.75000000  1
  P  P31  1  0.71250400  0.00000000  0.75000000  1
  P  P32  1  0.28749600  0.28749600  0.75000000  1
  P  P33  1  0.62082933  0.66666667  0.91666667  1
  P  P34  1  0.04583733  0.37917067  0.91666667  1
  P  P35  1  0.33333333  0.95416267  0.91666667  1
  O  O36  1  0.70694667  0.16390833  0.03210033  1
  O  O37  1  0.45696167  0.29305333  0.03210033  1
  O  O38  1  0.83609167  0.54303833  0.03210033  1
  O  O39  1  0.16942500  0.95972000  0.19876700  1
  O  O40  1  0.79029500  0.83057500  0.19876700  1
  O  O41  1  0.04028000  0.20970500  0.19876700  1
  O  O42  1  0.95972000  0.16942500  0.30123300  1
  O  O43  1  0.20970500  0.04028000  0.30123300  1
  O  O44  1  0.83057500  0.79029500  0.30123300  1
  O  O45  1  0.49724167  0.37361333  0.13456633  1
  O  O46  1  0.87637167  0.50275833  0.13456633  1
  O  O47  1  0.62638667  0.12362833  0.13456633  1
  O  O48  1  0.16011300  0.46804500  0.26184500  1
  O  O49  1  0.30793200  0.83988700  0.26184500  1
  O  O50  1  0.53195500  0.69206800  0.26184500  1
  O  O51  1  0.19862167  0.17322033  0.09517833  1
  O  O52  1  0.97459867  0.80137833  0.09517833  1
  O  O53  1  0.82677967  0.02540133  0.09517833  1
  O  O54  1  0.50655367  0.86528833  0.07148833  1
  O  O55  1  0.35873467  0.49344633  0.07148833  1
  O  O56  1  0.13471167  0.64126533  0.07148833  1
  O  O57  1  0.46804500  0.16011300  0.23815500  1
  O  O58  1  0.69206800  0.53195500  0.23815500  1
  O  O59  1  0.83988700  0.30793200  0.23815500  1
  O  O60  1  0.37361333  0.49724167  0.36543367  1
  O  O61  1  0.12362833  0.62638667  0.36543367  1
  O  O62  1  0.50275833  0.87637167  0.36543367  1
  O  O63  1  0.83609167  0.29305333  0.53210033  1
  O  O64  1  0.45696167  0.16390833  0.53210033  1
  O  O65  1  0.70694667  0.54303833  0.53210033  1
  O  O66  1  0.62638667  0.50275833  0.63456633  1
  O  O67  1  0.87637167  0.37361333  0.63456633  1
  O  O68  1  0.49724167  0.12362833  0.63456633  1
  O  O69  1  0.16390833  0.70694667  0.46789967  1
  O  O70  1  0.54303833  0.83609167  0.46789967  1
  O  O71  1  0.29305333  0.45696167  0.46789967  1
  O  O72  1  0.82677967  0.80137833  0.59517833  1
  O  O73  1  0.97459867  0.17322033  0.59517833  1
  O  O74  1  0.19862167  0.02540133  0.59517833  1
  O  O75  1  0.86528833  0.50655367  0.42851167  1
  O  O76  1  0.64126533  0.13471167  0.42851167  1
  O  O77  1  0.49344633  0.35873467  0.42851167  1
  O  O78  1  0.17322033  0.19862167  0.40482167  1
  O  O79  1  0.02540133  0.82677967  0.40482167  1
  O  O80  1  0.80137833  0.97459867  0.40482167  1
  O  O81  1  0.13471167  0.49344633  0.57148833  1
  O  O82  1  0.35873467  0.86528833  0.57148833  1
  O  O83  1  0.50655367  0.64126533  0.57148833  1
  O  O84  1  0.04028000  0.83057500  0.69876700  1
  O  O85  1  0.79029500  0.95972000  0.69876700  1
  O  O86  1  0.16942500  0.20970500  0.69876700  1
  O  O87  1  0.50275833  0.62638667  0.86543367  1
  O  O88  1  0.12362833  0.49724167  0.86543367  1
  O  O89  1  0.37361333  0.87637167  0.86543367  1
  O  O90  1  0.29305333  0.83609167  0.96789967  1
  O  O91  1  0.54303833  0.70694667  0.96789967  1
  O  O92  1  0.16390833  0.45696167  0.96789967  1
  O  O93  1  0.83057500  0.04028000  0.80123300  1
  O  O94  1  0.20970500  0.16942500  0.80123300  1
  O  O95  1  0.95972000  0.79029500  0.80123300  1
  O  O96  1  0.49344633  0.13471167  0.92851167  1
  O  O97  1  0.64126533  0.50655367  0.92851167  1
  O  O98  1  0.86528833  0.35873467  0.92851167  1
  O  O99  1  0.53195500  0.83988700  0.76184500  1
  O  O100  1  0.30793200  0.46804500  0.76184500  1
  O  O101  1  0.16011300  0.69206800  0.76184500  1
  O  O102  1  0.83988700  0.53195500  0.73815500  1
  O  O103  1  0.69206800  0.16011300  0.73815500  1
  O  O104  1  0.46804500  0.30793200  0.73815500  1
  O  O105  1  0.80137833  0.82677967  0.90482167  1
  O  O106  1  0.02540133  0.19862167  0.90482167  1
  O  O107  1  0.17322033  0.97459867  0.90482167  1
