# generated using pymatgen
data_Na2Be4B4O11
_symmetry_space_group_name_H-M   'P 1'
_cell_length_a   8.90609600
_cell_length_b   12.86670594
_cell_length_c   15.36536062
_cell_angle_alpha   90.03535587
_cell_angle_beta   90.01968110
_cell_angle_gamma   110.17089585
_symmetry_Int_Tables_number   1
_chemical_formula_structural   Na2Be4B4O11
_chemical_formula_sum   'Na16 Be32 B32 O88'
_cell_volume   1652.75887560
_cell_formula_units_Z   8
loop_
 _symmetry_equiv_pos_site_id
 _symmetry_equiv_pos_as_xyz
  1  'x, y, z'
loop_
 _atom_site_type_symbol
 _atom_site_label
 _atom_site_symmetry_multiplicity
 _atom_site_fract_x
 _atom_site_fract_y
 _atom_site_fract_z
 _atom_site_occupancy
  Na  Na0  1  0.75807900  0.78230400  0.10317400  1
  Na  Na1  1  0.60750900  0.27053400  0.20955100  1
  Na  Na2  1  0.31946400  0.39502300  0.71156300  1
  Na  Na3  1  0.75636600  0.31117600  0.97073800  1
  Na  Na4  1  0.77550600  0.84759400  0.56752100  1
  Na  Na5  1  0.17209600  0.90045300  0.60476000  1
  Na  Na6  1  0.63753100  0.80843000  0.34667400  1
  Na  Na7  1  0.28353400  0.85887400  0.84047300  1
  Na  Na8  1  0.80525600  0.37488200  0.51081400  1
  Na  Na9  1  0.12649300  0.30470700  0.00566300  1
  Na  Na10  1  0.25509900  0.32482100  0.24573200  1
  Na  Na11  1  0.66866400  0.34390700  0.74400800  1
  Na  Na12  1  0.16844100  0.37294800  0.46763500  1
  Na  Na13  1  0.65333200  0.84609500  0.81902300  1
  Na  Na14  1  0.15639100  0.82765500  0.06976600  1
  Na  Na15  1  0.26897300  0.82048000  0.31149600  1
  Be  Be16  1  0.49691800  0.66353400  0.69557400  1
  Be  Be17  1  0.25409700  0.15928900  0.60989200  1
  Be  Be18  1  0.97548600  0.13385400  0.86788800  1
  Be  Be19  1  0.98748200  0.14158500  0.35939000  1
  Be  Be20  1  0.49196800  0.15216900  0.86903500  1
  Be  Be21  1  0.00449500  0.66012200  0.70409400  1
  Be  Be22  1  0.96285600  0.54627300  0.36822600  1
  Be  Be23  1  0.75463400  0.15588300  0.61994300  1
  Be  Be24  1  0.75173300  0.63400700  0.44423400  1
  Be  Be25  1  0.44970400  0.53115800  0.36980500  1
  Be  Be26  1  0.97695000  0.62341000  0.19694300  1
  Be  Be27  1  0.26216800  0.64492600  0.44625300  1
  Be  Be28  1  0.73861800  0.11483700  0.11271000  1
  Be  Be29  1  0.48104400  0.61989000  0.20260500  1
  Be  Be30  1  0.46105900  0.07030400  0.70009400  1
  Be  Be31  1  0.47318500  0.12464700  0.36263200  1
  Be  Be32  1  0.23817500  0.62220100  0.95469200  1
  Be  Be33  1  0.93544100  0.02250500  0.20414400  1
  Be  Be34  1  0.43703000  0.01832300  0.19438200  1
  Be  Be35  1  0.94666300  0.53869500  0.85910300  1
  Be  Be36  1  0.23080700  0.11167600  0.11588000  1
  Be  Be37  1  0.95814900  0.05567900  0.69697700  1
  Be  Be38  1  0.74965700  0.62986800  0.95250300  1
  Be  Be39  1  0.46263400  0.55616600  0.86313000  1
  Be  Be40  1  0.17842800  0.04016400  0.45282700  1
  Be  Be41  1  0.18435700  0.03347400  0.94378400  1
  Be  Be42  1  0.67053100  0.02594600  0.94560400  1
  Be  Be43  1  0.19394300  0.55745700  0.61363200  1
  Be  Be44  1  0.17830500  0.51816000  0.11885700  1
  Be  Be45  1  0.67582600  0.51372300  0.11325300  1
  Be  Be46  1  0.69940300  0.55737400  0.61615300  1
  Be  Be47  1  0.69313900  0.04780500  0.45449400  1
  B  B48  1  0.95371300  0.83286000  0.91401800  1
  B  B49  1  0.47080500  0.81844800  0.15843200  1
  B  B50  1  0.48618300  0.35199400  0.56805600  1
  B  B51  1  0.96515500  0.85344800  0.74486500  1
  B  B52  1  0.48213400  0.60481000  0.53148400  1
  B  B53  1  0.43147900  0.32218500  0.07113000  1
  B  B54  1  0.98882000  0.61544800  0.53303500  1
  B  B55  1  0.44917800  0.86234800  0.66010000  1
  B  B56  1  0.97413400  0.33898900  0.82453900  1
  B  B57  1  0.96213900  0.82570000  0.24490100  1
  B  B58  1  0.95037400  0.34089200  0.32355300  1
  B  B59  1  0.97061800  0.83936400  0.41478900  1
  B  B60  1  0.46550200  0.84757300  0.49037400  1
  B  B61  1  0.93485700  0.32196900  0.15511000  1
  B  B62  1  0.47238500  0.10245200  0.53172500  1
  B  B63  1  0.46580900  0.08538700  0.03176900  1
  B  B64  1  0.22338900  0.10452300  0.78215000  1
  B  B65  1  0.98035800  0.11699300  0.53054400  1
  B  B66  1  0.45455300  0.35170000  0.90052300  1
  B  B67  1  0.72785700  0.60654400  0.78183900  1
  B  B68  1  0.71295800  0.56409800  0.28193200  1
  B  B69  1  0.47457700  0.32864100  0.39990100  1
  B  B70  1  0.71741900  0.09081900  0.78141400  1
  B  B71  1  0.98639800  0.35512600  0.65846300  1
  B  B72  1  0.22425000  0.59166600  0.78199700  1
  B  B73  1  0.20549300  0.06484200  0.28329700  1
  B  B74  1  0.45674200  0.82437100  0.98980900  1
  B  B75  1  0.70790300  0.07218200  0.28261900  1
  B  B76  1  0.95344300  0.06625800  0.03166200  1
  B  B77  1  0.46587800  0.58025000  0.03377300  1
  B  B78  1  0.96241800  0.57249500  0.03166000  1
  B  B79  1  0.21677400  0.57457200  0.28292200  1
  O  O80  1  0.41260500  0.93879800  0.70966900  1
  O  O81  1  0.57148300  0.62740300  0.60707100  1
  O  O82  1  0.07296100  0.63198300  0.61012700  1
  O  O83  1  0.93289600  0.92544800  0.68819500  1
  O  O84  1  0.55761200  0.11956100  0.60902300  1
  O  O85  1  0.61793600  0.91597400  0.47070700  1
  O  O86  1  0.93860900  0.41824100  0.38148100  1
  O  O87  1  0.37507100  0.77146500  0.43148400  1
  O  O88  1  0.38999900  0.88777700  0.18215400  1
  O  O89  1  0.39633100  0.39985400  0.37675600  1
  O  O90  1  0.83126700  0.24533600  0.10122900  1
  O  O91  1  0.49354700  0.25195200  0.34396500  1
  O  O92  1  0.89108600  0.40739000  0.84636000  1
  O  O93  1  0.06329300  0.91523400  0.47211300  1
  O  O94  1  0.50771300  0.74973600  0.21586400  1
  O  O95  1  0.88129800  0.33275800  0.24001000  1
  O  O96  1  0.82386900  0.76541700  0.43770300  1
  O  O97  1  0.08269400  0.42911000  0.60026300  1
  O  O98  1  0.03085300  0.27126800  0.34511600  1
  O  O99  1  0.87913400  0.89215300  0.21959100  1
  O  O100  1  0.54196600  0.08605100  0.11017100  1
  O  O101  1  0.05368000  0.79016600  0.72096100  1
  O  O102  1  0.07609900  0.60264600  0.78205500  1
  O  O103  1  0.05768200  0.11903500  0.60886600  1
  O  O104  1  0.04857300  0.35077200  0.74213300  1
  O  O105  1  0.59066900  0.42807200  0.62240300  1
  O  O106  1  0.58572900  0.62896900  0.78248800  1
  O  O107  1  0.30218000  0.55733000  0.03338300  1
  O  O108  1  0.06013900  0.11800700  0.45332100  1
  O  O109  1  0.89919600  0.84179600  0.82898800  1
  O  O110  1  0.54739700  0.09949200  0.45399400  1
  O  O111  1  0.80141100  0.55835800  0.03101000  1
  O  O112  1  0.54020500  0.33624100  0.48461300  1
  O  O113  1  0.33574200  0.28908700  0.59457400  1
  O  O114  1  0.43334900  0.42874300  0.84601500  1
  O  O115  1  0.40029200  0.85390300  0.57230900  1
  O  O116  1  0.55682800  0.10700900  0.95664500  1
  O  O117  1  0.08182100  0.38827100  0.12647600  1
  O  O118  1  0.07054900  0.10801500  0.78317700  1
  O  O119  1  0.03141700  0.06370400  0.10904400  1
  O  O120  1  0.83512200  0.28674600  0.63675900  1
  O  O121  1  0.06558900  0.08834400  0.28076400  1
  O  O122  1  0.04316200  0.09088500  0.95578600  1
  O  O123  1  0.54506500  0.90324100  0.93309600  1
  O  O124  1  0.99006300  0.75136900  0.18893200  1
  O  O125  1  0.31777100  0.24399700  0.11985000  1
  O  O126  1  0.58557200  0.12481500  0.78274400  1
  O  O127  1  0.57626400  0.38447000  0.10493300  1
  O  O128  1  0.51960800  0.79202500  0.69378700  1
  O  O129  1  0.54939800  0.58610400  0.11131500  1
  O  O130  1  0.07624000  0.59788300  0.28183400  1
  O  O131  1  0.10221600  0.90224200  0.93853800  1
  O  O132  1  0.53140600  0.28174100  0.87426100  1
  O  O133  1  0.98615100  0.26008600  0.88050700  1
  O  O134  1  0.04719500  0.58483900  0.10888000  1
  O  O135  1  0.39062200  0.34145100  0.98558400  1
  O  O136  1  0.30772900  0.75359700  0.96792400  1
  O  O137  1  0.32124100  0.59096200  0.53170900  1
  O  O138  1  0.78089700  0.54902500  0.20462800  1
  O  O139  1  0.82342000  0.11337700  0.53108000  1
  O  O140  1  0.56469900  0.57682400  0.28360500  1
  O  O141  1  0.78815200  0.07625600  0.35990300  1
  O  O142  1  0.04109400  0.57443400  0.95418500  1
  O  O143  1  0.55226800  0.59975600  0.95699200  1
  O  O144  1  0.02716200  0.83586300  0.32938100  1
  O  O145  1  0.55229800  0.07299800  0.28135800  1
  O  O146  1  0.79194100  0.05023100  0.03075200  1
  O  O147  1  0.27628500  0.05381000  0.20489800  1
  O  O148  1  0.79422500  0.58625200  0.85827200  1
  O  O149  1  0.52139700  0.81633400  0.07210900  1
  O  O150  1  0.30289400  0.06363000  0.03068300  1
  O  O151  1  0.77800900  0.06121900  0.85673900  1
  O  O152  1  0.29170600  0.57248000  0.36138300  1
  O  O153  1  0.79481400  0.57138400  0.35930800  1
  O  O154  1  0.27735600  0.05575200  0.36105700  1
  O  O155  1  0.82416000  0.59079400  0.53208900  1
  O  O156  1  0.29538800  0.08687900  0.85804900  1
  O  O157  1  0.79205500  0.08654800  0.70355900  1
  O  O158  1  0.55536100  0.59532000  0.45452300  1
  O  O159  1  0.06603400  0.61695200  0.45461600  1
  O  O160  1  0.78223100  0.06637800  0.20487000  1
  O  O161  1  0.28535900  0.55475300  0.20738300  1
  O  O162  1  0.30697100  0.11550200  0.70479500  1
  O  O163  1  0.30977300  0.08609800  0.53413900  1
  O  O164  1  0.29970000  0.58832400  0.85957700  1
  O  O165  1  0.85372400  0.75785800  0.96928800  1
  O  O166  1  0.30135200  0.58646200  0.70392700  1
  O  O167  1  0.80428500  0.60086400  0.70434500  1
