# generated using pymatgen
data_Na2CoP2O7
_symmetry_space_group_name_H-M   'P 1'
_cell_length_a   6.54630170
_cell_length_b   9.55282400
_cell_length_c   11.06920705
_cell_angle_alpha   115.32074159
_cell_angle_beta   85.92540243
_cell_angle_gamma   106.57192402
_symmetry_Int_Tables_number   1
_chemical_formula_structural   Na2CoP2O7
_chemical_formula_sum   'Na8 Co4 P8 O28'
_cell_volume   598.68930625
_cell_formula_units_Z   4
loop_
 _symmetry_equiv_pos_site_id
 _symmetry_equiv_pos_as_xyz
  1  'x, y, z'
loop_
 _atom_site_type_symbol
 _atom_site_label
 _atom_site_symmetry_multiplicity
 _atom_site_fract_x
 _atom_site_fract_y
 _atom_site_fract_z
 _atom_site_occupancy
  Na  Na0  1  0.22029191  0.03856322  0.10959674  1
  Na  Na1  1  0.39735723  0.52749755  0.34955368  1
  Na  Na2  1  0.96514237  0.29122395  0.52180914  1
  Na  Na3  1  0.15590841  0.43442960  0.05355426  1
  Na  Na4  1  0.60648454  0.54030477  0.96594014  1
  Na  Na5  1  0.03247444  0.70634010  0.47785512  1
  Na  Na6  1  0.61126170  0.47343188  0.65075695  1
  Na  Na7  1  0.82606739  0.95069419  0.90303548  1
  Co  Co8  1  0.71929820  0.88550772  0.21904527  1
  Co  Co9  1  0.28011625  0.11161365  0.77602439  1
  Co  Co10  1  0.35690820  0.76493476  0.73434732  1
  Co  Co11  1  0.63694855  0.23356931  0.25971150  1
  P  P12  1  0.88046622  0.86070269  0.68421270  1
  P  P13  1  0.11721838  0.13530006  0.30991721  1
  P  P14  1  0.07840144  0.38722765  0.79094669  1
  P  P15  1  0.57682993  0.84014121  0.45654455  1
  P  P16  1  0.29287752  0.76868174  0.03718964  1
  P  P17  1  0.92057238  0.60815982  0.20837063  1
  P  P18  1  0.42069438  0.15828379  0.53866156  1
  P  P19  1  0.70124265  0.22461355  0.95883491  1
  O  O20  1  0.77318173  0.06825662  0.03309150  1
  O  O21  1  0.27831310  0.50680715  0.81436341  1
  O  O22  1  0.91554353  0.36873579  0.90168132  1
  O  O23  1  0.69228512  0.76210787  0.77589692  1
  O  O24  1  0.03237095  0.76085706  0.69455460  1
  O  O25  1  0.98381843  0.01769277  0.70031828  1
  O  O26  1  0.71718869  0.48781360  0.19124071  1
  O  O27  1  0.64160574  0.70697091  0.43747577  1
  O  O28  1  0.96363810  0.44394796  0.65318469  1
  O  O29  1  0.21691475  0.08256609  0.46251044  1
  O  O30  1  0.37888336  0.71245580  0.95051346  1
  O  O31  1  0.11401847  0.21863649  0.84132424  1
  O  O32  1  0.55611877  0.97584215  0.31591026  1
  O  O33  1  0.38566645  0.77586720  0.54191980  1
  O  O34  1  0.04139190  0.55356807  0.34434804  1
  O  O35  1  0.96517365  0.24047650  0.28802413  1
  O  O36  1  0.22219316  0.92519715  0.96095715  1
  O  O37  1  0.36075857  0.29250095  0.55868038  1
  O  O38  1  0.61213349  0.27244155  0.05007338  1
  O  O39  1  0.61126978  0.21948520  0.45339825  1
  O  O40  1  0.43708816  0.02037918  0.67814069  1
  O  O41  1  0.07599043  0.62620942  0.09456690  1
  O  O42  1  0.56199555  0.23179043  0.83155763  1
  O  O43  1  0.88612940  0.77741172  0.15669214  1
  O  O44  1  0.43265028  0.76542177  0.16361844  1
  O  O45  1  0.30498861  0.23391133  0.21706776  1
  O  O46  1  0.77643704  0.92069894  0.53109403  1
  O  O47  1  0.01589070  0.97662909  0.29698784  1
