# generated using pymatgen
data_K2Pd(CN)4
_symmetry_space_group_name_H-M   'P 1'
_cell_length_a   4.44266000
_cell_length_b   7.85192500
_cell_length_c   13.74154413
_cell_angle_alpha   90.00000000
_cell_angle_beta   91.07888793
_cell_angle_gamma   90.00000000
_symmetry_Int_Tables_number   1
_chemical_formula_structural   K2Pd(CN)4
_chemical_formula_sum   'K4 Pd2 C8 N8'
_cell_volume   479.26725505
_cell_formula_units_Z   2
loop_
 _symmetry_equiv_pos_site_id
 _symmetry_equiv_pos_as_xyz
  1  'x, y, z'
loop_
 _atom_site_type_symbol
 _atom_site_label
 _atom_site_symmetry_multiplicity
 _atom_site_fract_x
 _atom_site_fract_y
 _atom_site_fract_z
 _atom_site_occupancy
  K  K0  1  0.28454500  0.04422300  0.65617100  1
  K  K1  1  0.71545500  0.54422300  0.84382900  1
  K  K2  1  0.28454500  0.45577700  0.15617100  1
  K  K3  1  0.71545500  0.95577700  0.34382900  1
  Pd  Pd4  1  0.00000000  0.00000000  0.00000000  1
  Pd  Pd5  1  0.00000000  0.50000000  0.50000000  1
  C  C6  1  0.15804900  0.87711800  0.88470500  1
  C  C7  1  0.84195100  0.37711800  0.61529500  1
  C  C8  1  0.85048800  0.72147600  0.55143000  1
  C  C9  1  0.14951200  0.22147600  0.94857000  1
  C  C10  1  0.15804900  0.62288200  0.38470500  1
  C  C11  1  0.84195100  0.12288200  0.11529500  1
  C  C12  1  0.85048800  0.77852400  0.05143000  1
  C  C13  1  0.14951200  0.27852400  0.44857000  1
  N  N14  1  0.24635700  0.80053300  0.81745400  1
  N  N15  1  0.75364300  0.30053300  0.68254600  1
  N  N16  1  0.76523300  0.64591100  0.07930400  1
  N  N17  1  0.23476700  0.14591100  0.42069600  1
  N  N18  1  0.23476700  0.35408900  0.92069600  1
  N  N19  1  0.76523300  0.85408900  0.57930400  1
  N  N20  1  0.24635700  0.69946700  0.31745400  1
  N  N21  1  0.75364300  0.19946700  0.18254600  1
