# generated using pymatgen
data_Ag7AsS6
_symmetry_space_group_name_H-M   'P 1'
_cell_length_a   10.64731900
_cell_length_b   10.64731900
_cell_length_c   10.64731900
_cell_angle_alpha   90.00000000
_cell_angle_beta   90.00000000
_cell_angle_gamma   90.00000000
_symmetry_Int_Tables_number   1
_chemical_formula_structural   Ag7AsS6
_chemical_formula_sum   'Ag28 As4 S24'
_cell_volume   1207.03759746
_cell_formula_units_Z   4
loop_
 _symmetry_equiv_pos_site_id
 _symmetry_equiv_pos_as_xyz
  1  'x, y, z'
loop_
 _atom_site_type_symbol
 _atom_site_label
 _atom_site_symmetry_multiplicity
 _atom_site_fract_x
 _atom_site_fract_y
 _atom_site_fract_z
 _atom_site_occupancy
  Ag  Ag0  1  0.14912200  0.17698900  0.48868500  1
  Ag  Ag1  1  0.64912200  0.32301100  0.51131500  1
  Ag  Ag2  1  0.85087800  0.67698900  0.01131500  1
  Ag  Ag3  1  0.32301100  0.51131500  0.64912200  1
  Ag  Ag4  1  0.01131500  0.85087800  0.67698900  1
  Ag  Ag5  1  0.51131500  0.64912200  0.32301100  1
  Ag  Ag6  1  0.17698900  0.48868500  0.14912200  1
  Ag  Ag7  1  0.48868500  0.14912200  0.17698900  1
  Ag  Ag8  1  0.67698900  0.01131500  0.85087800  1
  Ag  Ag9  1  0.82301100  0.98868500  0.35087800  1
  Ag  Ag10  1  0.98868500  0.35087800  0.82301100  1
  Ag  Ag11  1  0.35087800  0.82301100  0.98868500  1
  Ag  Ag12  1  0.25648800  0.97200300  0.76601800  1
  Ag  Ag13  1  0.75648800  0.52799700  0.23398200  1
  Ag  Ag14  1  0.74351200  0.47200300  0.73398200  1
  Ag  Ag15  1  0.52799700  0.23398200  0.75648800  1
  Ag  Ag16  1  0.73398200  0.74351200  0.47200300  1
  Ag  Ag17  1  0.23398200  0.75648800  0.52799700  1
  Ag  Ag18  1  0.97200300  0.76601800  0.25648800  1
  Ag  Ag19  1  0.76601800  0.25648800  0.97200300  1
  Ag  Ag20  1  0.47200300  0.73398200  0.74351200  1
  Ag  Ag21  1  0.02799700  0.26601800  0.24351200  1
  Ag  Ag22  1  0.26601800  0.24351200  0.02799700  1
  Ag  Ag23  1  0.24351200  0.02799700  0.26601800  1
  Ag  Ag24  1  0.60268200  0.89731800  0.10268200  1
  Ag  Ag25  1  0.89731800  0.10268200  0.60268200  1
  Ag  Ag26  1  0.10268200  0.60268200  0.89731800  1
  Ag  Ag27  1  0.39731800  0.39731800  0.39731800  1
  As  As28  1  0.99552900  0.50447100  0.49552900  1
  As  As29  1  0.50447100  0.49552900  0.99552900  1
  As  As30  1  0.49552900  0.99552900  0.50447100  1
  As  As31  1  0.00447100  0.00447100  0.00447100  1
  S  S32  1  0.36953600  0.11769800  0.61600800  1
  S  S33  1  0.86953600  0.38230200  0.38399200  1
  S  S34  1  0.63046400  0.61769800  0.88399200  1
  S  S35  1  0.38230200  0.38399200  0.86953600  1
  S  S36  1  0.88399200  0.63046400  0.61769800  1
  S  S37  1  0.38399200  0.86953600  0.38230200  1
  S  S38  1  0.11769800  0.61600800  0.36953600  1
  S  S39  1  0.61600800  0.36953600  0.11769800  1
  S  S40  1  0.61769800  0.88399200  0.63046400  1
  S  S41  1  0.88230200  0.11600800  0.13046400  1
  S  S42  1  0.11600800  0.13046400  0.88230200  1
  S  S43  1  0.13046400  0.88230200  0.11600800  1
  S  S44  1  0.73463200  0.76536800  0.23463200  1
  S  S45  1  0.52812300  0.52812300  0.52812300  1
  S  S46  1  0.76536800  0.23463200  0.73463200  1
  S  S47  1  0.26536800  0.26536800  0.26536800  1
  S  S48  1  0.11670600  0.38329400  0.61670600  1
  S  S49  1  0.38329400  0.61670600  0.11670600  1
  S  S50  1  0.61670600  0.11670600  0.38329400  1
  S  S51  1  0.88329400  0.88329400  0.88329400  1
  S  S52  1  0.47187700  0.02812300  0.97187700  1
  S  S53  1  0.02812300  0.97187700  0.47187700  1
  S  S54  1  0.97187700  0.47187700  0.02812300  1
  S  S55  1  0.23463200  0.73463200  0.76536800  1
