# generated using pymatgen
data_Cs2P3
_symmetry_space_group_name_H-M   'P 1'
_cell_length_a   9.57471200
_cell_length_b   10.16224400
_cell_length_c   15.33555400
_cell_angle_alpha   90.00000000
_cell_angle_beta   90.00000000
_cell_angle_gamma   90.00000000
_symmetry_Int_Tables_number   1
_chemical_formula_structural   Cs2P3
_chemical_formula_sum   'Cs16 P24'
_cell_volume   1492.15798557
_cell_formula_units_Z   8
loop_
 _symmetry_equiv_pos_site_id
 _symmetry_equiv_pos_as_xyz
  1  'x, y, z'
loop_
 _atom_site_type_symbol
 _atom_site_label
 _atom_site_symmetry_multiplicity
 _atom_site_fract_x
 _atom_site_fract_y
 _atom_site_fract_z
 _atom_site_occupancy
  Cs  Cs0  1  0.75000000  0.25000000  0.25000000  1
  Cs  Cs1  1  0.75000000  0.75000000  0.25000000  1
  Cs  Cs2  1  0.50000000  0.78177200  0.00000000  1
  Cs  Cs3  1  0.50000000  0.21822800  0.00000000  1
  Cs  Cs4  1  0.75000000  0.75000000  0.75000000  1
  Cs  Cs5  1  0.75000000  0.25000000  0.75000000  1
  Cs  Cs6  1  0.50000000  0.28177200  0.50000000  1
  Cs  Cs7  1  0.50000000  0.71822800  0.50000000  1
  Cs  Cs8  1  0.25000000  0.25000000  0.75000000  1
  Cs  Cs9  1  0.25000000  0.75000000  0.75000000  1
  Cs  Cs10  1  0.00000000  0.78177200  0.50000000  1
  Cs  Cs11  1  0.00000000  0.21822800  0.50000000  1
  Cs  Cs12  1  0.25000000  0.75000000  0.25000000  1
  Cs  Cs13  1  0.25000000  0.25000000  0.25000000  1
  Cs  Cs14  1  0.00000000  0.28177200  0.00000000  1
  Cs  Cs15  1  0.00000000  0.71822800  0.00000000  1
  P  P16  1  0.30423800  0.00000000  0.42932800  1
  P  P17  1  0.80423800  0.00000000  0.07067200  1
  P  P18  1  0.19576200  0.00000000  0.07067200  1
  P  P19  1  0.69576200  0.00000000  0.42932800  1
  P  P20  1  0.50000000  0.00000000  0.35794100  1
  P  P21  1  0.00000000  0.00000000  0.14205900  1
  P  P22  1  0.30423800  0.50000000  0.92932800  1
  P  P23  1  0.80423800  0.50000000  0.57067200  1
  P  P24  1  0.19576200  0.50000000  0.57067200  1
  P  P25  1  0.69576200  0.50000000  0.92932800  1
  P  P26  1  0.50000000  0.50000000  0.85794100  1
  P  P27  1  0.00000000  0.50000000  0.64205900  1
  P  P28  1  0.80423800  0.00000000  0.92932800  1
  P  P29  1  0.30423800  0.00000000  0.57067200  1
  P  P30  1  0.69576200  0.00000000  0.57067200  1
  P  P31  1  0.19576200  0.00000000  0.92932800  1
  P  P32  1  0.00000000  0.00000000  0.85794100  1
  P  P33  1  0.50000000  0.00000000  0.64205900  1
  P  P34  1  0.80423800  0.50000000  0.42932800  1
  P  P35  1  0.30423800  0.50000000  0.07067200  1
  P  P36  1  0.69576200  0.50000000  0.07067200  1
  P  P37  1  0.19576200  0.50000000  0.42932800  1
  P  P38  1  0.00000000  0.50000000  0.35794100  1
  P  P39  1  0.50000000  0.50000000  0.14205900  1
