# generated using pymatgen
data_Sr3ScRhO6
_symmetry_space_group_name_H-M   'P 1'
_cell_length_a   9.77916328
_cell_length_b   9.77916328
_cell_length_c   11.15909461
_cell_angle_alpha   90.00000000
_cell_angle_beta   90.00000000
_cell_angle_gamma   120.00000000
_symmetry_Int_Tables_number   1
_chemical_formula_structural   Sr3ScRhO6
_chemical_formula_sum   'Sr18 Sc6 Rh6 O36'
_cell_volume   924.19366268
_cell_formula_units_Z   6
loop_
 _symmetry_equiv_pos_site_id
 _symmetry_equiv_pos_as_xyz
  1  'x, y, z'
loop_
 _atom_site_type_symbol
 _atom_site_label
 _atom_site_symmetry_multiplicity
 _atom_site_fract_x
 _atom_site_fract_y
 _atom_site_fract_z
 _atom_site_occupancy
  Sr  Sr0  1  0.70224033  0.66666667  0.41666667  1
  Sr  Sr1  1  0.33333333  0.03557367  0.41666667  1
  Sr  Sr2  1  0.96442633  0.29775967  0.41666667  1
  Sr  Sr3  1  0.29775967  0.33333333  0.58333333  1
  Sr  Sr4  1  0.66666667  0.96442633  0.58333333  1
  Sr  Sr5  1  0.03557367  0.70224033  0.58333333  1
  Sr  Sr6  1  0.36890700  0.00000000  0.75000000  1
  Sr  Sr7  1  0.00000000  0.36890700  0.75000000  1
  Sr  Sr8  1  0.63109300  0.63109300  0.75000000  1
  Sr  Sr9  1  0.96442633  0.66666667  0.91666667  1
  Sr  Sr10  1  0.33333333  0.29775967  0.91666667  1
  Sr  Sr11  1  0.70224033  0.03557367  0.91666667  1
  Sr  Sr12  1  0.03557367  0.33333333  0.08333333  1
  Sr  Sr13  1  0.66666667  0.70224033  0.08333333  1
  Sr  Sr14  1  0.29775967  0.96442633  0.08333333  1
  Sr  Sr15  1  0.63109300  0.00000000  0.25000000  1
  Sr  Sr16  1  0.00000000  0.63109300  0.25000000  1
  Sr  Sr17  1  0.36890700  0.36890700  0.25000000  1
  Sc  Sc18  1  0.00000000  0.00000000  0.75000000  1
  Sc  Sc19  1  0.00000000  0.00000000  0.25000000  1
  Sc  Sc20  1  0.66666667  0.33333333  0.08333333  1
  Sc  Sc21  1  0.66666667  0.33333333  0.58333333  1
  Sc  Sc22  1  0.33333333  0.66666667  0.41666667  1
  Sc  Sc23  1  0.33333333  0.66666667  0.91666667  1
  Rh  Rh24  1  0.00000000  0.00000000  0.50000000  1
  Rh  Rh25  1  0.00000000  0.00000000  0.00000000  1
  Rh  Rh26  1  0.66666667  0.33333333  0.83333333  1
  Rh  Rh27  1  0.66666667  0.33333333  0.33333333  1
  Rh  Rh28  1  0.33333333  0.66666667  0.16666667  1
  Rh  Rh29  1  0.33333333  0.66666667  0.66666667  1
  O  O30  1  0.17333867  0.02024633  0.61950833  1
  O  O31  1  0.97975367  0.15309233  0.61950833  1
  O  O32  1  0.84690767  0.82666133  0.61950833  1
  O  O33  1  0.48642567  0.64642033  0.54715833  1
  O  O34  1  0.35357967  0.84000533  0.54715833  1
  O  O35  1  0.15999467  0.51357433  0.54715833  1
  O  O36  1  0.82666133  0.97975367  0.38049167  1
  O  O37  1  0.02024633  0.84690767  0.38049167  1
  O  O38  1  0.15309233  0.17333867  0.38049167  1
  O  O39  1  0.51357433  0.35357967  0.45284167  1
  O  O40  1  0.84000533  0.48642567  0.45284167  1
  O  O41  1  0.64642033  0.15999467  0.45284167  1
  O  O42  1  0.84000533  0.35357967  0.95284167  1
  O  O43  1  0.64642033  0.48642567  0.95284167  1
  O  O44  1  0.51357433  0.15999467  0.95284167  1
  O  O45  1  0.15309233  0.97975367  0.88049167  1
  O  O46  1  0.02024633  0.17333867  0.88049167  1
  O  O47  1  0.82666133  0.84690767  0.88049167  1
  O  O48  1  0.49332800  0.31308700  0.71382500  1
  O  O49  1  0.68691300  0.18024100  0.71382500  1
  O  O50  1  0.81975900  0.50667200  0.71382500  1
  O  O51  1  0.18024100  0.68691300  0.78617500  1
  O  O52  1  0.50667200  0.81975900  0.78617500  1
  O  O53  1  0.31308700  0.49332800  0.78617500  1
  O  O54  1  0.50667200  0.68691300  0.28617500  1
  O  O55  1  0.31308700  0.81975900  0.28617500  1
  O  O56  1  0.18024100  0.49332800  0.28617500  1
  O  O57  1  0.81975900  0.31308700  0.21382500  1
  O  O58  1  0.68691300  0.50667200  0.21382500  1
  O  O59  1  0.49332800  0.18024100  0.21382500  1
  O  O60  1  0.15999467  0.64642033  0.04715833  1
  O  O61  1  0.35357967  0.51357433  0.04715833  1
  O  O62  1  0.48642567  0.84000533  0.04715833  1
  O  O63  1  0.84690767  0.02024633  0.11950833  1
  O  O64  1  0.17333867  0.15309233  0.11950833  1
  O  O65  1  0.97975367  0.82666133  0.11950833  1
