# generated using pymatgen
data_Li2MnO3
_symmetry_space_group_name_H-M   'P 1'
_cell_length_a   5.01022733
_cell_length_b   8.65999200
_cell_length_c   5.08972689
_cell_angle_alpha   90.00000000
_cell_angle_beta   109.45320419
_cell_angle_gamma   90.00000000
_symmetry_Int_Tables_number   1
_chemical_formula_structural   Li2MnO3
_chemical_formula_sum   'Li8 Mn4 O12'
_cell_volume   208.22908875
_cell_formula_units_Z   4
loop_
 _symmetry_equiv_pos_site_id
 _symmetry_equiv_pos_as_xyz
  1  'x, y, z'
loop_
 _atom_site_type_symbol
 _atom_site_label
 _atom_site_symmetry_multiplicity
 _atom_site_fract_x
 _atom_site_fract_y
 _atom_site_fract_z
 _atom_site_occupancy
  Li  Li0  1  0.50000000  0.00000000  0.00000000  1
  Li  Li1  1  0.00000000  0.00000000  0.50000000  1
  Li  Li2  1  0.50000000  0.83859100  0.50000000  1
  Li  Li3  1  0.50000000  0.16140900  0.50000000  1
  Li  Li4  1  0.00000000  0.50000000  0.00000000  1
  Li  Li5  1  0.50000000  0.50000000  0.50000000  1
  Li  Li6  1  0.00000000  0.33859100  0.50000000  1
  Li  Li7  1  0.00000000  0.66140900  0.50000000  1
  Mn  Mn8  1  0.50000000  0.33311750  0.00000000  1
  Mn  Mn9  1  0.50000000  0.66688250  0.00000000  1
  Mn  Mn10  1  0.00000000  0.83311750  0.00000000  1
  Mn  Mn11  1  0.00000000  0.16688250  0.00000000  1
  O  O12  1  0.78104975  0.00000000  0.77253200  1
  O  O13  1  0.21895025  0.00000000  0.22746800  1
  O  O14  1  0.24608700  0.17859500  0.77628300  1
  O  O15  1  0.75391300  0.17859500  0.22371700  1
  O  O16  1  0.75391300  0.82140500  0.22371700  1
  O  O17  1  0.24608700  0.82140500  0.77628300  1
  O  O18  1  0.28104975  0.50000000  0.77253200  1
  O  O19  1  0.71895025  0.50000000  0.22746800  1
  O  O20  1  0.74608700  0.67859500  0.77628300  1
  O  O21  1  0.25391300  0.67859500  0.22371700  1
  O  O22  1  0.25391300  0.32140500  0.22371700  1
  O  O23  1  0.74608700  0.32140500  0.77628300  1
