# generated using pymatgen
data_ScTlSe2
_symmetry_space_group_name_H-M   'P 1'
_cell_length_a   3.98316974
_cell_length_b   3.98316974
_cell_length_c   23.23555511
_cell_angle_alpha   90.00000000
_cell_angle_beta   90.00000000
_cell_angle_gamma   120.00000000
_symmetry_Int_Tables_number   1
_chemical_formula_structural   ScTlSe2
_chemical_formula_sum   'Sc3 Tl3 Se6'
_cell_volume   319.25765037
_cell_formula_units_Z   3
loop_
 _symmetry_equiv_pos_site_id
 _symmetry_equiv_pos_as_xyz
  1  'x, y, z'
loop_
 _atom_site_type_symbol
 _atom_site_label
 _atom_site_symmetry_multiplicity
 _atom_site_fract_x
 _atom_site_fract_y
 _atom_site_fract_z
 _atom_site_occupancy
  Sc  Sc0  1  0.00000000  0.00000000  0.00000000  1
  Sc  Sc1  1  0.66666667  0.33333333  0.33333333  1
  Sc  Sc2  1  0.33333333  0.66666667  0.66666667  1
  Tl  Tl3  1  0.33333333  0.66666667  0.16666667  1
  Tl  Tl4  1  1.00000000  1.00000000  0.50000000  1
  Tl  Tl5  1  0.66666667  0.33333333  0.83333333  1
  Se  Se6  1  0.66666667  0.33333333  0.06467633  1
  Se  Se7  1  0.00000000  0.00000000  0.26865700  1
  Se  Se8  1  0.33333333  0.66666667  0.39800967  1
  Se  Se9  1  0.66666667  0.33333333  0.60199033  1
  Se  Se10  1  0.00000000  0.00000000  0.73134300  1
  Se  Se11  1  0.33333333  0.66666667  0.93532367  1
