# generated using pymatgen
data_YbCrO4
_symmetry_space_group_name_H-M   'P 1'
_cell_length_a   7.24542000
_cell_length_b   7.24542000
_cell_length_c   6.21215800
_cell_angle_alpha   90.00000000
_cell_angle_beta   90.00000000
_cell_angle_gamma   90.00000000
_symmetry_Int_Tables_number   1
_chemical_formula_structural   YbCrO4
_chemical_formula_sum   'Yb4 Cr4 O16'
_cell_volume   326.11413577
_cell_formula_units_Z   4
loop_
 _symmetry_equiv_pos_site_id
 _symmetry_equiv_pos_as_xyz
  1  'x, y, z'
loop_
 _atom_site_type_symbol
 _atom_site_label
 _atom_site_symmetry_multiplicity
 _atom_site_fract_x
 _atom_site_fract_y
 _atom_site_fract_z
 _atom_site_occupancy
  Yb  Yb0  1  0.50000000  0.00000000  0.25000000  1
  Yb  Yb1  1  0.50000000  0.50000000  0.50000000  1
  Yb  Yb2  1  0.00000000  0.50000000  0.75000000  1
  Yb  Yb3  1  0.00000000  0.00000000  0.00000000  1
  Cr  Cr4  1  0.00000000  0.00000000  0.50000000  1
  Cr  Cr5  1  0.50000000  0.00000000  0.75000000  1
  Cr  Cr6  1  0.50000000  0.50000000  0.00000000  1
  Cr  Cr7  1  0.00000000  0.50000000  0.25000000  1
  O  O8  1  0.50000000  0.18104200  0.58520300  1
  O  O9  1  0.81895800  0.00000000  0.33520300  1
  O  O10  1  0.18104200  0.00000000  0.33520300  1
  O  O11  1  0.00000000  0.31895800  0.08520300  1
  O  O12  1  0.68104200  0.00000000  0.91479700  1
  O  O13  1  0.00000000  0.81895800  0.66479700  1
  O  O14  1  0.00000000  0.18104200  0.66479700  1
  O  O15  1  0.81895800  0.50000000  0.41479700  1
  O  O16  1  0.00000000  0.68104200  0.08520300  1
  O  O17  1  0.31895800  0.50000000  0.83520300  1
  O  O18  1  0.68104200  0.50000000  0.83520300  1
  O  O19  1  0.50000000  0.81895800  0.58520300  1
  O  O20  1  0.18104200  0.50000000  0.41479700  1
  O  O21  1  0.50000000  0.31895800  0.16479700  1
  O  O22  1  0.50000000  0.68104200  0.16479700  1
  O  O23  1  0.31895800  0.00000000  0.91479700  1
