# generated using pymatgen
data_KHo2CuSe4
_symmetry_space_group_name_H-M   'P 1'
_cell_length_a   4.10036800
_cell_length_b   14.02786200
_cell_length_c   14.33595800
_cell_angle_alpha   90.00000000
_cell_angle_beta   90.00000000
_cell_angle_gamma   90.00000000
_symmetry_Int_Tables_number   1
_chemical_formula_structural   KHo2CuSe4
_chemical_formula_sum   'K4 Ho8 Cu4 Se16'
_cell_volume   824.59565174
_cell_formula_units_Z   4
loop_
 _symmetry_equiv_pos_site_id
 _symmetry_equiv_pos_as_xyz
  1  'x, y, z'
loop_
 _atom_site_type_symbol
 _atom_site_label
 _atom_site_symmetry_multiplicity
 _atom_site_fract_x
 _atom_site_fract_y
 _atom_site_fract_z
 _atom_site_occupancy
  K  K0  1  0.50000000  0.38738000  0.75000000  1
  K  K1  1  0.00000000  0.11262000  0.25000000  1
  K  K2  1  0.00000000  0.88738000  0.75000000  1
  K  K3  1  0.50000000  0.61262000  0.25000000  1
  Ho  Ho4  1  0.50000000  0.13420800  0.93494600  1
  Ho  Ho5  1  0.00000000  0.36579200  0.06505400  1
  Ho  Ho6  1  0.00000000  0.36579200  0.43494600  1
  Ho  Ho7  1  0.50000000  0.13420800  0.56505400  1
  Ho  Ho8  1  0.00000000  0.63420800  0.93494600  1
  Ho  Ho9  1  0.50000000  0.86579200  0.06505400  1
  Ho  Ho10  1  0.50000000  0.86579200  0.43494600  1
  Ho  Ho11  1  0.00000000  0.63420800  0.56505400  1
  Cu  Cu12  1  0.00000000  0.16024000  0.75000000  1
  Cu  Cu13  1  0.50000000  0.33976000  0.25000000  1
  Cu  Cu14  1  0.50000000  0.66024000  0.75000000  1
  Cu  Cu15  1  0.00000000  0.83976000  0.25000000  1
  Se  Se16  1  0.00000000  0.43611600  0.25000000  1
  Se  Se17  1  0.50000000  0.06388400  0.75000000  1
  Se  Se18  1  0.50000000  0.23510300  0.38883000  1
  Se  Se19  1  0.00000000  0.26489700  0.61117000  1
  Se  Se20  1  0.00000000  0.26489700  0.88883000  1
  Se  Se21  1  0.50000000  0.23510300  0.11117000  1
  Se  Se22  1  0.00000000  0.00000000  0.50000000  1
  Se  Se23  1  0.00000000  0.00000000  0.00000000  1
  Se  Se24  1  0.50000000  0.93611600  0.25000000  1
  Se  Se25  1  0.00000000  0.56388400  0.75000000  1
  Se  Se26  1  0.00000000  0.73510300  0.38883000  1
  Se  Se27  1  0.50000000  0.76489700  0.61117000  1
  Se  Se28  1  0.50000000  0.76489700  0.88883000  1
  Se  Se29  1  0.00000000  0.73510300  0.11117000  1
  Se  Se30  1  0.50000000  0.50000000  0.50000000  1
  Se  Se31  1  0.50000000  0.50000000  0.00000000  1
