# generated using pymatgen
data_KNb(PO4)2
_symmetry_space_group_name_H-M   'P 1'
_cell_length_a   5.25871300
_cell_length_b   12.00639700
_cell_length_c   13.05666591
_cell_angle_alpha   90.00000000
_cell_angle_beta   112.51751967
_cell_angle_gamma   90.00000000
_symmetry_Int_Tables_number   1
_chemical_formula_structural   KNb(PO4)2
_chemical_formula_sum   'K4 Nb4 P8 O32'
_cell_volume   761.52607145
_cell_formula_units_Z   4
loop_
 _symmetry_equiv_pos_site_id
 _symmetry_equiv_pos_as_xyz
  1  'x, y, z'
loop_
 _atom_site_type_symbol
 _atom_site_label
 _atom_site_symmetry_multiplicity
 _atom_site_fract_x
 _atom_site_fract_y
 _atom_site_fract_z
 _atom_site_occupancy
  K  K0  1  0.31529000  0.63407200  0.05252700  1
  K  K1  1  0.68471000  0.36592800  0.94747300  1
  K  K2  1  0.31529000  0.86592800  0.55252700  1
  K  K3  1  0.68471000  0.13407200  0.44747300  1
  Nb  Nb4  1  0.08839000  0.62265100  0.33100100  1
  Nb  Nb5  1  0.91161000  0.12265100  0.16899900  1
  Nb  Nb6  1  0.91161000  0.37734900  0.66899900  1
  Nb  Nb7  1  0.08839000  0.87734900  0.83100100  1
  P  P8  1  0.61542800  0.43615800  0.36548000  1
  P  P9  1  0.61542800  0.06384200  0.86548000  1
  P  P10  1  0.38457200  0.56384200  0.63452000  1
  P  P11  1  0.38457200  0.93615800  0.13452000  1
  P  P12  1  0.60488600  0.81094600  0.34802000  1
  P  P13  1  0.60488600  0.68905400  0.84802000  1
  P  P14  1  0.39511400  0.18905400  0.65198000  1
  P  P15  1  0.39511400  0.31094600  0.15198000  1
  O  O16  1  0.33293000  0.48652100  0.34758700  1
  O  O17  1  0.66707000  0.98652100  0.15241300  1
  O  O18  1  0.66707000  0.51347900  0.65241300  1
  O  O19  1  0.33293000  0.01347900  0.84758700  1
  O  O20  1  0.55535600  0.32817700  0.28551300  1
  O  O21  1  0.44464400  0.82817700  0.21448700  1
  O  O22  1  0.44464400  0.67182300  0.71448700  1
  O  O23  1  0.55535600  0.17182300  0.78551300  1
  O  O24  1  0.42535100  0.72297800  0.37590800  1
  O  O25  1  0.57464900  0.22297800  0.12409200  1
  O  O26  1  0.57464900  0.27702200  0.62409200  1
  O  O27  1  0.42535100  0.77702200  0.87590800  1
  O  O28  1  0.63555500  0.91674100  0.41125700  1
  O  O29  1  0.36444500  0.41674100  0.08874300  1
  O  O30  1  0.36444500  0.08325900  0.58874300  1
  O  O31  1  0.63555500  0.58325900  0.91125700  1
  O  O32  1  0.77123300  0.10941600  0.97931000  1
  O  O33  1  0.22876700  0.60941600  0.52069000  1
  O  O34  1  0.22876700  0.89058400  0.02069000  1
  O  O35  1  0.77123300  0.39058400  0.47931000  1
  O  O36  1  0.77580800  0.98060200  0.82314900  1
  O  O37  1  0.22419200  0.48060200  0.67685100  1
  O  O38  1  0.22419200  0.01939800  0.17685100  1
  O  O39  1  0.77580800  0.51939800  0.32314900  1
  O  O40  1  0.01777600  0.35921500  0.81288200  1
  O  O41  1  0.98222400  0.85921500  0.68711800  1
  O  O42  1  0.98222400  0.64078500  0.18711800  1
  O  O43  1  0.01777600  0.14078500  0.31288200  1
  O  O44  1  0.88105900  0.74404100  0.86105600  1
  O  O45  1  0.11894100  0.24404100  0.63894400  1
  O  O46  1  0.11894100  0.25595900  0.13894400  1
  O  O47  1  0.88105900  0.75595900  0.36105600  1
