# generated using pymatgen
data_Na5Nd(WO4)4
_symmetry_space_group_name_H-M   'P 1'
_cell_length_a   11.78663800
_cell_length_b   11.78663800
_cell_length_c   11.55124200
_cell_angle_alpha   90.00000000
_cell_angle_beta   90.00000000
_cell_angle_gamma   90.00000000
_symmetry_Int_Tables_number   1
_chemical_formula_structural   Na5Nd(WO4)4
_chemical_formula_sum   'Na20 Nd4 W16 O64'
_cell_volume   1604.75439286
_cell_formula_units_Z   4
loop_
 _symmetry_equiv_pos_site_id
 _symmetry_equiv_pos_as_xyz
  1  'x, y, z'
loop_
 _atom_site_type_symbol
 _atom_site_label
 _atom_site_symmetry_multiplicity
 _atom_site_fract_x
 _atom_site_fract_y
 _atom_site_fract_z
 _atom_site_occupancy
  Na  Na0  1  0.70508500  0.62096800  0.28291300  1
  Na  Na1  1  0.37903200  0.20508500  0.03291300  1
  Na  Na2  1  0.50000000  0.00000000  0.75000000  1
  Na  Na3  1  0.00000000  0.00000000  0.50000000  1
  Na  Na4  1  0.62096800  0.29491500  0.71708700  1
  Na  Na5  1  0.79491500  0.37903200  0.96708700  1
  Na  Na6  1  0.70508500  0.12096800  0.46708700  1
  Na  Na7  1  0.87903200  0.20508500  0.21708700  1
  Na  Na8  1  0.12096800  0.29491500  0.53291300  1
  Na  Na9  1  0.79491500  0.87903200  0.78291300  1
  Na  Na10  1  0.20508500  0.12096800  0.78291300  1
  Na  Na11  1  0.87903200  0.70508500  0.53291300  1
  Na  Na12  1  0.00000000  0.50000000  0.25000000  1
  Na  Na13  1  0.50000000  0.50000000  0.00000000  1
  Na  Na14  1  0.12096800  0.79491500  0.21708700  1
  Na  Na15  1  0.29491500  0.87903200  0.46708700  1
  Na  Na16  1  0.20508500  0.62096800  0.96708700  1
  Na  Na17  1  0.37903200  0.70508500  0.71708700  1
  Na  Na18  1  0.62096800  0.79491500  0.03291300  1
  Na  Na19  1  0.29491500  0.37903200  0.28291300  1
  Nd  Nd20  1  0.50000000  0.00000000  0.25000000  1
  Nd  Nd21  1  0.50000000  0.50000000  0.50000000  1
  Nd  Nd22  1  0.00000000  0.50000000  0.75000000  1
  Nd  Nd23  1  0.00000000  0.00000000  0.00000000  1
  W  W24  1  0.90445700  0.18257800  0.73466300  1
  W  W25  1  0.68257800  0.09554300  0.98466300  1
  W  W26  1  0.81742200  0.40445700  0.48466300  1
  W  W27  1  0.59554300  0.31742200  0.23466300  1
  W  W28  1  0.09554300  0.31742200  0.01533700  1
  W  W29  1  0.31742200  0.40445700  0.76533700  1
  W  W30  1  0.18257800  0.09554300  0.26533700  1
  W  W31  1  0.40445700  0.18257800  0.51533700  1
  W  W32  1  0.40445700  0.68257800  0.23466300  1
  W  W33  1  0.18257800  0.59554300  0.48466300  1
  W  W34  1  0.31742200  0.90445700  0.98466300  1
  W  W35  1  0.09554300  0.81742200  0.73466300  1
  W  W36  1  0.59554300  0.81742200  0.51533700  1
  W  W37  1  0.81742200  0.90445700  0.26533700  1
  W  W38  1  0.68257800  0.59554300  0.76533700  1
  W  W39  1  0.90445700  0.68257800  0.01533700  1
  O  O40  1  0.52739000  0.14877900  0.60358800  1
  O  O41  1  0.14877900  0.97261000  0.35358800  1
  O  O42  1  0.85122100  0.02739000  0.35358800  1
  O  O43  1  0.97261000  0.35122100  0.10358800  1
  O  O44  1  0.97261000  0.85122100  0.64641200  1
  O  O45  1  0.85122100  0.52739000  0.39641200  1
  O  O46  1  0.64877900  0.97261000  0.89641200  1
  O  O47  1  0.02739000  0.14877900  0.64641200  1
  O  O48  1  0.41688250  0.31858850  0.43637050  1
  O  O49  1  0.31858850  0.08311750  0.18637050  1
  O  O50  1  0.18141150  0.41688250  0.68637050  1
  O  O51  1  0.58311750  0.68141150  0.43637050  1
  O  O52  1  0.58311750  0.18141150  0.31362950  1
  O  O53  1  0.68141150  0.41688250  0.56362950  1
  O  O54  1  0.31858850  0.58311750  0.56362950  1
  O  O55  1  0.91688250  0.31858850  0.81362950  1
  O  O56  1  0.78311300  0.68304000  0.10972400  1
  O  O57  1  0.18304000  0.21688700  0.35972400  1
  O  O58  1  0.31696000  0.28311300  0.85972400  1
  O  O59  1  0.71688700  0.81696000  0.60972400  1
  O  O60  1  0.88500400  0.06127800  0.83195000  1
  O  O61  1  0.56127800  0.11499600  0.08195000  1
  O  O62  1  0.93872200  0.38500400  0.58195000  1
  O  O63  1  0.61499600  0.43872200  0.33195000  1
  O  O64  1  0.61499600  0.93872200  0.41805000  1
  O  O65  1  0.43872200  0.38500400  0.66805000  1
  O  O66  1  0.06127800  0.11499600  0.16805000  1
  O  O67  1  0.88500400  0.56127800  0.91805000  1
  O  O68  1  0.78311300  0.18304000  0.64027600  1
  O  O69  1  0.68304000  0.21688700  0.89027600  1
  O  O70  1  0.81696000  0.28311300  0.39027600  1
  O  O71  1  0.71688700  0.31696000  0.14027600  1
  O  O72  1  0.02739000  0.64877900  0.10358800  1
  O  O73  1  0.64877900  0.47261000  0.85358800  1
  O  O74  1  0.35122100  0.52739000  0.85358800  1
  O  O75  1  0.47261000  0.85122100  0.60358800  1
  O  O76  1  0.47261000  0.35122100  0.14641200  1
  O  O77  1  0.35122100  0.02739000  0.89641200  1
  O  O78  1  0.14877900  0.47261000  0.39641200  1
  O  O79  1  0.52739000  0.64877900  0.14641200  1
  O  O80  1  0.91688250  0.81858850  0.93637050  1
  O  O81  1  0.81858850  0.58311750  0.68637050  1
  O  O82  1  0.68141150  0.91688250  0.18637050  1
  O  O83  1  0.08311750  0.18141150  0.93637050  1
  O  O84  1  0.08311750  0.68141150  0.81362950  1
  O  O85  1  0.18141150  0.91688250  0.06362950  1
  O  O86  1  0.81858850  0.08311750  0.06362950  1
  O  O87  1  0.41688250  0.81858850  0.31362950  1
  O  O88  1  0.28311300  0.18304000  0.60972400  1
  O  O89  1  0.68304000  0.71688700  0.85972400  1
  O  O90  1  0.81696000  0.78311300  0.35972400  1
  O  O91  1  0.21688700  0.31696000  0.10972400  1
  O  O92  1  0.38500400  0.56127800  0.33195000  1
  O  O93  1  0.06127800  0.61499600  0.58195000  1
  O  O94  1  0.43872200  0.88500400  0.08195000  1
  O  O95  1  0.11499600  0.93872200  0.83195000  1
  O  O96  1  0.11499600  0.43872200  0.91805000  1
  O  O97  1  0.93872200  0.88500400  0.16805000  1
  O  O98  1  0.56127800  0.61499600  0.66805000  1
  O  O99  1  0.38500400  0.06127800  0.41805000  1
  O  O100  1  0.28311300  0.68304000  0.14027600  1
  O  O101  1  0.18304000  0.71688700  0.39027600  1
  O  O102  1  0.31696000  0.78311300  0.89027600  1
  O  O103  1  0.21688700  0.81696000  0.64027600  1
