# generated using pymatgen
data_Tl2MoO4
_symmetry_space_group_name_H-M   'P 1'
_cell_length_a   10.84316800
_cell_length_b   6.65968000
_cell_length_c   8.26605695
_cell_angle_alpha   90.00000000
_cell_angle_beta   90.91365959
_cell_angle_gamma   90.00000000
_symmetry_Int_Tables_number   1
_chemical_formula_structural   Tl2MoO4
_chemical_formula_sum   'Tl8 Mo4 O16'
_cell_volume   596.83285350
_cell_formula_units_Z   4
loop_
 _symmetry_equiv_pos_site_id
 _symmetry_equiv_pos_as_xyz
  1  'x, y, z'
loop_
 _atom_site_type_symbol
 _atom_site_label
 _atom_site_symmetry_multiplicity
 _atom_site_fract_x
 _atom_site_fract_y
 _atom_site_fract_z
 _atom_site_occupancy
  Tl  Tl0  1  0.34069050  0.99153550  0.18843700  1
  Tl  Tl1  1  0.65930950  0.99153550  0.81156300  1
  Tl  Tl2  1  0.50000000  0.53771400  0.50000000  1
  Tl  Tl3  1  0.50000000  0.50941800  0.00000000  1
  Tl  Tl4  1  0.84069050  0.49153550  0.18843700  1
  Tl  Tl5  1  0.15930950  0.49153550  0.81156300  1
  Tl  Tl6  1  0.00000000  0.03771400  0.50000000  1
  Tl  Tl7  1  0.00000000  0.00941800  0.00000000  1
  Mo  Mo8  1  0.65961100  0.02465400  0.30417600  1
  Mo  Mo9  1  0.34038900  0.02465400  0.69582400  1
  Mo  Mo10  1  0.15961100  0.52465400  0.30417600  1
  Mo  Mo11  1  0.84038900  0.52465400  0.69582400  1
  O  O12  1  0.58242600  0.82095400  0.19926100  1
  O  O13  1  0.41757400  0.82095400  0.80073900  1
  O  O14  1  0.80208650  0.08804950  0.20576300  1
  O  O15  1  0.19791350  0.08804950  0.79423700  1
  O  O16  1  0.55621050  0.23633150  0.29308300  1
  O  O17  1  0.44378950  0.23633150  0.70691700  1
  O  O18  1  0.30976350  0.95020950  0.49038000  1
  O  O19  1  0.69023650  0.95020950  0.50962000  1
  O  O20  1  0.08242600  0.32095400  0.19926100  1
  O  O21  1  0.91757400  0.32095400  0.80073900  1
  O  O22  1  0.30208650  0.58804950  0.20576300  1
  O  O23  1  0.69791350  0.58804950  0.79423700  1
  O  O24  1  0.05621050  0.73633150  0.29308300  1
  O  O25  1  0.94378950  0.73633150  0.70691700  1
  O  O26  1  0.80976350  0.45020950  0.49038000  1
  O  O27  1  0.19023650  0.45020950  0.50962000  1
