# generated using pymatgen
data_Nb9PO25
_symmetry_space_group_name_H-M   'P 1'
_cell_length_a   15.92625400
_cell_length_b   15.92625400
_cell_length_c   3.87765600
_cell_angle_alpha   90.00000000
_cell_angle_beta   90.00000000
_cell_angle_gamma   90.00000000
_symmetry_Int_Tables_number   1
_chemical_formula_structural   Nb9PO25
_chemical_formula_sum   'Nb18 P2 O50'
_cell_volume   983.55025271
_cell_formula_units_Z   2
loop_
 _symmetry_equiv_pos_site_id
 _symmetry_equiv_pos_as_xyz
  1  'x, y, z'
loop_
 _atom_site_type_symbol
 _atom_site_label
 _atom_site_symmetry_multiplicity
 _atom_site_fract_x
 _atom_site_fract_y
 _atom_site_fract_z
 _atom_site_occupancy
  Nb  Nb0  1  0.61279100  0.17086600  0.49544400  1
  Nb  Nb1  1  0.38720900  0.82913400  0.49544400  1
  Nb  Nb2  1  0.32913400  0.11279100  0.00455600  1
  Nb  Nb3  1  0.39034800  0.28229900  0.49266500  1
  Nb  Nb4  1  0.21770100  0.89034800  0.00733500  1
  Nb  Nb5  1  0.78229900  0.10965200  0.00733500  1
  Nb  Nb6  1  0.60965200  0.71770100  0.49266500  1
  Nb  Nb7  1  0.00000000  0.00000000  0.00000000  1
  Nb  Nb8  1  0.67086600  0.88720900  0.00455600  1
  Nb  Nb9  1  0.11279100  0.67086600  0.99544400  1
  Nb  Nb10  1  0.88720900  0.32913400  0.99544400  1
  Nb  Nb11  1  0.82913400  0.61279100  0.50455600  1
  Nb  Nb12  1  0.89034800  0.78229900  0.99266500  1
  Nb  Nb13  1  0.71770100  0.39034800  0.50733500  1
  Nb  Nb14  1  0.28229900  0.60965200  0.50733500  1
  Nb  Nb15  1  0.10965200  0.21770100  0.99266500  1
  Nb  Nb16  1  0.50000000  0.50000000  0.50000000  1
  Nb  Nb17  1  0.17086600  0.38720900  0.50455600  1
  P  P18  1  0.50000000  0.00000000  0.75000000  1
  P  P19  1  0.00000000  0.50000000  0.25000000  1
  O  O20  1  0.64477200  0.15538600  0.01005300  1
  O  O21  1  0.34461400  0.14477200  0.48994700  1
  O  O22  1  0.65538600  0.85522800  0.48994700  1
  O  O23  1  0.35522800  0.84461400  0.01005300  1
  O  O24  1  0.55207800  0.93715100  0.96761900  1
  O  O25  1  0.56284900  0.05207800  0.53238100  1
  O  O26  1  0.43715100  0.94792200  0.53238100  1
  O  O27  1  0.44792200  0.06284900  0.96761900  1
  O  O28  1  0.72106600  0.98891000  0.01217700  1
  O  O29  1  0.51109000  0.22106600  0.48782300  1
  O  O30  1  0.00000000  0.00000000  0.50000000  1
  O  O31  1  0.38714750  0.24807250  0.99014050  1
  O  O32  1  0.25192750  0.88714750  0.50985950  1
  O  O33  1  0.74807250  0.11285250  0.50985950  1
  O  O34  1  0.61285250  0.75192750  0.99014050  1
  O  O35  1  0.55361900  0.61551600  0.49777900  1
  O  O36  1  0.88448400  0.05361900  0.00222100  1
  O  O37  1  0.11551600  0.94638100  0.00222100  1
  O  O38  1  0.44638100  0.38448400  0.49777900  1
  O  O39  1  0.21983750  0.17473650  0.98117350  1
  O  O40  1  0.32526350  0.71983750  0.51882650  1
  O  O41  1  0.67473650  0.28016250  0.51882650  1
  O  O42  1  0.78016250  0.82526350  0.98117350  1
  O  O43  1  0.27893400  0.01109000  0.01217700  1
  O  O44  1  0.48891000  0.77893400  0.48782300  1
  O  O45  1  0.14477200  0.65538600  0.51005300  1
  O  O46  1  0.84461400  0.64477200  0.98994700  1
  O  O47  1  0.15538600  0.35522800  0.98994700  1
  O  O48  1  0.85522800  0.34461400  0.51005300  1
  O  O49  1  0.05207800  0.43715100  0.46761900  1
  O  O50  1  0.06284900  0.55207800  0.03238100  1
  O  O51  1  0.93715100  0.44792200  0.03238100  1
  O  O52  1  0.94792200  0.56284900  0.46761900  1
  O  O53  1  0.22106600  0.48891000  0.51217700  1
  O  O54  1  0.01109000  0.72106600  0.98782300  1
  O  O55  1  0.50000000  0.50000000  0.00000000  1
  O  O56  1  0.88714750  0.74807250  0.49014050  1
  O  O57  1  0.75192750  0.38714750  0.00985950  1
  O  O58  1  0.24807250  0.61285250  0.00985950  1
  O  O59  1  0.11285250  0.25192750  0.49014050  1
  O  O60  1  0.05361900  0.11551600  0.99777900  1
  O  O61  1  0.38448400  0.55361900  0.50222100  1
  O  O62  1  0.61551600  0.44638100  0.50222100  1
  O  O63  1  0.94638100  0.88448400  0.99777900  1
  O  O64  1  0.71983750  0.67473650  0.48117350  1
  O  O65  1  0.82526350  0.21983750  0.01882650  1
  O  O66  1  0.17473650  0.78016250  0.01882650  1
  O  O67  1  0.28016250  0.32526350  0.48117350  1
  O  O68  1  0.77893400  0.51109000  0.51217700  1
  O  O69  1  0.98891000  0.27893400  0.98782300  1
