# generated using pymatgen
data_CsTb(PO3)4
_symmetry_space_group_name_H-M   'P 1'
_cell_length_a   7.11061000
_cell_length_b   9.17285900
_cell_length_c   8.80939334
_cell_angle_alpha   90.00000000
_cell_angle_beta   99.98301359
_cell_angle_gamma   90.00000000
_symmetry_Int_Tables_number   1
_chemical_formula_structural   CsTb(PO3)4
_chemical_formula_sum   'Cs2 Tb2 P8 O24'
_cell_volume   565.88961127
_cell_formula_units_Z   2
loop_
 _symmetry_equiv_pos_site_id
 _symmetry_equiv_pos_as_xyz
  1  'x, y, z'
loop_
 _atom_site_type_symbol
 _atom_site_label
 _atom_site_symmetry_multiplicity
 _atom_site_fract_x
 _atom_site_fract_y
 _atom_site_fract_z
 _atom_site_occupancy
  Cs  Cs0  1  0.33106600  0.33402700  0.82630400  1
  Cs  Cs1  1  0.66893400  0.83402700  0.17369600  1
  Tb  Tb2  1  0.19859100  0.49875300  0.30265100  1
  Tb  Tb3  1  0.80140900  0.99875300  0.69734900  1
  P  P4  1  0.35849500  0.86698700  0.46030300  1
  P  P5  1  0.64150500  0.36698700  0.53969700  1
  P  P6  1  0.94135500  0.60897800  0.62130400  1
  P  P7  1  0.05864500  0.10897800  0.37869600  1
  P  P8  1  0.68693800  0.42495800  0.22312900  1
  P  P9  1  0.31306200  0.92495800  0.77687100  1
  P  P10  1  0.91727800  0.22480900  0.06859400  1
  P  P11  1  0.08272200  0.72480900  0.93140600  1
  O  O12  1  0.15108300  0.25522900  0.40712000  1
  O  O13  1  0.84891700  0.75522900  0.59288000  1
  O  O14  1  0.78834400  0.48214900  0.63406200  1
  O  O15  1  0.21165600  0.98214900  0.36593800  1
  O  O16  1  0.71936100  0.33222500  0.38195400  1
  O  O17  1  0.28063900  0.83222500  0.61804600  1
  O  O18  1  0.45153700  0.44128800  0.50325700  1
  O  O19  1  0.54846300  0.94128800  0.49674300  1
  O  O20  1  0.48174900  0.47179100  0.18154000  1
  O  O21  1  0.51825100  0.97179100  0.81846000  1
  O  O22  1  0.94788500  0.09953000  0.20022400  1
  O  O23  1  0.05211500  0.59953000  0.79977600  1
  O  O24  1  0.92150100  0.83280000  0.90410800  1
  O  O25  1  0.07849900  0.33280000  0.09589200  1
  O  O26  1  0.86805200  0.15079100  0.91708100  1
  O  O27  1  0.13194800  0.65079100  0.08291900  1
  O  O28  1  0.07789300  0.55470300  0.52275100  1
  O  O29  1  0.92210700  0.05470300  0.47724900  1
  O  O30  1  0.28200300  0.79945900  0.89942800  1
  O  O31  1  0.71799700  0.29945900  0.10057200  1
  O  O32  1  0.65934900  0.22999200  0.63295000  1
  O  O33  1  0.34065100  0.72999200  0.36705000  1
  O  O34  1  0.15585100  0.03553000  0.76657700  1
  O  O35  1  0.84414900  0.53553000  0.23342300  1
