# generated using pymatgen
data_Zn2SiO4
_symmetry_space_group_name_H-M   'P 1'
_cell_length_a   4.84969700
_cell_length_b   6.09910600
_cell_length_c   10.43784700
_cell_angle_alpha   90.00000000
_cell_angle_beta   90.00000000
_cell_angle_gamma   90.00000000
_symmetry_Int_Tables_number   1
_chemical_formula_structural   Zn2SiO4
_chemical_formula_sum   'Zn8 Si4 O16'
_cell_volume   308.73915659
_cell_formula_units_Z   4
loop_
 _symmetry_equiv_pos_site_id
 _symmetry_equiv_pos_as_xyz
  1  'x, y, z'
loop_
 _atom_site_type_symbol
 _atom_site_label
 _atom_site_symmetry_multiplicity
 _atom_site_fract_x
 _atom_site_fract_y
 _atom_site_fract_z
 _atom_site_occupancy
  Zn  Zn0  1  0.50000000  0.00000000  0.50000000  1
  Zn  Zn1  1  0.00000000  0.50000000  0.00000000  1
  Zn  Zn2  1  0.50000000  0.50000000  0.50000000  1
  Zn  Zn3  1  0.00000000  0.00000000  0.00000000  1
  Zn  Zn4  1  0.48500200  0.75000000  0.22003900  1
  Zn  Zn5  1  0.01499800  0.75000000  0.72003900  1
  Zn  Zn6  1  0.51499800  0.25000000  0.77996100  1
  Zn  Zn7  1  0.98500200  0.25000000  0.27996100  1
  Si  Si8  1  0.92600100  0.75000000  0.40394000  1
  Si  Si9  1  0.57399900  0.75000000  0.90394000  1
  Si  Si10  1  0.07399900  0.25000000  0.59606000  1
  Si  Si11  1  0.42600100  0.25000000  0.09606000  1
  O  O12  1  0.26388600  0.75000000  0.40632500  1
  O  O13  1  0.23611400  0.75000000  0.90632500  1
  O  O14  1  0.73611400  0.25000000  0.59367500  1
  O  O15  1  0.76388600  0.25000000  0.09367500  1
  O  O16  1  0.71613300  0.75000000  0.05101500  1
  O  O17  1  0.78386700  0.75000000  0.55101500  1
  O  O18  1  0.28386700  0.25000000  0.94898500  1
  O  O19  1  0.21613300  0.25000000  0.44898500  1
  O  O20  1  0.77983300  0.96626400  0.33560600  1
  O  O21  1  0.72016700  0.53373600  0.83560600  1
  O  O22  1  0.22016700  0.46626400  0.66439400  1
  O  O23  1  0.27983300  0.03373600  0.16439400  1
  O  O24  1  0.22016700  0.03373600  0.66439400  1
  O  O25  1  0.27983300  0.46626400  0.16439400  1
  O  O26  1  0.77983300  0.53373600  0.33560600  1
  O  O27  1  0.72016700  0.96626400  0.83560600  1
