# generated using pymatgen
data_Sr2CoWO6
_symmetry_space_group_name_H-M   'P 1'
_cell_length_a   5.59469603
_cell_length_b   5.59469603
_cell_length_c   8.26195402
_cell_angle_alpha   90.00000000
_cell_angle_beta   90.00000000
_cell_angle_gamma   90.00000000
_symmetry_Int_Tables_number   1
_chemical_formula_structural   Sr2CoWO6
_chemical_formula_sum   'Sr4 Co2 W2 O12'
_cell_volume   258.60431403
_cell_formula_units_Z   2
loop_
 _symmetry_equiv_pos_site_id
 _symmetry_equiv_pos_as_xyz
  1  'x, y, z'
loop_
 _atom_site_type_symbol
 _atom_site_label
 _atom_site_symmetry_multiplicity
 _atom_site_fract_x
 _atom_site_fract_y
 _atom_site_fract_z
 _atom_site_occupancy
  Sr  Sr0  1  0.50000000  0.00000000  0.25000000  1
  Sr  Sr1  1  0.00000000  0.50000000  0.25000000  1
  Sr  Sr2  1  0.00000000  0.50000000  0.75000000  1
  Sr  Sr3  1  0.50000000  0.00000000  0.75000000  1
  Co  Co4  1  0.50000000  0.50000000  0.00000000  1
  Co  Co5  1  0.00000000  0.00000000  0.50000000  1
  W  W6  1  0.50000000  0.50000000  0.50000000  1
  W  W7  1  0.00000000  0.00000000  0.00000000  1
  O  O8  1  0.00000000  0.00000000  0.23636475  1
  O  O9  1  0.50000000  0.50000000  0.26363525  1
  O  O10  1  0.78605350  0.69972700  0.50000000  1
  O  O11  1  0.71394650  0.80027300  0.00000000  1
  O  O12  1  0.80027300  0.28605350  0.00000000  1
  O  O13  1  0.69972700  0.21394650  0.50000000  1
  O  O14  1  0.50000000  0.50000000  0.73636475  1
  O  O15  1  0.00000000  0.00000000  0.76363525  1
  O  O16  1  0.28605350  0.19972700  0.00000000  1
  O  O17  1  0.21394650  0.30027300  0.50000000  1
  O  O18  1  0.30027300  0.78605350  0.50000000  1
  O  O19  1  0.19972700  0.71394650  0.00000000  1
