# generated using pymatgen
data_CrCoO4
_symmetry_space_group_name_H-M   'P 1'
_cell_length_a   5.56625016
_cell_length_b   8.42101267
_cell_length_c   6.39125891
_cell_angle_alpha   90.00000000
_cell_angle_beta   90.00000000
_cell_angle_gamma   90.00000000
_symmetry_Int_Tables_number   1
_chemical_formula_structural   CrCoO4
_chemical_formula_sum   'Cr4 Co4 O16'
_cell_volume   299.58043876
_cell_formula_units_Z   4
loop_
 _symmetry_equiv_pos_site_id
 _symmetry_equiv_pos_as_xyz
  1  'x, y, z'
loop_
 _atom_site_type_symbol
 _atom_site_label
 _atom_site_symmetry_multiplicity
 _atom_site_fract_x
 _atom_site_fract_y
 _atom_site_fract_z
 _atom_site_occupancy
  Cr  Cr0  1  0.50000000  0.14447700  0.75000000  1
  Cr  Cr1  1  0.50000000  0.85552300  0.25000000  1
  Cr  Cr2  1  0.00000000  0.64447700  0.75000000  1
  Cr  Cr3  1  0.00000000  0.35552300  0.25000000  1
  Co  Co4  1  0.50000000  0.50000000  0.50000000  1
  Co  Co5  1  0.50000000  0.50000000  0.00000000  1
  Co  Co6  1  0.00000000  0.00000000  0.50000000  1
  Co  Co7  1  0.00000000  0.00000000  0.00000000  1
  O  O8  1  0.50000000  0.25849950  0.54156600  1
  O  O9  1  0.50000000  0.74150050  0.04156600  1
  O  O10  1  0.50000000  0.25849950  0.95843400  1
  O  O11  1  0.50000000  0.74150050  0.45843400  1
  O  O12  1  0.75415500  0.96993200  0.25000000  1
  O  O13  1  0.24584500  0.96993200  0.25000000  1
  O  O14  1  0.24584500  0.03006800  0.75000000  1
  O  O15  1  0.75415500  0.03006800  0.75000000  1
  O  O16  1  0.00000000  0.75849950  0.54156600  1
  O  O17  1  0.00000000  0.24150050  0.04156600  1
  O  O18  1  0.00000000  0.75849950  0.95843400  1
  O  O19  1  0.00000000  0.24150050  0.45843400  1
  O  O20  1  0.25415500  0.46993200  0.25000000  1
  O  O21  1  0.74584500  0.46993200  0.25000000  1
  O  O22  1  0.74584500  0.53006800  0.75000000  1
  O  O23  1  0.25415500  0.53006800  0.75000000  1
