# generated using pymatgen
data_BaTeMo2O9
_symmetry_space_group_name_H-M   'P 1'
_cell_length_a   5.70228400
_cell_length_b   7.58707000
_cell_length_c   9.00990686
_cell_angle_alpha   90.00000000
_cell_angle_beta   90.44591145
_cell_angle_gamma   90.00000000
_symmetry_Int_Tables_number   1
_chemical_formula_structural   BaTeMo2O9
_chemical_formula_sum   'Ba2 Te2 Mo4 O18'
_cell_volume   389.78945260
_cell_formula_units_Z   2
loop_
 _symmetry_equiv_pos_site_id
 _symmetry_equiv_pos_as_xyz
  1  'x, y, z'
loop_
 _atom_site_type_symbol
 _atom_site_label
 _atom_site_symmetry_multiplicity
 _atom_site_fract_x
 _atom_site_fract_y
 _atom_site_fract_z
 _atom_site_occupancy
  Ba  Ba0  1  0.27914300  0.24696700  0.06551100  1
  Ba  Ba1  1  0.72085700  0.74696700  0.93448900  1
  Te  Te2  1  0.60960700  0.01426900  0.41735000  1
  Te  Te3  1  0.39039300  0.51426900  0.58265000  1
  Mo  Mo4  1  0.78354600  0.45103200  0.32512200  1
  Mo  Mo5  1  0.21645400  0.95103200  0.67487800  1
  Mo  Mo6  1  0.22294300  0.77043500  0.23252100  1
  Mo  Mo7  1  0.77705700  0.27043500  0.76747900  1
  O  O8  1  0.71117000  0.47550400  0.13408600  1
  O  O9  1  0.28883000  0.97550400  0.86591400  1
  O  O10  1  0.00642000  0.29109100  0.32399000  1
  O  O11  1  0.99358000  0.79109100  0.67601000  1
  O  O12  1  0.97566300  0.65030400  0.35684900  1
  O  O13  1  0.02433700  0.15030400  0.64315100  1
  O  O14  1  0.23706800  0.61558100  0.08599300  1
  O  O15  1  0.76293200  0.11558100  0.91400700  1
  O  O16  1  0.71272200  0.43139200  0.55889900  1
  O  O17  1  0.28727800  0.93139200  0.44110100  1
  O  O18  1  0.46594600  0.73508900  0.67086900  1
  O  O19  1  0.53405400  0.23508900  0.32913100  1
  O  O20  1  0.45835900  0.59547800  0.37572900  1
  O  O21  1  0.54164100  0.09547800  0.62427100  1
  O  O22  1  0.49890100  0.39749900  0.80265000  1
  O  O23  1  0.50109900  0.89749900  0.19735000  1
  O  O24  1  0.97958900  0.42540100  0.83994600  1
  O  O25  1  0.02041100  0.92540100  0.16005400  1
