# generated using pymatgen
data_Ba2LaRuO6
_symmetry_space_group_name_H-M   'P 1'
_cell_length_a   6.14069004
_cell_length_b   6.14069004
_cell_length_c   14.82214234
_cell_angle_alpha   90.00000000
_cell_angle_beta   90.00000000
_cell_angle_gamma   120.00000000
_symmetry_Int_Tables_number   1
_chemical_formula_structural   Ba2LaRuO6
_chemical_formula_sum   'Ba6 La3 Ru3 O18'
_cell_volume   484.03410640
_cell_formula_units_Z   3
loop_
 _symmetry_equiv_pos_site_id
 _symmetry_equiv_pos_as_xyz
  1  'x, y, z'
loop_
 _atom_site_type_symbol
 _atom_site_label
 _atom_site_symmetry_multiplicity
 _atom_site_fract_x
 _atom_site_fract_y
 _atom_site_fract_z
 _atom_site_occupancy
  Ba  Ba0  1  0.33333333  0.66666667  0.91869567  1
  Ba  Ba1  1  0.33333333  0.66666667  0.41463767  1
  Ba  Ba2  1  0.00000000  0.00000000  0.25202900  1
  Ba  Ba3  1  0.00000000  0.00000000  0.74797100  1
  Ba  Ba4  1  0.66666667  0.33333333  0.58536233  1
  Ba  Ba5  1  0.66666667  0.33333333  0.08130433  1
  La  La6  1  0.00000000  0.00000000  0.00000000  1
  La  La7  1  0.66666667  0.33333333  0.33333333  1
  La  La8  1  0.33333333  0.66666667  0.66666667  1
  Ru  Ru9  1  0.33333333  0.66666667  0.16666667  1
  Ru  Ru10  1  1.00000000  0.00000000  0.50000000  1
  Ru  Ru11  1  0.66666667  0.33333333  0.83333333  1
  O  O12  1  0.63541200  0.77395800  0.08948700  1
  O  O13  1  0.13854600  0.36458800  0.08948700  1
  O  O14  1  0.22604200  0.86145400  0.08948700  1
  O  O15  1  0.03125467  0.55937533  0.24384633  1
  O  O16  1  0.44062467  0.47187933  0.24384633  1
  O  O17  1  0.52812067  0.96874533  0.24384633  1
  O  O18  1  0.30207867  0.10729133  0.42282033  1
  O  O19  1  0.80521267  0.69792133  0.42282033  1
  O  O20  1  0.89270867  0.19478733  0.42282033  1
  O  O21  1  0.69792133  0.89270867  0.57717967  1
  O  O22  1  0.10729133  0.80521267  0.57717967  1
  O  O23  1  0.19478733  0.30207867  0.57717967  1
  O  O24  1  0.96874533  0.44062467  0.75615367  1
  O  O25  1  0.47187933  0.03125467  0.75615367  1
  O  O26  1  0.55937533  0.52812067  0.75615367  1
  O  O27  1  0.36458800  0.22604200  0.91051300  1
  O  O28  1  0.77395800  0.13854600  0.91051300  1
  O  O29  1  0.86145400  0.63541200  0.91051300  1
