# generated using pymatgen
data_Gd(BO2)3
_symmetry_space_group_name_H-M   'P 1'
_cell_length_a   9.82701600
_cell_length_b   8.14921600
_cell_length_c   6.31488571
_cell_angle_alpha   90.00000000
_cell_angle_beta   126.82533406
_cell_angle_gamma   90.00000000
_symmetry_Int_Tables_number   1
_chemical_formula_structural   Gd(BO2)3
_chemical_formula_sum   'Gd4 B12 O24'
_cell_volume   404.80522424
_cell_formula_units_Z   4
loop_
 _symmetry_equiv_pos_site_id
 _symmetry_equiv_pos_as_xyz
  1  'x, y, z'
loop_
 _atom_site_type_symbol
 _atom_site_label
 _atom_site_symmetry_multiplicity
 _atom_site_fract_x
 _atom_site_fract_y
 _atom_site_fract_z
 _atom_site_occupancy
  Gd  Gd0  1  0.00000000  0.70874400  0.25000000  1
  Gd  Gd1  1  0.00000000  0.29125600  0.75000000  1
  Gd  Gd2  1  0.50000000  0.20874400  0.25000000  1
  Gd  Gd3  1  0.50000000  0.79125600  0.75000000  1
  B  B4  1  0.72845600  0.43488600  0.09086500  1
  B  B5  1  0.27154400  0.43488600  0.40913500  1
  B  B6  1  0.00000000  0.27591500  0.25000000  1
  B  B7  1  0.00000000  0.72408500  0.75000000  1
  B  B8  1  0.27154400  0.56511400  0.90913500  1
  B  B9  1  0.72845600  0.56511400  0.59086500  1
  B  B10  1  0.22845600  0.93488600  0.09086500  1
  B  B11  1  0.77154400  0.93488600  0.40913500  1
  B  B12  1  0.50000000  0.77591500  0.25000000  1
  B  B13  1  0.50000000  0.22408500  0.75000000  1
  B  B14  1  0.77154400  0.06511400  0.90913500  1
  B  B15  1  0.22845600  0.06511400  0.59086500  1
  O  O16  1  0.89671900  0.38429200  0.29367100  1
  O  O17  1  0.89917150  0.18224050  0.00457300  1
  O  O18  1  0.10082850  0.18224050  0.49542700  1
  O  O19  1  0.10082850  0.81775950  0.99542700  1
  O  O20  1  0.70638700  0.40876800  0.51105400  1
  O  O21  1  0.29361300  0.40876800  0.98894600  1
  O  O22  1  0.29361300  0.59123200  0.48894600  1
  O  O23  1  0.70638700  0.59123200  0.01105400  1
  O  O24  1  0.10328100  0.61570800  0.70632900  1
  O  O25  1  0.89671900  0.61570800  0.79367100  1
  O  O26  1  0.89917150  0.81775950  0.50457300  1
  O  O27  1  0.10328100  0.38429200  0.20632900  1
  O  O28  1  0.39671900  0.88429200  0.29367100  1
  O  O29  1  0.39917150  0.68224050  0.00457300  1
  O  O30  1  0.60082850  0.68224050  0.49542700  1
  O  O31  1  0.60082850  0.31775950  0.99542700  1
  O  O32  1  0.20638700  0.90876800  0.51105400  1
  O  O33  1  0.79361300  0.90876800  0.98894600  1
  O  O34  1  0.79361300  0.09123200  0.48894600  1
  O  O35  1  0.20638700  0.09123200  0.01105400  1
  O  O36  1  0.60328100  0.11570800  0.70632900  1
  O  O37  1  0.39671900  0.11570800  0.79367100  1
  O  O38  1  0.39917150  0.31775950  0.50457300  1
  O  O39  1  0.60328100  0.88429200  0.20632900  1
