# generated using pymatgen
data_NaLiZr(Si2O5)3
_symmetry_space_group_name_H-M   'P 1'
_cell_length_a   14.56529800
_cell_length_b   17.55013000
_cell_length_c   10.30604400
_cell_angle_alpha   90.00000000
_cell_angle_beta   90.00000000
_cell_angle_gamma   90.00000000
_symmetry_Int_Tables_number   1
_chemical_formula_structural   NaLiZr(Si2O5)3
_chemical_formula_sum   'Na8 Li8 Zr8 Si48 O120'
_cell_volume   2634.46058055
_cell_formula_units_Z   8
loop_
 _symmetry_equiv_pos_site_id
 _symmetry_equiv_pos_as_xyz
  1  'x, y, z'
loop_
 _atom_site_type_symbol
 _atom_site_label
 _atom_site_symmetry_multiplicity
 _atom_site_fract_x
 _atom_site_fract_y
 _atom_site_fract_z
 _atom_site_occupancy
  Na  Na0  1  0.75000000  0.21562100  0.75000000  1
  Na  Na1  1  0.75000000  0.78437900  0.25000000  1
  Na  Na2  1  0.25000000  0.78437900  0.25000000  1
  Na  Na3  1  0.25000000  0.21562100  0.75000000  1
  Na  Na4  1  0.25000000  0.71562100  0.75000000  1
  Na  Na5  1  0.25000000  0.28437900  0.25000000  1
  Na  Na6  1  0.75000000  0.28437900  0.25000000  1
  Na  Na7  1  0.75000000  0.71562100  0.75000000  1
  Li  Li8  1  0.75322000  0.00000000  0.00000000  1
  Li  Li9  1  0.25322000  0.00000000  0.50000000  1
  Li  Li10  1  0.24678000  0.00000000  0.00000000  1
  Li  Li11  1  0.74678000  0.00000000  0.50000000  1
  Li  Li12  1  0.25322000  0.50000000  0.00000000  1
  Li  Li13  1  0.75322000  0.50000000  0.50000000  1
  Li  Li14  1  0.74678000  0.50000000  0.00000000  1
  Li  Li15  1  0.24678000  0.50000000  0.50000000  1
  Zr  Zr16  1  0.75000000  0.91156500  0.75000000  1
  Zr  Zr17  1  0.75000000  0.08843500  0.25000000  1
  Zr  Zr18  1  0.25000000  0.08843500  0.25000000  1
  Zr  Zr19  1  0.25000000  0.91156500  0.75000000  1
  Zr  Zr20  1  0.25000000  0.41156500  0.75000000  1
  Zr  Zr21  1  0.25000000  0.58843500  0.25000000  1
  Zr  Zr22  1  0.75000000  0.58843500  0.25000000  1
  Zr  Zr23  1  0.75000000  0.41156500  0.75000000  1
  Si  Si24  1  0.60790300  0.37172500  0.48182500  1
  Si  Si25  1  0.60803100  0.80737400  0.54100700  1
  Si  Si26  1  0.39196900  0.30737400  0.95899300  1
  Si  Si27  1  0.60803100  0.19262600  0.45899300  1
  Si  Si28  1  0.10967750  0.92650050  0.18901800  1
  Si  Si29  1  0.39032250  0.07349950  0.68901800  1
  Si  Si30  1  0.10967750  0.07349950  0.81098200  1
  Si  Si31  1  0.39032250  0.92650050  0.31098200  1
  Si  Si32  1  0.89032250  0.07349950  0.81098200  1
  Si  Si33  1  0.60967750  0.92650050  0.31098200  1
  Si  Si34  1  0.89032250  0.92650050  0.18901800  1
  Si  Si35  1  0.60967750  0.07349950  0.68901800  1
  Si  Si36  1  0.39196900  0.69262600  0.04100700  1
  Si  Si37  1  0.39209700  0.12827500  0.98182500  1
  Si  Si38  1  0.39196900  0.80737400  0.54100700  1
  Si  Si39  1  0.39209700  0.87172500  0.01817500  1
  Si  Si40  1  0.39209700  0.62827500  0.51817500  1
  Si  Si41  1  0.60790300  0.87172500  0.01817500  1
  Si  Si42  1  0.39209700  0.37172500  0.48182500  1
  Si  Si43  1  0.60790300  0.12827500  0.98182500  1
  Si  Si44  1  0.60803100  0.30737400  0.95899300  1
  Si  Si45  1  0.39196900  0.19262600  0.45899300  1
  Si  Si46  1  0.60803100  0.69262600  0.04100700  1
  Si  Si47  1  0.60790300  0.62827500  0.51817500  1
  Si  Si48  1  0.10790300  0.87172500  0.48182500  1
  Si  Si49  1  0.10803100  0.30737400  0.54100700  1
  Si  Si50  1  0.89196900  0.80737400  0.95899300  1
  Si  Si51  1  0.10803100  0.69262600  0.45899300  1
  Si  Si52  1  0.60967750  0.42650050  0.18901800  1
  Si  Si53  1  0.89032250  0.57349950  0.68901800  1
  Si  Si54  1  0.60967750  0.57349950  0.81098200  1
  Si  Si55  1  0.89032250  0.42650050  0.31098200  1
  Si  Si56  1  0.39032250  0.57349950  0.81098200  1
  Si  Si57  1  0.10967750  0.42650050  0.31098200  1
  Si  Si58  1  0.39032250  0.42650050  0.18901800  1
  Si  Si59  1  0.10967750  0.57349950  0.68901800  1
  Si  Si60  1  0.89196900  0.19262600  0.04100700  1
  Si  Si61  1  0.89209700  0.62827500  0.98182500  1
  Si  Si62  1  0.89196900  0.30737400  0.54100700  1
  Si  Si63  1  0.89209700  0.37172500  0.01817500  1
  Si  Si64  1  0.89209700  0.12827500  0.51817500  1
  Si  Si65  1  0.10790300  0.37172500  0.01817500  1
  Si  Si66  1  0.89209700  0.87172500  0.48182500  1
  Si  Si67  1  0.10790300  0.62827500  0.98182500  1
  Si  Si68  1  0.10803100  0.80737400  0.95899300  1
  Si  Si69  1  0.89196900  0.69262600  0.45899300  1
  Si  Si70  1  0.10803100  0.19262600  0.04100700  1
  Si  Si71  1  0.10790300  0.12827500  0.51817500  1
  O  O72  1  0.67257600  0.92079400  0.92283900  1
  O  O73  1  0.50000000  0.17882600  0.42587200  1
  O  O74  1  0.50000000  0.32117400  0.92587200  1
  O  O75  1  0.50000000  0.82117400  0.57412800  1
  O  O76  1  0.50000000  0.55648600  0.81705900  1
  O  O77  1  0.50000000  0.94351400  0.31705900  1
  O  O78  1  0.50000000  0.44351400  0.18294100  1
  O  O79  1  0.50000000  0.05648600  0.68294100  1
  O  O80  1  0.50000000  0.60710100  0.49842200  1
  O  O81  1  0.50000000  0.89289900  0.99842200  1
  O  O82  1  0.50000000  0.39289900  0.50157800  1
  O  O83  1  0.50000000  0.10710100  0.00157800  1
  O  O84  1  0.67107150  0.32501450  0.83389000  1
  O  O85  1  0.32892850  0.17498550  0.33389000  1
  O  O86  1  0.67107150  0.67498550  0.16611000  1
  O  O87  1  0.32892850  0.82501450  0.66611000  1
  O  O88  1  0.32892850  0.67498550  0.16611000  1
  O  O89  1  0.67107150  0.82501450  0.66611000  1
  O  O90  1  0.32892850  0.32501450  0.83389000  1
  O  O91  1  0.67107150  0.17498550  0.33389000  1
  O  O92  1  0.63819550  0.35920550  0.08493200  1
  O  O93  1  0.36180450  0.14079450  0.58493200  1
  O  O94  1  0.63819550  0.64079450  0.91506800  1
  O  O95  1  0.82995000  0.99858400  0.84002300  1
  O  O96  1  0.36180450  0.64079450  0.91506800  1
  O  O97  1  0.63819550  0.85920550  0.41506800  1
  O  O98  1  0.36180450  0.35920550  0.08493200  1
  O  O99  1  0.63819550  0.14079450  0.58493200  1
  O  O100  1  0.17005000  0.00141600  0.15997700  1
  O  O101  1  0.32995000  0.99858400  0.65997700  1
  O  O102  1  0.17005000  0.99858400  0.84002300  1
  O  O103  1  0.32995000  0.00141600  0.34002300  1
  O  O104  1  0.62510300  0.21933500  0.00670800  1
  O  O105  1  0.37489700  0.28066500  0.50670800  1
  O  O106  1  0.62510300  0.78066500  0.99329200  1
  O  O107  1  0.37489700  0.71933500  0.49329200  1
  O  O108  1  0.37489700  0.78066500  0.99329200  1
  O  O109  1  0.62510300  0.71933500  0.49329200  1
  O  O110  1  0.37489700  0.21933500  0.00670800  1
  O  O111  1  0.62510300  0.28066500  0.50670800  1
  O  O112  1  0.67257600  0.07920600  0.07716100  1
  O  O113  1  0.82742400  0.92079400  0.57716100  1
  O  O114  1  0.50000000  0.67882600  0.07412800  1
  O  O115  1  0.82742400  0.07920600  0.42283900  1
  O  O116  1  0.32742400  0.92079400  0.92283900  1
  O  O117  1  0.17257600  0.07920600  0.42283900  1
  O  O118  1  0.32742400  0.07920600  0.07716100  1
  O  O119  1  0.17257600  0.92079400  0.57716100  1
  O  O120  1  0.63735950  0.11250550  0.82932500  1
  O  O121  1  0.86264050  0.88749450  0.32932500  1
  O  O122  1  0.63735950  0.88749450  0.17067500  1
  O  O123  1  0.86264050  0.11250550  0.67067500  1
  O  O124  1  0.36264050  0.88749450  0.17067500  1
  O  O125  1  0.13735950  0.11250550  0.67067500  1
  O  O126  1  0.36264050  0.11250550  0.82932500  1
  O  O127  1  0.13735950  0.88749450  0.32932500  1
  O  O128  1  0.67005000  0.99858400  0.65997700  1
  O  O129  1  0.82995000  0.00141600  0.15997700  1
  O  O130  1  0.67005000  0.00141600  0.34002300  1
  O  O131  1  0.36180450  0.85920550  0.41506800  1
  O  O132  1  0.17257600  0.42079400  0.92283900  1
  O  O133  1  0.00000000  0.67882600  0.42587200  1
  O  O134  1  0.00000000  0.82117400  0.92587200  1
  O  O135  1  0.00000000  0.32117400  0.57412800  1
  O  O136  1  0.00000000  0.05648600  0.81705900  1
  O  O137  1  0.00000000  0.44351400  0.31705900  1
  O  O138  1  0.00000000  0.94351400  0.18294100  1
  O  O139  1  0.00000000  0.55648600  0.68294100  1
  O  O140  1  0.00000000  0.10710100  0.49842200  1
  O  O141  1  0.00000000  0.39289900  0.99842200  1
  O  O142  1  0.00000000  0.89289900  0.50157800  1
  O  O143  1  0.00000000  0.60710100  0.00157800  1
  O  O144  1  0.17107150  0.82501450  0.83389000  1
  O  O145  1  0.82892850  0.67498550  0.33389000  1
  O  O146  1  0.17107150  0.17498550  0.16611000  1
  O  O147  1  0.82892850  0.32501450  0.66611000  1
  O  O148  1  0.82892850  0.17498550  0.16611000  1
  O  O149  1  0.17107150  0.32501450  0.66611000  1
  O  O150  1  0.82892850  0.82501450  0.83389000  1
  O  O151  1  0.17107150  0.67498550  0.33389000  1
  O  O152  1  0.13819550  0.85920550  0.08493200  1
  O  O153  1  0.86180450  0.64079450  0.58493200  1
  O  O154  1  0.13819550  0.14079450  0.91506800  1
  O  O155  1  0.32995000  0.49858400  0.84002300  1
  O  O156  1  0.86180450  0.14079450  0.91506800  1
  O  O157  1  0.13819550  0.35920550  0.41506800  1
  O  O158  1  0.86180450  0.85920550  0.08493200  1
  O  O159  1  0.13819550  0.64079450  0.58493200  1
  O  O160  1  0.67005000  0.50141600  0.15997700  1
  O  O161  1  0.82995000  0.49858400  0.65997700  1
  O  O162  1  0.67005000  0.49858400  0.84002300  1
  O  O163  1  0.82995000  0.50141600  0.34002300  1
  O  O164  1  0.12510300  0.71933500  0.00670800  1
  O  O165  1  0.87489700  0.78066500  0.50670800  1
  O  O166  1  0.12510300  0.28066500  0.99329200  1
  O  O167  1  0.87489700  0.21933500  0.49329200  1
  O  O168  1  0.87489700  0.28066500  0.99329200  1
  O  O169  1  0.12510300  0.21933500  0.49329200  1
  O  O170  1  0.87489700  0.71933500  0.00670800  1
  O  O171  1  0.12510300  0.78066500  0.50670800  1
  O  O172  1  0.17257600  0.57920600  0.07716100  1
  O  O173  1  0.32742400  0.42079400  0.57716100  1
  O  O174  1  0.00000000  0.17882600  0.07412800  1
  O  O175  1  0.32742400  0.57920600  0.42283900  1
  O  O176  1  0.82742400  0.42079400  0.92283900  1
  O  O177  1  0.67257600  0.57920600  0.42283900  1
  O  O178  1  0.82742400  0.57920600  0.07716100  1
  O  O179  1  0.67257600  0.42079400  0.57716100  1
  O  O180  1  0.13735950  0.61250550  0.82932500  1
  O  O181  1  0.36264050  0.38749450  0.32932500  1
  O  O182  1  0.13735950  0.38749450  0.17067500  1
  O  O183  1  0.36264050  0.61250550  0.67067500  1
  O  O184  1  0.86264050  0.38749450  0.17067500  1
  O  O185  1  0.63735950  0.61250550  0.67067500  1
  O  O186  1  0.86264050  0.61250550  0.82932500  1
  O  O187  1  0.63735950  0.38749450  0.32932500  1
  O  O188  1  0.17005000  0.49858400  0.65997700  1
  O  O189  1  0.32995000  0.50141600  0.15997700  1
  O  O190  1  0.17005000  0.50141600  0.34002300  1
  O  O191  1  0.86180450  0.35920550  0.41506800  1
