# generated using pymatgen
data_K2Zn(PO3)4
_symmetry_space_group_name_H-M   'P 1'
_cell_length_a   11.22441000
_cell_length_b   12.70507600
_cell_length_c   7.82133693
_cell_angle_alpha   90.00000000
_cell_angle_beta   102.11844295
_cell_angle_gamma   90.00000000
_symmetry_Int_Tables_number   1
_chemical_formula_structural   K2Zn(PO3)4
_chemical_formula_sum   'K8 Zn4 P16 O48'
_cell_volume   1090.52186687
_cell_formula_units_Z   4
loop_
 _symmetry_equiv_pos_site_id
 _symmetry_equiv_pos_as_xyz
  1  'x, y, z'
loop_
 _atom_site_type_symbol
 _atom_site_label
 _atom_site_symmetry_multiplicity
 _atom_site_fract_x
 _atom_site_fract_y
 _atom_site_fract_z
 _atom_site_occupancy
  K  K0  1  0.63253500  0.12544700  0.58375900  1
  K  K1  1  0.63253500  0.87455300  0.08375900  1
  K  K2  1  0.33404500  0.86588600  0.40840200  1
  K  K3  1  0.33404500  0.13411400  0.90840200  1
  K  K4  1  0.13253500  0.62544700  0.58375900  1
  K  K5  1  0.13253500  0.37455300  0.08375900  1
  K  K6  1  0.83404500  0.36588600  0.40840200  1
  K  K7  1  0.83404500  0.63411400  0.90840200  1
  Zn  Zn8  1  0.49632100  0.34542100  0.24220700  1
  Zn  Zn9  1  0.49632100  0.65457900  0.74220700  1
  Zn  Zn10  1  0.99632100  0.84542100  0.24220700  1
  Zn  Zn11  1  0.99632100  0.15457900  0.74220700  1
  P  P12  1  0.89058000  0.07473200  0.33197600  1
  P  P13  1  0.89058000  0.92526800  0.83197600  1
  P  P14  1  0.66534250  0.16174750  0.07257500  1
  P  P15  1  0.66534250  0.83825250  0.57257500  1
  P  P16  1  0.31907600  0.81367900  0.91591100  1
  P  P17  1  0.31907600  0.18632100  0.41591100  1
  P  P18  1  0.11233500  0.92389500  0.67959400  1
  P  P19  1  0.11233500  0.07610500  0.17959400  1
  P  P20  1  0.39058000  0.57473200  0.33197600  1
  P  P21  1  0.39058000  0.42526800  0.83197600  1
  P  P22  1  0.16534250  0.66174750  0.07257500  1
  P  P23  1  0.16534250  0.33825250  0.57257500  1
  P  P24  1  0.81907600  0.31367900  0.91591100  1
  P  P25  1  0.81907600  0.68632100  0.41591100  1
  P  P26  1  0.61233500  0.42389500  0.67959400  1
  P  P27  1  0.61233500  0.57610500  0.17959400  1
  O  O28  1  0.57441250  0.08503550  0.97697500  1
  O  O29  1  0.57441250  0.91496450  0.47697500  1
  O  O30  1  0.63289750  0.23702550  0.20458100  1
  O  O31  1  0.63289750  0.76297450  0.70458100  1
  O  O32  1  0.78320850  0.09434850  0.16348500  1
  O  O33  1  0.78320850  0.90565150  0.66348500  1
  O  O34  1  0.71654800  0.22443600  0.92116200  1
  O  O35  1  0.71654800  0.77556400  0.42116200  1
  O  O36  1  0.38831250  0.77887650  0.77942700  1
  O  O37  1  0.38831250  0.22112350  0.27942700  1
  O  O38  1  0.38792550  0.84553150  0.09205200  1
  O  O39  1  0.38792550  0.15446850  0.59205200  1
  O  O40  1  0.23412300  0.91246000  0.83331000  1
  O  O41  1  0.23412300  0.08754000  0.33331000  1
  O  O42  1  0.62201950  0.35268350  0.52955800  1
  O  O43  1  0.62201950  0.64731650  0.02955800  1
  O  O44  1  0.09913800  0.04079900  0.65403000  1
  O  O45  1  0.09913800  0.95920100  0.15403000  1
  O  O46  1  0.50748800  0.37646000  0.77065100  1
  O  O47  1  0.50748800  0.62354000  0.27065100  1
  O  O48  1  0.36960400  0.64180300  0.48183700  1
  O  O49  1  0.36960400  0.35819700  0.98183700  1
  O  O50  1  0.89908850  0.95713850  0.35050800  1
  O  O51  1  0.89908850  0.04286150  0.85050800  1
  O  O52  1  0.07441250  0.58503550  0.97697500  1
  O  O53  1  0.07441250  0.41496450  0.47697500  1
  O  O54  1  0.13289750  0.73702550  0.20458100  1
  O  O55  1  0.13289750  0.26297450  0.70458100  1
  O  O56  1  0.28320850  0.59434850  0.16348500  1
  O  O57  1  0.28320850  0.40565150  0.66348500  1
  O  O58  1  0.21654800  0.72443600  0.92116200  1
  O  O59  1  0.21654800  0.27556400  0.42116200  1
  O  O60  1  0.88831250  0.27887650  0.77942700  1
  O  O61  1  0.88831250  0.72112350  0.27942700  1
  O  O62  1  0.88792550  0.34553150  0.09205200  1
  O  O63  1  0.88792550  0.65446850  0.59205200  1
  O  O64  1  0.73412300  0.41246000  0.83331000  1
  O  O65  1  0.73412300  0.58754000  0.33331000  1
  O  O66  1  0.12201950  0.85268350  0.52955800  1
  O  O67  1  0.12201950  0.14731650  0.02955800  1
  O  O68  1  0.59913800  0.54079900  0.65403000  1
  O  O69  1  0.59913800  0.45920100  0.15403000  1
  O  O70  1  0.00748800  0.87646000  0.77065100  1
  O  O71  1  0.00748800  0.12354000  0.27065100  1
  O  O72  1  0.86960400  0.14180300  0.48183700  1
  O  O73  1  0.86960400  0.85819700  0.98183700  1
  O  O74  1  0.39908850  0.45713850  0.35050800  1
  O  O75  1  0.39908850  0.54286150  0.85050800  1
