# generated using pymatgen
data_K2Si6GeO15
_symmetry_space_group_name_H-M   'P 1'
_cell_length_a   12.75964400
_cell_length_b   7.29715400
_cell_length_c   15.00824126
_cell_angle_alpha   90.00000000
_cell_angle_beta   106.85076405
_cell_angle_gamma   90.00000000
_symmetry_Int_Tables_number   1
_chemical_formula_structural   K2Si6GeO15
_chemical_formula_sum   'K8 Si24 Ge4 O60'
_cell_volume   1337.40338009
_cell_formula_units_Z   4
loop_
 _symmetry_equiv_pos_site_id
 _symmetry_equiv_pos_as_xyz
  1  'x, y, z'
loop_
 _atom_site_type_symbol
 _atom_site_label
 _atom_site_symmetry_multiplicity
 _atom_site_fract_x
 _atom_site_fract_y
 _atom_site_fract_z
 _atom_site_occupancy
  K  K0  1  0.85415550  0.06715550  0.78819300  1
  K  K1  1  0.35415550  0.43284450  0.28819300  1
  K  K2  1  0.39249950  0.18349350  0.59896000  1
  K  K3  1  0.39249950  0.81650650  0.09896000  1
  K  K4  1  0.35415550  0.56715550  0.78819300  1
  K  K5  1  0.85415550  0.93284450  0.28819300  1
  K  K6  1  0.89249950  0.68349350  0.59896000  1
  K  K7  1  0.89249950  0.31650650  0.09896000  1
  Si  Si8  1  0.57770050  0.01321250  0.83046500  1
  Si  Si9  1  0.57770050  0.98678750  0.33046500  1
  Si  Si10  1  0.41303850  0.72009850  0.52253000  1
  Si  Si11  1  0.41303850  0.27990150  0.02253000  1
  Si  Si12  1  0.58243000  0.46340500  0.50661000  1
  Si  Si13  1  0.08243000  0.03659500  0.00661000  1
  Si  Si14  1  0.62324050  0.42763450  0.81232500  1
  Si  Si15  1  0.62324050  0.57236550  0.31232500  1
  Si  Si16  1  0.84514000  0.55235100  0.82844000  1
  Si  Si17  1  0.34514000  0.94764900  0.32844000  1
  Si  Si18  1  0.68453200  0.08653800  0.54000500  1
  Si  Si19  1  0.18453200  0.41346200  0.04000500  1
  Si  Si20  1  0.07770050  0.51321250  0.83046500  1
  Si  Si21  1  0.07770050  0.48678750  0.33046500  1
  Si  Si22  1  0.91303850  0.22009850  0.52253000  1
  Si  Si23  1  0.91303850  0.77990150  0.02253000  1
  Si  Si24  1  0.08243000  0.96340500  0.50661000  1
  Si  Si25  1  0.58243000  0.53659500  0.00661000  1
  Si  Si26  1  0.12324050  0.92763450  0.81232500  1
  Si  Si27  1  0.12324050  0.07236550  0.31232500  1
  Si  Si28  1  0.34514000  0.05235100  0.82844000  1
  Si  Si29  1  0.84514000  0.44764900  0.32844000  1
  Si  Si30  1  0.18453200  0.58653800  0.54000500  1
  Si  Si31  1  0.68453200  0.91346200  0.04000500  1
  Ge  Ge32  1  0.64504700  0.75037000  0.67308400  1
  Ge  Ge33  1  0.14504700  0.74963000  0.17308400  1
  Ge  Ge34  1  0.14504700  0.25037000  0.67308400  1
  Ge  Ge35  1  0.64504700  0.24963000  0.17308400  1
  O  O36  1  0.56185300  0.22774300  0.79278300  1
  O  O37  1  0.56185300  0.77225700  0.29278300  1
  O  O38  1  0.75740850  0.39305850  0.84033600  1
  O  O39  1  0.25740850  0.10694150  0.34033600  1
  O  O40  1  0.45318200  0.51337000  0.50003700  1
  O  O41  1  0.45318200  0.48663000  0.00003700  1
  O  O42  1  0.59305850  0.24708350  0.53961900  1
  O  O43  1  0.09305850  0.25291650  0.03961900  1
  O  O44  1  0.59209200  0.52742900  0.89967800  1
  O  O45  1  0.59209200  0.47257100  0.39967800  1
  O  O46  1  0.88602050  0.66391750  0.92585800  1
  O  O47  1  0.38602050  0.83608250  0.42585800  1
  O  O48  1  0.64517500  0.02411200  0.94121300  1
  O  O49  1  0.64517500  0.97588800  0.44121300  1
  O  O50  1  0.29933650  0.69791450  0.54987100  1
  O  O51  1  0.29933650  0.30208550  0.04987100  1
  O  O52  1  0.64594850  0.89529350  0.77731600  1
  O  O53  1  0.14594850  0.60470650  0.27731600  1
  O  O54  1  0.29408050  0.81616550  0.24071100  1
  O  O55  1  0.79408050  0.68383450  0.74071100  1
  O  O56  1  0.21064850  0.54910650  0.12785100  1
  O  O57  1  0.71064850  0.95089350  0.62785100  1
  O  O58  1  0.50276550  0.17060550  0.10298500  1
  O  O59  1  0.50276550  0.82939450  0.60298500  1
  O  O60  1  0.16624000  0.89707800  0.07405600  1
  O  O61  1  0.66624000  0.60292200  0.57405600  1
  O  O62  1  0.57928500  0.45089600  0.21943100  1
  O  O63  1  0.57928500  0.54910400  0.71943100  1
  O  O64  1  0.45142200  0.06284900  0.31574100  1
  O  O65  1  0.45142200  0.93715100  0.81574100  1
  O  O66  1  0.06185300  0.72774300  0.79278300  1
  O  O67  1  0.06185300  0.27225700  0.29278300  1
  O  O68  1  0.25740850  0.89305850  0.84033600  1
  O  O69  1  0.75740850  0.60694150  0.34033600  1
  O  O70  1  0.95318200  0.01337000  0.50003700  1
  O  O71  1  0.95318200  0.98663000  0.00003700  1
  O  O72  1  0.09305850  0.74708350  0.53961900  1
  O  O73  1  0.59305850  0.75291650  0.03961900  1
  O  O74  1  0.09209200  0.02742900  0.89967800  1
  O  O75  1  0.09209200  0.97257100  0.39967800  1
  O  O76  1  0.38602050  0.16391750  0.92585800  1
  O  O77  1  0.88602050  0.33608250  0.42585800  1
  O  O78  1  0.14517500  0.52411200  0.94121300  1
  O  O79  1  0.14517500  0.47588800  0.44121300  1
  O  O80  1  0.79933650  0.19791450  0.54987100  1
  O  O81  1  0.79933650  0.80208550  0.04987100  1
  O  O82  1  0.14594850  0.39529350  0.77731600  1
  O  O83  1  0.64594850  0.10470650  0.27731600  1
  O  O84  1  0.79408050  0.31616550  0.24071100  1
  O  O85  1  0.29408050  0.18383450  0.74071100  1
  O  O86  1  0.71064850  0.04910650  0.12785100  1
  O  O87  1  0.21064850  0.45089350  0.62785100  1
  O  O88  1  0.00276550  0.67060550  0.10298500  1
  O  O89  1  0.00276550  0.32939450  0.60298500  1
  O  O90  1  0.66624000  0.39707800  0.07405600  1
  O  O91  1  0.16624000  0.10292200  0.57405600  1
  O  O92  1  0.07928500  0.95089600  0.21943100  1
  O  O93  1  0.07928500  0.04910400  0.71943100  1
  O  O94  1  0.95142200  0.56284900  0.31574100  1
  O  O95  1  0.95142200  0.43715100  0.81574100  1
