# generated using pymatgen
data_TaAlO4
_symmetry_space_group_name_H-M   'P 1'
_cell_length_a   12.26911400
_cell_length_b   3.81314200
_cell_length_c   6.51563913
_cell_angle_alpha   90.00000000
_cell_angle_beta   107.68647124
_cell_angle_gamma   90.00000000
_symmetry_Int_Tables_number   1
_chemical_formula_structural   TaAlO4
_chemical_formula_sum   'Ta4 Al4 O16'
_cell_volume   290.41866333
_cell_formula_units_Z   4
loop_
 _symmetry_equiv_pos_site_id
 _symmetry_equiv_pos_as_xyz
  1  'x, y, z'
loop_
 _atom_site_type_symbol
 _atom_site_label
 _atom_site_symmetry_multiplicity
 _atom_site_fract_x
 _atom_site_fract_y
 _atom_site_fract_z
 _atom_site_occupancy
  Ta  Ta0  1  0.10557000  0.00000000  0.23308200  1
  Ta  Ta1  1  0.39443000  0.50000000  0.76691800  1
  Ta  Ta2  1  0.60557000  0.50000000  0.23308200  1
  Ta  Ta3  1  0.89443000  0.00000000  0.76691800  1
  Al  Al4  1  0.20069100  0.00000000  0.82038500  1
  Al  Al5  1  0.29930900  0.50000000  0.17961500  1
  Al  Al6  1  0.70069100  0.50000000  0.82038500  1
  Al  Al7  1  0.79930900  0.00000000  0.17961500  1
  O  O8  1  0.14170600  0.50000000  0.20338400  1
  O  O9  1  0.35829400  0.00000000  0.79661600  1
  O  O10  1  0.05732100  0.00000000  0.86388200  1
  O  O11  1  0.44267900  0.50000000  0.13611800  1
  O  O12  1  0.35885900  0.50000000  0.47416200  1
  O  O13  1  0.14114100  0.00000000  0.52583800  1
  O  O14  1  0.23805800  0.50000000  0.85825200  1
  O  O15  1  0.26194200  0.00000000  0.14174800  1
  O  O16  1  0.64170600  0.00000000  0.20338400  1
  O  O17  1  0.85829400  0.50000000  0.79661600  1
  O  O18  1  0.55732100  0.50000000  0.86388200  1
  O  O19  1  0.94267900  0.00000000  0.13611800  1
  O  O20  1  0.85885900  0.00000000  0.47416200  1
  O  O21  1  0.64114100  0.50000000  0.52583800  1
  O  O22  1  0.73805800  0.00000000  0.85825200  1
  O  O23  1  0.76194200  0.50000000  0.14174800  1
