# generated using pymatgen
data_Ba2YTaO6
_symmetry_space_group_name_H-M   'P 1'
_cell_length_a   6.02546400
_cell_length_b   6.02546400
_cell_length_c   8.56648600
_cell_angle_alpha   90.00000000
_cell_angle_beta   90.00000000
_cell_angle_gamma   90.00000000
_symmetry_Int_Tables_number   1
_chemical_formula_structural   Ba2YTaO6
_chemical_formula_sum   'Ba4 Y2 Ta2 O12'
_cell_volume   311.01669463
_cell_formula_units_Z   2
loop_
 _symmetry_equiv_pos_site_id
 _symmetry_equiv_pos_as_xyz
  1  'x, y, z'
loop_
 _atom_site_type_symbol
 _atom_site_label
 _atom_site_symmetry_multiplicity
 _atom_site_fract_x
 _atom_site_fract_y
 _atom_site_fract_z
 _atom_site_occupancy
  Ba  Ba0  1  0.00000000  0.50000000  0.25000000  1
  Ba  Ba1  1  0.50000000  0.00000000  0.25000000  1
  Ba  Ba2  1  0.50000000  0.00000000  0.75000000  1
  Ba  Ba3  1  0.00000000  0.50000000  0.75000000  1
  Y  Y4  1  0.00000000  0.00000000  0.00000000  1
  Y  Y5  1  0.50000000  0.50000000  0.50000000  1
  Ta  Ta6  1  0.50000000  0.50000000  0.00000000  1
  Ta  Ta7  1  0.00000000  0.00000000  0.50000000  1
  O  O8  1  0.76140500  0.70898900  0.00000000  1
  O  O9  1  0.29101100  0.76140500  0.00000000  1
  O  O10  1  0.70898900  0.23859500  0.00000000  1
  O  O11  1  0.23859500  0.29101100  0.00000000  1
  O  O12  1  0.00000000  0.00000000  0.26449800  1
  O  O13  1  0.50000000  0.50000000  0.23550200  1
  O  O14  1  0.26140500  0.20898900  0.50000000  1
  O  O15  1  0.79101100  0.26140500  0.50000000  1
  O  O16  1  0.20898900  0.73859500  0.50000000  1
  O  O17  1  0.73859500  0.79101100  0.50000000  1
  O  O18  1  0.50000000  0.50000000  0.76449800  1
  O  O19  1  0.00000000  0.00000000  0.73550200  1
