# generated using pymatgen
data_BaMgF4
_symmetry_space_group_name_H-M   'P 1'
_cell_length_a   4.16516600
_cell_length_b   14.86637400
_cell_length_c   5.93465500
_cell_angle_alpha   90.00000000
_cell_angle_beta   90.00000000
_cell_angle_gamma   90.00000000
_symmetry_Int_Tables_number   1
_chemical_formula_structural   BaMgF4
_chemical_formula_sum   'Ba4 Mg4 F16'
_cell_volume   367.47927094
_cell_formula_units_Z   4
loop_
 _symmetry_equiv_pos_site_id
 _symmetry_equiv_pos_as_xyz
  1  'x, y, z'
loop_
 _atom_site_type_symbol
 _atom_site_label
 _atom_site_symmetry_multiplicity
 _atom_site_fract_x
 _atom_site_fract_y
 _atom_site_fract_z
 _atom_site_occupancy
  Ba  Ba0  1  0.50000000  0.84964500  0.14777100  1
  Ba  Ba1  1  0.00000000  0.65035500  0.64777100  1
  Ba  Ba2  1  0.00000000  0.34964500  0.14777100  1
  Ba  Ba3  1  0.50000000  0.15035500  0.64777100  1
  Mg  Mg4  1  0.50000000  0.58384600  0.18994900  1
  Mg  Mg5  1  0.00000000  0.91615400  0.68994900  1
  Mg  Mg6  1  0.00000000  0.08384600  0.18994900  1
  Mg  Mg7  1  0.50000000  0.41615400  0.68994900  1
  F  F8  1  0.00000000  0.57837000  0.20387800  1
  F  F9  1  0.50000000  0.92163000  0.70387800  1
  F  F10  1  0.50000000  0.69574300  0.37947700  1
  F  F11  1  0.00000000  0.80425700  0.87947700  1
  F  F12  1  0.00000000  0.97273200  0.00620300  1
  F  F13  1  0.50000000  0.52726800  0.50620300  1
  F  F14  1  0.00000000  0.83774700  0.42220200  1
  F  F15  1  0.50000000  0.66225300  0.92220200  1
  F  F16  1  0.50000000  0.07837000  0.20387800  1
  F  F17  1  0.00000000  0.42163000  0.70387800  1
  F  F18  1  0.00000000  0.19574300  0.37947700  1
  F  F19  1  0.50000000  0.30425700  0.87947700  1
  F  F20  1  0.50000000  0.47273200  0.00620300  1
  F  F21  1  0.00000000  0.02726800  0.50620300  1
  F  F22  1  0.50000000  0.33774700  0.42220200  1
  F  F23  1  0.00000000  0.16225300  0.92220200  1
