# generated using pymatgen
data_Na3Zn(BO2)5
_symmetry_space_group_name_H-M   'P 1'
_cell_length_a   7.98461800
_cell_length_b   12.38284900
_cell_length_c   18.24243300
_cell_angle_alpha   90.00000000
_cell_angle_beta   90.00000000
_cell_angle_gamma   90.00000000
_symmetry_Int_Tables_number   1
_chemical_formula_structural   Na3Zn(BO2)5
_chemical_formula_sum   'Na24 Zn8 B40 O80'
_cell_volume   1803.67165522
_cell_formula_units_Z   8
loop_
 _symmetry_equiv_pos_site_id
 _symmetry_equiv_pos_as_xyz
  1  'x, y, z'
loop_
 _atom_site_type_symbol
 _atom_site_label
 _atom_site_symmetry_multiplicity
 _atom_site_fract_x
 _atom_site_fract_y
 _atom_site_fract_z
 _atom_site_occupancy
  Na  Na0  1  0.70731900  0.57276800  0.42965200  1
  Na  Na1  1  0.20731900  0.92723200  0.57034800  1
  Na  Na2  1  0.29268100  0.07276800  0.07034800  1
  Na  Na3  1  0.79268100  0.42723200  0.92965200  1
  Na  Na4  1  0.29268100  0.42723200  0.57034800  1
  Na  Na5  1  0.79268100  0.07276800  0.42965200  1
  Na  Na6  1  0.70731900  0.92723200  0.92965200  1
  Na  Na7  1  0.20731900  0.57276800  0.07034800  1
  Na  Na8  1  0.33104400  0.08162200  0.42139300  1
  Na  Na9  1  0.83104400  0.41837800  0.57860700  1
  Na  Na10  1  0.66895600  0.58162200  0.07860700  1
  Na  Na11  1  0.16895600  0.91837800  0.92139300  1
  Na  Na12  1  0.66895600  0.91837800  0.57860700  1
  Na  Na13  1  0.16895600  0.58162200  0.42139300  1
  Na  Na14  1  0.33104400  0.41837800  0.92139300  1
  Na  Na15  1  0.83104400  0.08162200  0.07860700  1
  Na  Na16  1  0.31018200  0.34719400  0.24539800  1
  Na  Na17  1  0.81018200  0.15280600  0.75460200  1
  Na  Na18  1  0.68981800  0.84719400  0.25460200  1
  Na  Na19  1  0.18981800  0.65280600  0.74539800  1
  Na  Na20  1  0.68981800  0.65280600  0.75460200  1
  Na  Na21  1  0.18981800  0.84719400  0.24539800  1
  Na  Na22  1  0.31018200  0.15280600  0.74539800  1
  Na  Na23  1  0.81018200  0.34719400  0.25460200  1
  Zn  Zn24  1  0.57623200  0.32346900  0.40331800  1
  Zn  Zn25  1  0.07623200  0.17653100  0.59668200  1
  Zn  Zn26  1  0.42376800  0.82346900  0.09668200  1
  Zn  Zn27  1  0.92376800  0.67653100  0.90331800  1
  Zn  Zn28  1  0.42376800  0.67653100  0.59668200  1
  Zn  Zn29  1  0.92376800  0.82346900  0.40331800  1
  Zn  Zn30  1  0.57623200  0.17653100  0.90331800  1
  Zn  Zn31  1  0.07623200  0.32346900  0.09668200  1
  B  B32  1  0.92022800  0.34296000  0.42463600  1
  B  B33  1  0.42022800  0.15704000  0.57536400  1
  B  B34  1  0.07977200  0.84296000  0.07536400  1
  B  B35  1  0.57977200  0.65704000  0.92463600  1
  B  B36  1  0.07977200  0.65704000  0.57536400  1
  B  B37  1  0.57977200  0.84296000  0.42463600  1
  B  B38  1  0.92022800  0.15704000  0.92463600  1
  B  B39  1  0.42022800  0.34296000  0.07536400  1
  B  B40  1  0.22739400  0.32780800  0.42702800  1
  B  B41  1  0.72739400  0.17219200  0.57297200  1
  B  B42  1  0.77260600  0.82780800  0.07297200  1
  B  B43  1  0.27260600  0.67219200  0.92702800  1
  B  B44  1  0.77260600  0.67219200  0.57297200  1
  B  B45  1  0.27260600  0.82780800  0.42702800  1
  B  B46  1  0.22739400  0.17219200  0.92702800  1
  B  B47  1  0.72739400  0.32780800  0.07297200  1
  B  B48  1  0.06325900  0.21290900  0.33639200  1
  B  B49  1  0.56325900  0.28709100  0.66360800  1
  B  B50  1  0.93674100  0.71290900  0.16360800  1
  B  B51  1  0.43674100  0.78709100  0.83639200  1
  B  B52  1  0.93674100  0.78709100  0.66360800  1
  B  B53  1  0.43674100  0.71290900  0.33639200  1
  B  B54  1  0.06325900  0.28709100  0.83639200  1
  B  B55  1  0.56325900  0.21290900  0.16360800  1
  B  B56  1  0.55512800  0.15057400  0.29709600  1
  B  B57  1  0.05512800  0.34942600  0.70290400  1
  B  B58  1  0.44487200  0.65057400  0.20290400  1
  B  B59  1  0.94487200  0.84942600  0.79709600  1
  B  B60  1  0.44487200  0.84942600  0.70290400  1
  B  B61  1  0.94487200  0.65057400  0.29709600  1
  B  B62  1  0.55512800  0.34942600  0.79709600  1
  B  B63  1  0.05512800  0.15057400  0.20290400  1
  B  B64  1  0.50969600  0.52154100  0.30141500  1
  B  B65  1  0.00969600  0.97845900  0.69858500  1
  B  B66  1  0.49030400  0.02154100  0.19858500  1
  B  B67  1  0.99030400  0.47845900  0.80141500  1
  B  B68  1  0.49030400  0.47845900  0.69858500  1
  B  B69  1  0.99030400  0.02154100  0.30141500  1
  B  B70  1  0.50969600  0.97845900  0.80141500  1
  B  B71  1  0.00969600  0.52154100  0.19858500  1
  O  O72  1  0.57418300  0.16974700  0.36949500  1
  O  O73  1  0.07418300  0.33025300  0.63050500  1
  O  O74  1  0.42581700  0.66974700  0.13050500  1
  O  O75  1  0.92581700  0.83025300  0.86949500  1
  O  O76  1  0.42581700  0.83025300  0.63050500  1
  O  O77  1  0.92581700  0.66974700  0.36949500  1
  O  O78  1  0.57418300  0.33025300  0.86949500  1
  O  O79  1  0.07418300  0.16974700  0.13050500  1
  O  O80  1  0.21968300  0.25366500  0.36990200  1
  O  O81  1  0.71968300  0.24633500  0.63009800  1
  O  O82  1  0.78031700  0.75366500  0.13009800  1
  O  O83  1  0.28031700  0.74633500  0.86990200  1
  O  O84  1  0.78031700  0.74633500  0.63009800  1
  O  O85  1  0.28031700  0.75366500  0.36990200  1
  O  O86  1  0.21968300  0.24633500  0.86990200  1
  O  O87  1  0.71968300  0.25366500  0.13009800  1
  O  O88  1  0.77811800  0.38170600  0.45514900  1
  O  O89  1  0.27811800  0.11829400  0.54485100  1
  O  O90  1  0.22188200  0.88170600  0.04485100  1
  O  O91  1  0.72188200  0.61829400  0.95514900  1
  O  O92  1  0.22188200  0.61829400  0.54485100  1
  O  O93  1  0.72188200  0.88170600  0.45514900  1
  O  O94  1  0.77811800  0.11829400  0.95514900  1
  O  O95  1  0.27811800  0.38170600  0.04485100  1
  O  O96  1  0.37168700  0.35833100  0.45851700  1
  O  O97  1  0.87168700  0.14166900  0.54148300  1
  O  O98  1  0.62831300  0.85833100  0.04148300  1
  O  O99  1  0.12831300  0.64166900  0.95851700  1
  O  O100  1  0.62831300  0.64166900  0.54148300  1
  O  O101  1  0.12831300  0.85833100  0.45851700  1
  O  O102  1  0.37168700  0.14166900  0.95851700  1
  O  O103  1  0.87168700  0.35833100  0.04148300  1
  O  O104  1  0.57564400  0.42583700  0.31866300  1
  O  O105  1  0.07564400  0.07416300  0.68133700  1
  O  O106  1  0.42435600  0.92583700  0.18133700  1
  O  O107  1  0.92435600  0.57416300  0.81866300  1
  O  O108  1  0.42435600  0.57416300  0.68133700  1
  O  O109  1  0.92435600  0.92583700  0.31866300  1
  O  O110  1  0.57564400  0.07416300  0.81866300  1
  O  O111  1  0.07564400  0.42583700  0.18133700  1
  O  O112  1  0.57369700  0.22907500  0.24355700  1
  O  O113  1  0.07369700  0.27092500  0.75644300  1
  O  O114  1  0.42630300  0.72907500  0.25644300  1
  O  O115  1  0.92630300  0.77092500  0.74355700  1
  O  O116  1  0.42630300  0.77092500  0.75644300  1
  O  O117  1  0.92630300  0.72907500  0.24355700  1
  O  O118  1  0.57369700  0.27092500  0.74355700  1
  O  O119  1  0.07369700  0.22907500  0.25644300  1
  O  O120  1  0.45691300  0.59639600  0.35387700  1
  O  O121  1  0.95691300  0.90360400  0.64612300  1
  O  O122  1  0.54308700  0.09639600  0.14612300  1
  O  O123  1  0.04308700  0.40360400  0.85387700  1
  O  O124  1  0.54308700  0.40360400  0.64612300  1
  O  O125  1  0.04308700  0.09639600  0.35387700  1
  O  O126  1  0.45691300  0.90360400  0.85387700  1
  O  O127  1  0.95691300  0.59639600  0.14612300  1
  O  O128  1  0.49021500  0.54580500  0.22590000  1
  O  O129  1  0.99021500  0.95419500  0.77410000  1
  O  O130  1  0.50978500  0.04580500  0.27410000  1
  O  O131  1  0.00978500  0.45419500  0.72590000  1
  O  O132  1  0.50978500  0.45419500  0.77410000  1
  O  O133  1  0.00978500  0.04580500  0.22590000  1
  O  O134  1  0.49021500  0.95419500  0.72590000  1
  O  O135  1  0.99021500  0.54580500  0.27410000  1
  O  O136  1  0.91715400  0.27307500  0.36533200  1
  O  O137  1  0.41715400  0.22692500  0.63466800  1
  O  O138  1  0.08284600  0.77307500  0.13466800  1
  O  O139  1  0.58284600  0.72692500  0.86533200  1
  O  O140  1  0.08284600  0.72692500  0.63466800  1
  O  O141  1  0.58284600  0.77307500  0.36533200  1
  O  O142  1  0.91715400  0.22692500  0.86533200  1
  O  O143  1  0.41715400  0.27307500  0.13466800  1
  O  O144  1  0.07727100  0.37665200  0.45238700  1
  O  O145  1  0.57727100  0.12334800  0.54761300  1
  O  O146  1  0.92272900  0.87665200  0.04761300  1
  O  O147  1  0.42272900  0.62334800  0.95238700  1
  O  O148  1  0.92272900  0.62334800  0.54761300  1
  O  O149  1  0.42272900  0.87665200  0.45238700  1
  O  O150  1  0.07727100  0.12334800  0.95238700  1
  O  O151  1  0.57727100  0.37665200  0.04761300  1
