# generated using pymatgen
data_PrCrO4
_symmetry_space_group_name_H-M   'P 1'
_cell_length_a   7.48107600
_cell_length_b   7.48107600
_cell_length_c   6.48244400
_cell_angle_alpha   90.00000000
_cell_angle_beta   90.00000000
_cell_angle_gamma   90.00000000
_symmetry_Int_Tables_number   1
_chemical_formula_structural   PrCrO4
_chemical_formula_sum   'Pr4 Cr4 O16'
_cell_volume   362.79968992
_cell_formula_units_Z   4
loop_
 _symmetry_equiv_pos_site_id
 _symmetry_equiv_pos_as_xyz
  1  'x, y, z'
loop_
 _atom_site_type_symbol
 _atom_site_label
 _atom_site_symmetry_multiplicity
 _atom_site_fract_x
 _atom_site_fract_y
 _atom_site_fract_z
 _atom_site_occupancy
  Pr  Pr0  1  0.50000000  0.00000000  0.25000000  1
  Pr  Pr1  1  0.50000000  0.50000000  0.50000000  1
  Pr  Pr2  1  0.00000000  0.50000000  0.75000000  1
  Pr  Pr3  1  0.00000000  0.00000000  0.00000000  1
  Cr  Cr4  1  0.00000000  0.00000000  0.50000000  1
  Cr  Cr5  1  0.50000000  0.00000000  0.75000000  1
  Cr  Cr6  1  0.50000000  0.50000000  0.00000000  1
  Cr  Cr7  1  0.00000000  0.50000000  0.25000000  1
  O  O8  1  0.50000000  0.17953000  0.58255100  1
  O  O9  1  0.82047000  0.00000000  0.33255100  1
  O  O10  1  0.17953000  0.00000000  0.33255100  1
  O  O11  1  0.00000000  0.32047000  0.08255100  1
  O  O12  1  0.67953000  0.00000000  0.91744900  1
  O  O13  1  0.00000000  0.82047000  0.66744900  1
  O  O14  1  0.00000000  0.17953000  0.66744900  1
  O  O15  1  0.82047000  0.50000000  0.41744900  1
  O  O16  1  0.00000000  0.67953000  0.08255100  1
  O  O17  1  0.32047000  0.50000000  0.83255100  1
  O  O18  1  0.67953000  0.50000000  0.83255100  1
  O  O19  1  0.50000000  0.82047000  0.58255100  1
  O  O20  1  0.17953000  0.50000000  0.41744900  1
  O  O21  1  0.50000000  0.32047000  0.16744900  1
  O  O22  1  0.50000000  0.67953000  0.16744900  1
  O  O23  1  0.32047000  0.00000000  0.91744900  1
