# generated using pymatgen
data_K3Na(SeO4)2
_symmetry_space_group_name_H-M   'P 1'
_cell_length_a   10.36286600
_cell_length_b   5.98114600
_cell_length_c   15.41041994
_cell_angle_alpha   90.00000000
_cell_angle_beta   90.15159376
_cell_angle_gamma   90.00000000
_symmetry_Int_Tables_number   1
_chemical_formula_structural   K3Na(SeO4)2
_chemical_formula_sum   'K12 Na4 Se8 O32'
_cell_volume   955.16244717
_cell_formula_units_Z   4
loop_
 _symmetry_equiv_pos_site_id
 _symmetry_equiv_pos_as_xyz
  1  'x, y, z'
loop_
 _atom_site_type_symbol
 _atom_site_label
 _atom_site_symmetry_multiplicity
 _atom_site_fract_x
 _atom_site_fract_y
 _atom_site_fract_z
 _atom_site_occupancy
  K  K0  1  0.00000000  0.94719500  0.75000000  1
  K  K1  1  0.00000000  0.05280500  0.25000000  1
  K  K2  1  0.66961100  0.97428300  0.59305300  1
  K  K3  1  0.83038900  0.47428300  0.90694700  1
  K  K4  1  0.83038900  0.52571700  0.40694700  1
  K  K5  1  0.66961100  0.02571700  0.09305300  1
  K  K6  1  0.50000000  0.44719500  0.75000000  1
  K  K7  1  0.50000000  0.55280500  0.25000000  1
  K  K8  1  0.16961100  0.47428300  0.59305300  1
  K  K9  1  0.33038900  0.97428300  0.90694700  1
  K  K10  1  0.33038900  0.02571700  0.40694700  1
  K  K11  1  0.16961100  0.52571700  0.09305300  1
  Na  Na12  1  0.00000000  0.00000000  0.00000000  1
  Na  Na13  1  0.00000000  0.00000000  0.50000000  1
  Na  Na14  1  0.50000000  0.50000000  0.00000000  1
  Na  Na15  1  0.50000000  0.50000000  0.50000000  1
  Se  Se16  1  0.66431200  0.98125500  0.86622500  1
  Se  Se17  1  0.83568800  0.48125500  0.63377500  1
  Se  Se18  1  0.83568800  0.51874500  0.13377500  1
  Se  Se19  1  0.66431200  0.01874500  0.36622500  1
  Se  Se20  1  0.16431200  0.48125500  0.86622500  1
  Se  Se21  1  0.33568800  0.98125500  0.63377500  1
  Se  Se22  1  0.33568800  0.01874500  0.13377500  1
  Se  Se23  1  0.16431200  0.51874500  0.36622500  1
  O  O24  1  0.81512900  0.95588800  0.90564000  1
  O  O25  1  0.68487100  0.45588800  0.59436000  1
  O  O26  1  0.68487100  0.54411200  0.09436000  1
  O  O27  1  0.81512900  0.04411200  0.40564000  1
  O  O28  1  0.58501000  0.73957500  0.88200100  1
  O  O29  1  0.91499000  0.23957500  0.61799900  1
  O  O30  1  0.91499000  0.76042500  0.11799900  1
  O  O31  1  0.58501000  0.26042500  0.38200100  1
  O  O32  1  0.58944600  0.18387800  0.92301500  1
  O  O33  1  0.91055400  0.68387800  0.57698500  1
  O  O34  1  0.91055400  0.31612200  0.07698500  1
  O  O35  1  0.58944600  0.81612200  0.42301500  1
  O  O36  1  0.66807250  0.94489050  0.26241100  1
  O  O37  1  0.83192750  0.44489050  0.23758900  1
  O  O38  1  0.83192750  0.55510950  0.73758900  1
  O  O39  1  0.66807250  0.05510950  0.76241100  1
  O  O40  1  0.31512900  0.45588800  0.90564000  1
  O  O41  1  0.18487100  0.95588800  0.59436000  1
  O  O42  1  0.18487100  0.04411200  0.09436000  1
  O  O43  1  0.31512900  0.54411200  0.40564000  1
  O  O44  1  0.08501000  0.23957500  0.88200100  1
  O  O45  1  0.41499000  0.73957500  0.61799900  1
  O  O46  1  0.41499000  0.26042500  0.11799900  1
  O  O47  1  0.08501000  0.76042500  0.38200100  1
  O  O48  1  0.08944600  0.68387800  0.92301500  1
  O  O49  1  0.41055400  0.18387800  0.57698500  1
  O  O50  1  0.41055400  0.81612200  0.07698500  1
  O  O51  1  0.08944600  0.31612200  0.42301500  1
  O  O52  1  0.16807250  0.44489050  0.26241100  1
  O  O53  1  0.33192750  0.94489050  0.23758900  1
  O  O54  1  0.33192750  0.05510950  0.73758900  1
  O  O55  1  0.16807250  0.55510950  0.76241100  1
