# generated using pymatgen
data_Cs4Zn3F10
_symmetry_space_group_name_H-M   'P 1'
_cell_length_a   6.32769400
_cell_length_b   14.71958400
_cell_length_c   14.14095900
_cell_angle_alpha   90.00000000
_cell_angle_beta   90.00000000
_cell_angle_gamma   90.00000000
_symmetry_Int_Tables_number   1
_chemical_formula_structural   Cs4Zn3F10
_chemical_formula_sum   'Cs16 Zn12 F40'
_cell_volume   1317.10339254
_cell_formula_units_Z   4
loop_
 _symmetry_equiv_pos_site_id
 _symmetry_equiv_pos_as_xyz
  1  'x, y, z'
loop_
 _atom_site_type_symbol
 _atom_site_label
 _atom_site_symmetry_multiplicity
 _atom_site_fract_x
 _atom_site_fract_y
 _atom_site_fract_z
 _atom_site_occupancy
  Cs  Cs0  1  0.50000000  0.74480700  0.10996800  1
  Cs  Cs1  1  0.00000000  0.75519300  0.89003200  1
  Cs  Cs2  1  0.50000000  0.75519300  0.60996800  1
  Cs  Cs3  1  0.00000000  0.74480700  0.39003200  1
  Cs  Cs4  1  0.00000000  0.54423100  0.13884500  1
  Cs  Cs5  1  0.50000000  0.95576900  0.86115500  1
  Cs  Cs6  1  0.00000000  0.95576900  0.63884500  1
  Cs  Cs7  1  0.50000000  0.54423100  0.36115500  1
  Cs  Cs8  1  0.00000000  0.24480700  0.10996800  1
  Cs  Cs9  1  0.50000000  0.25519300  0.89003200  1
  Cs  Cs10  1  0.00000000  0.25519300  0.60996800  1
  Cs  Cs11  1  0.50000000  0.24480700  0.39003200  1
  Cs  Cs12  1  0.50000000  0.04423100  0.13884500  1
  Cs  Cs13  1  0.00000000  0.45576900  0.86115500  1
  Cs  Cs14  1  0.50000000  0.45576900  0.63884500  1
  Cs  Cs15  1  0.00000000  0.04423100  0.36115500  1
  Zn  Zn16  1  0.00000000  0.87899900  0.15570000  1
  Zn  Zn17  1  0.50000000  0.62100100  0.84430000  1
  Zn  Zn18  1  0.00000000  0.62100100  0.65570000  1
  Zn  Zn19  1  0.50000000  0.87899900  0.34430000  1
  Zn  Zn20  1  0.50000000  0.50000000  0.00000000  1
  Zn  Zn21  1  0.00000000  0.50000000  0.50000000  1
  Zn  Zn22  1  0.50000000  0.37899900  0.15570000  1
  Zn  Zn23  1  0.00000000  0.12100100  0.84430000  1
  Zn  Zn24  1  0.50000000  0.12100100  0.65570000  1
  Zn  Zn25  1  0.00000000  0.37899900  0.34430000  1
  Zn  Zn26  1  0.00000000  0.00000000  0.00000000  1
  Zn  Zn27  1  0.50000000  0.00000000  0.50000000  1
  F  F28  1  0.71401050  0.59986550  0.96225900  1
  F  F29  1  0.21401050  0.90013450  0.03774100  1
  F  F30  1  0.28598950  0.90013450  0.46225900  1
  F  F31  1  0.78598950  0.59986550  0.53774100  1
  F  F32  1  0.78598950  0.90013450  0.03774100  1
  F  F33  1  0.28598950  0.59986550  0.96225900  1
  F  F34  1  0.21401050  0.59986550  0.53774100  1
  F  F35  1  0.71401050  0.90013450  0.46225900  1
  F  F36  1  0.50000000  0.52535100  0.14481100  1
  F  F37  1  0.00000000  0.97464900  0.85518900  1
  F  F38  1  0.50000000  0.97464900  0.64481100  1
  F  F39  1  0.00000000  0.52535100  0.35518900  1
  F  F40  1  0.00000000  0.74576900  0.15040000  1
  F  F41  1  0.50000000  0.75423100  0.84960000  1
  F  F42  1  0.75000000  0.88804300  0.25000000  1
  F  F43  1  0.25000000  0.61195700  0.75000000  1
  F  F44  1  0.75000000  0.61195700  0.75000000  1
  F  F45  1  0.25000000  0.88804300  0.25000000  1
  F  F46  1  0.50000000  0.74576900  0.34960000  1
  F  F47  1  0.00000000  0.75423100  0.65040000  1
  F  F48  1  0.21401050  0.09986550  0.96225900  1
  F  F49  1  0.71401050  0.40013450  0.03774100  1
  F  F50  1  0.78598950  0.40013450  0.46225900  1
  F  F51  1  0.28598950  0.09986550  0.53774100  1
  F  F52  1  0.28598950  0.40013450  0.03774100  1
  F  F53  1  0.78598950  0.09986550  0.96225900  1
  F  F54  1  0.71401050  0.09986550  0.53774100  1
  F  F55  1  0.21401050  0.40013450  0.46225900  1
  F  F56  1  0.00000000  0.02535100  0.14481100  1
  F  F57  1  0.50000000  0.47464900  0.85518900  1
  F  F58  1  0.00000000  0.47464900  0.64481100  1
  F  F59  1  0.50000000  0.02535100  0.35518900  1
  F  F60  1  0.50000000  0.24576900  0.15040000  1
  F  F61  1  0.00000000  0.25423100  0.84960000  1
  F  F62  1  0.25000000  0.38804300  0.25000000  1
  F  F63  1  0.75000000  0.11195700  0.75000000  1
  F  F64  1  0.25000000  0.11195700  0.75000000  1
  F  F65  1  0.75000000  0.38804300  0.25000000  1
  F  F66  1  0.00000000  0.24576900  0.34960000  1
  F  F67  1  0.50000000  0.25423100  0.65040000  1
