# generated using pymatgen
data_CaC2(SN)2
_symmetry_space_group_name_H-M   'P 1'
_cell_length_a   10.18102000
_cell_length_b   6.38397400
_cell_length_c   7.80107249
_cell_angle_alpha   90.00000000
_cell_angle_beta   90.71798310
_cell_angle_gamma   90.00000000
_symmetry_Int_Tables_number   1
_chemical_formula_structural   CaC2(SN)2
_chemical_formula_sum   'Ca4 C8 S8 N8'
_cell_volume   506.99376026
_cell_formula_units_Z   4
loop_
 _symmetry_equiv_pos_site_id
 _symmetry_equiv_pos_as_xyz
  1  'x, y, z'
loop_
 _atom_site_type_symbol
 _atom_site_label
 _atom_site_symmetry_multiplicity
 _atom_site_fract_x
 _atom_site_fract_y
 _atom_site_fract_z
 _atom_site_occupancy
  Ca  Ca0  1  0.50000000  0.08821100  0.25000000  1
  Ca  Ca1  1  0.50000000  0.91178900  0.75000000  1
  Ca  Ca2  1  0.00000000  0.58821100  0.25000000  1
  Ca  Ca3  1  0.00000000  0.41178900  0.75000000  1
  C  C4  1  0.38299400  0.63978600  0.39772100  1
  C  C5  1  0.38299400  0.36021400  0.89772100  1
  C  C6  1  0.61700600  0.36021400  0.60227900  1
  C  C7  1  0.61700600  0.63978600  0.10227900  1
  C  C8  1  0.88299400  0.13978600  0.39772100  1
  C  C9  1  0.88299400  0.86021400  0.89772100  1
  C  C10  1  0.11700600  0.86021400  0.60227900  1
  C  C11  1  0.11700600  0.13978600  0.10227900  1
  S  S12  1  0.80164050  0.94034650  0.32547500  1
  S  S13  1  0.19835950  0.94034650  0.17452500  1
  S  S14  1  0.19835950  0.05965350  0.67452500  1
  S  S15  1  0.80164050  0.05965350  0.82547500  1
  S  S16  1  0.30164050  0.44034650  0.32547500  1
  S  S17  1  0.69835950  0.44034650  0.17452500  1
  S  S18  1  0.69835950  0.55965350  0.67452500  1
  S  S19  1  0.30164050  0.55965350  0.82547500  1
  N  N20  1  0.44106500  0.78989900  0.44944900  1
  N  N21  1  0.44106500  0.21010100  0.94944900  1
  N  N22  1  0.55893500  0.78989900  0.05055100  1
  N  N23  1  0.55893500  0.21010100  0.55055100  1
  N  N24  1  0.94106500  0.28989900  0.44944900  1
  N  N25  1  0.94106500  0.71010100  0.94944900  1
  N  N26  1  0.05893500  0.28989900  0.05055100  1
  N  N27  1  0.05893500  0.71010100  0.55055100  1
