# generated using pymatgen
data_KGaS2
_symmetry_space_group_name_H-M   'P 1'
_cell_length_a   10.57728800
_cell_length_b   10.57320200
_cell_length_c   15.02263631
_cell_angle_alpha   90.00000000
_cell_angle_beta   100.15081325
_cell_angle_gamma   90.00000000
_symmetry_Int_Tables_number   1
_chemical_formula_structural   KGaS2
_chemical_formula_sum   'K16 Ga16 S32'
_cell_volume   1653.77092496
_cell_formula_units_Z   16
loop_
 _symmetry_equiv_pos_site_id
 _symmetry_equiv_pos_as_xyz
  1  'x, y, z'
loop_
 _atom_site_type_symbol
 _atom_site_label
 _atom_site_symmetry_multiplicity
 _atom_site_fract_x
 _atom_site_fract_y
 _atom_site_fract_z
 _atom_site_occupancy
  K  K0  1  0.71528250  0.06175150  0.11101200  1
  K  K1  1  0.28471750  0.06175150  0.38898800  1
  K  K2  1  0.46308850  0.31137950  0.10886400  1
  K  K3  1  0.46308850  0.68862050  0.60886400  1
  K  K4  1  0.53691150  0.31137950  0.39113600  1
  K  K5  1  0.53691150  0.68862050  0.89113600  1
  K  K6  1  0.71528250  0.93824850  0.61101200  1
  K  K7  1  0.28471750  0.93824850  0.88898800  1
  K  K8  1  0.21528250  0.56175150  0.11101200  1
  K  K9  1  0.78471750  0.56175150  0.38898800  1
  K  K10  1  0.96308850  0.81137950  0.10886400  1
  K  K11  1  0.96308850  0.18862050  0.60886400  1
  K  K12  1  0.03691150  0.81137950  0.39113600  1
  K  K13  1  0.03691150  0.18862050  0.89113600  1
  K  K14  1  0.21528250  0.43824850  0.61101200  1
  K  K15  1  0.78471750  0.43824850  0.88898800  1
  Ga  Ga16  1  0.60066300  0.68854600  0.16367300  1
  Ga  Ga17  1  0.60066300  0.31145400  0.66367300  1
  Ga  Ga18  1  0.35393500  0.06360900  0.66327600  1
  Ga  Ga19  1  0.35393500  0.93639100  0.16327600  1
  Ga  Ga20  1  0.64606500  0.93639100  0.33672400  1
  Ga  Ga21  1  0.64606500  0.06360900  0.83672400  1
  Ga  Ga22  1  0.39933700  0.31145400  0.83632700  1
  Ga  Ga23  1  0.39933700  0.68854600  0.33632700  1
  Ga  Ga24  1  0.10066300  0.18854600  0.16367300  1
  Ga  Ga25  1  0.10066300  0.81145400  0.66367300  1
  Ga  Ga26  1  0.85393500  0.56360900  0.66327600  1
  Ga  Ga27  1  0.85393500  0.43639100  0.16327600  1
  Ga  Ga28  1  0.14606500  0.43639100  0.33672400  1
  Ga  Ga29  1  0.14606500  0.56360900  0.83672400  1
  Ga  Ga30  1  0.89933700  0.81145400  0.83632700  1
  Ga  Ga31  1  0.89933700  0.18854600  0.33632700  1
  S  S32  1  0.24377950  0.81172850  0.24944600  1
  S  S33  1  0.24377950  0.18827150  0.74944600  1
  S  S34  1  0.45353800  0.81149500  0.06869600  1
  S  S35  1  0.45353800  0.18850500  0.56869600  1
  S  S36  1  0.75622050  0.81172850  0.25055400  1
  S  S37  1  0.75622050  0.18827150  0.75055400  1
  S  S38  1  0.20448450  0.93661050  0.57228400  1
  S  S39  1  0.20448450  0.06338950  0.07228400  1
  S  S40  1  0.50000000  0.93196600  0.75000000  1
  S  S41  1  0.50000000  0.06803400  0.25000000  1
  S  S42  1  0.54646200  0.81149500  0.43130400  1
  S  S43  1  0.50000000  0.55678600  0.25000000  1
  S  S44  1  0.79551550  0.93661050  0.92771600  1
  S  S45  1  0.79551550  0.06338950  0.42771600  1
  S  S46  1  0.50000000  0.44321400  0.75000000  1
  S  S47  1  0.54646200  0.18850500  0.93130400  1
  S  S48  1  0.74377950  0.31172850  0.24944600  1
  S  S49  1  0.74377950  0.68827150  0.74944600  1
  S  S50  1  0.95353800  0.31149500  0.06869600  1
  S  S51  1  0.95353800  0.68850500  0.56869600  1
  S  S52  1  0.25622050  0.31172850  0.25055400  1
  S  S53  1  0.25622050  0.68827150  0.75055400  1
  S  S54  1  0.70448450  0.43661050  0.57228400  1
  S  S55  1  0.70448450  0.56338950  0.07228400  1
  S  S56  1  0.00000000  0.43196600  0.75000000  1
  S  S57  1  0.00000000  0.56803400  0.25000000  1
  S  S58  1  0.04646200  0.31149500  0.43130400  1
  S  S59  1  0.00000000  0.05678600  0.25000000  1
  S  S60  1  0.29551550  0.43661050  0.92771600  1
  S  S61  1  0.29551550  0.56338950  0.42771600  1
  S  S62  1  0.00000000  0.94321400  0.75000000  1
  S  S63  1  0.04646200  0.68850500  0.93130400  1
