# generated using pymatgen
data_Y2MgS4
_symmetry_space_group_name_H-M   'P 1'
_cell_length_a   11.18579400
_cell_length_b   11.18579400
_cell_length_c   11.18579400
_cell_angle_alpha   90.00000000
_cell_angle_beta   90.00000000
_cell_angle_gamma   90.00000000
_symmetry_Int_Tables_number   1
_chemical_formula_structural   Y2MgS4
_chemical_formula_sum   'Y16 Mg8 S32'
_cell_volume   1399.58877604
_cell_formula_units_Z   8
loop_
 _symmetry_equiv_pos_site_id
 _symmetry_equiv_pos_as_xyz
  1  'x, y, z'
loop_
 _atom_site_type_symbol
 _atom_site_label
 _atom_site_symmetry_multiplicity
 _atom_site_fract_x
 _atom_site_fract_y
 _atom_site_fract_z
 _atom_site_occupancy
  Y  Y0  1  0.37500000  0.12500000  0.37500000  1
  Y  Y1  1  0.87500000  0.87500000  0.12500000  1
  Y  Y2  1  0.62500000  0.87500000  0.37500000  1
  Y  Y3  1  0.12500000  0.12500000  0.12500000  1
  Y  Y4  1  0.37500000  0.62500000  0.87500000  1
  Y  Y5  1  0.87500000  0.37500000  0.62500000  1
  Y  Y6  1  0.62500000  0.37500000  0.87500000  1
  Y  Y7  1  0.12500000  0.62500000  0.62500000  1
  Y  Y8  1  0.87500000  0.12500000  0.87500000  1
  Y  Y9  1  0.37500000  0.87500000  0.62500000  1
  Y  Y10  1  0.12500000  0.87500000  0.87500000  1
  Y  Y11  1  0.62500000  0.12500000  0.62500000  1
  Y  Y12  1  0.87500000  0.62500000  0.37500000  1
  Y  Y13  1  0.37500000  0.37500000  0.12500000  1
  Y  Y14  1  0.12500000  0.37500000  0.37500000  1
  Y  Y15  1  0.62500000  0.62500000  0.12500000  1
  Mg  Mg16  1  0.00000000  0.00000000  0.50000000  1
  Mg  Mg17  1  0.25000000  0.75000000  0.25000000  1
  Mg  Mg18  1  0.00000000  0.50000000  0.00000000  1
  Mg  Mg19  1  0.25000000  0.25000000  0.75000000  1
  Mg  Mg20  1  0.50000000  0.00000000  0.00000000  1
  Mg  Mg21  1  0.75000000  0.75000000  0.75000000  1
  Mg  Mg22  1  0.50000000  0.50000000  0.50000000  1
  Mg  Mg23  1  0.75000000  0.25000000  0.25000000  1
  S  S24  1  0.37958500  0.87958500  0.37958500  1
  S  S25  1  0.87958500  0.12041500  0.12041500  1
  S  S26  1  0.12041500  0.87958500  0.12041500  1
  S  S27  1  0.62041500  0.12041500  0.37958500  1
  S  S28  1  0.12958500  0.12958500  0.37041500  1
  S  S29  1  0.12958500  0.37041500  0.12958500  1
  S  S30  1  0.37041500  0.12958500  0.12958500  1
  S  S31  1  0.37041500  0.37041500  0.37041500  1
  S  S32  1  0.37958500  0.37958500  0.87958500  1
  S  S33  1  0.87958500  0.62041500  0.62041500  1
  S  S34  1  0.12041500  0.37958500  0.62041500  1
  S  S35  1  0.62041500  0.62041500  0.87958500  1
  S  S36  1  0.12958500  0.62958500  0.87041500  1
  S  S37  1  0.12958500  0.87041500  0.62958500  1
  S  S38  1  0.37041500  0.62958500  0.62958500  1
  S  S39  1  0.37041500  0.87041500  0.87041500  1
  S  S40  1  0.87958500  0.87958500  0.87958500  1
  S  S41  1  0.37958500  0.12041500  0.62041500  1
  S  S42  1  0.62041500  0.87958500  0.62041500  1
  S  S43  1  0.12041500  0.12041500  0.87958500  1
  S  S44  1  0.62958500  0.12958500  0.87041500  1
  S  S45  1  0.62958500  0.37041500  0.62958500  1
  S  S46  1  0.87041500  0.12958500  0.62958500  1
  S  S47  1  0.87041500  0.37041500  0.87041500  1
  S  S48  1  0.87958500  0.37958500  0.37958500  1
  S  S49  1  0.37958500  0.62041500  0.12041500  1
  S  S50  1  0.62041500  0.37958500  0.12041500  1
  S  S51  1  0.12041500  0.62041500  0.37958500  1
  S  S52  1  0.62958500  0.62958500  0.37041500  1
  S  S53  1  0.62958500  0.87041500  0.12958500  1
  S  S54  1  0.87041500  0.62958500  0.12958500  1
  S  S55  1  0.87041500  0.87041500  0.37041500  1
