# generated using pymatgen
data_CoSO4
_symmetry_space_group_name_H-M   'P 1'
_cell_length_a   5.23433408
_cell_length_b   7.98327843
_cell_length_c   6.62151010
_cell_angle_alpha   90.00000000
_cell_angle_beta   90.00000000
_cell_angle_gamma   90.00000000
_symmetry_Int_Tables_number   1
_chemical_formula_structural   CoSO4
_chemical_formula_sum   'Co4 S4 O16'
_cell_volume   276.69401180
_cell_formula_units_Z   4
loop_
 _symmetry_equiv_pos_site_id
 _symmetry_equiv_pos_as_xyz
  1  'x, y, z'
loop_
 _atom_site_type_symbol
 _atom_site_label
 _atom_site_symmetry_multiplicity
 _atom_site_fract_x
 _atom_site_fract_y
 _atom_site_fract_z
 _atom_site_occupancy
  Co  Co0  1  0.00000000  0.00000000  0.50000000  1
  Co  Co1  1  0.00000000  0.00000000  0.00000000  1
  Co  Co2  1  0.50000000  0.50000000  0.50000000  1
  Co  Co3  1  0.50000000  0.50000000  0.00000000  1
  S  S4  1  0.50000000  0.15118750  0.25000000  1
  S  S5  1  0.50000000  0.84881250  0.75000000  1
  S  S6  1  0.00000000  0.65118750  0.25000000  1
  S  S7  1  0.00000000  0.34881250  0.75000000  1
  O  O8  1  0.26534250  0.04043350  0.25000000  1
  O  O9  1  0.73465750  0.04043350  0.25000000  1
  O  O10  1  0.73465750  0.95956650  0.75000000  1
  O  O11  1  0.26534250  0.95956650  0.75000000  1
  O  O12  1  0.50000000  0.74869200  0.56347000  1
  O  O13  1  0.50000000  0.25130800  0.43653000  1
  O  O14  1  0.50000000  0.74869200  0.93653000  1
  O  O15  1  0.50000000  0.25130800  0.06347000  1
  O  O16  1  0.76534250  0.54043350  0.25000000  1
  O  O17  1  0.23465750  0.54043350  0.25000000  1
  O  O18  1  0.23465750  0.45956650  0.75000000  1
  O  O19  1  0.76534250  0.45956650  0.75000000  1
  O  O20  1  0.00000000  0.24869200  0.56347000  1
  O  O21  1  0.00000000  0.75130800  0.43653000  1
  O  O22  1  0.00000000  0.24869200  0.93653000  1
  O  O23  1  0.00000000  0.75130800  0.06347000  1
