# generated using pymatgen
data_LiGaSiO4
_symmetry_space_group_name_H-M   'P 1'
_cell_length_a   13.82907083
_cell_length_b   13.82907083
_cell_length_c   9.20226050
_cell_angle_alpha   90.00000000
_cell_angle_beta   90.00000000
_cell_angle_gamma   120.00000000
_symmetry_Int_Tables_number   1
_chemical_formula_structural   LiGaSiO4
_chemical_formula_sum   'Li18 Ga18 Si18 O72'
_cell_volume   1524.09190653
_cell_formula_units_Z   18
loop_
 _symmetry_equiv_pos_site_id
 _symmetry_equiv_pos_as_xyz
  1  'x, y, z'
loop_
 _atom_site_type_symbol
 _atom_site_label
 _atom_site_symmetry_multiplicity
 _atom_site_fract_x
 _atom_site_fract_y
 _atom_site_fract_z
 _atom_site_occupancy
  Li  Li0  1  0.98400900  0.79281300  0.58239700  1
  Li  Li1  1  0.45499400  0.14257400  0.41888300  1
  Li  Li2  1  0.68758000  0.54500600  0.41888300  1
  Li  Li3  1  0.85742600  0.31242000  0.41888300  1
  Li  Li4  1  0.80880400  0.01599100  0.58239700  1
  Li  Li5  1  0.20718700  0.19119600  0.58239700  1
  Li  Li6  1  0.65067567  0.12614633  0.91573033  1
  Li  Li7  1  0.12166067  0.47590733  0.75221633  1
  Li  Li8  1  0.35424667  0.87833933  0.75221633  1
  Li  Li9  1  0.52409267  0.64575333  0.75221633  1
  Li  Li10  1  0.47547067  0.34932433  0.91573033  1
  Li  Li11  1  0.87385367  0.52452933  0.91573033  1
  Li  Li12  1  0.31734233  0.45947967  0.24906367  1
  Li  Li13  1  0.78832733  0.80924067  0.08554967  1
  Li  Li14  1  0.02091333  0.21167267  0.08554967  1
  Li  Li15  1  0.19075933  0.97908667  0.08554967  1
  Li  Li16  1  0.14213733  0.68265767  0.24906367  1
  Li  Li17  1  0.54052033  0.85786267  0.24906367  1
  Ga  Ga18  1  0.19645600  0.98827000  0.75045700  1
  Ga  Ga19  1  0.79181400  0.80354400  0.75045700  1
  Ga  Ga20  1  0.01173000  0.20818600  0.75045700  1
  Ga  Ga21  1  0.80491767  0.01985033  0.25043033  1
  Ga  Ga22  1  0.21493267  0.19508233  0.25043033  1
  Ga  Ga23  1  0.98014967  0.78506733  0.25043033  1
  Ga  Ga24  1  0.86312267  0.32160333  0.08379033  1
  Ga  Ga25  1  0.45848067  0.13687733  0.08379033  1
  Ga  Ga26  1  0.67839667  0.54151933  0.08379033  1
  Ga  Ga27  1  0.47158433  0.35318367  0.58376367  1
  Ga  Ga28  1  0.88159933  0.52841567  0.58376367  1
  Ga  Ga29  1  0.64681633  0.11840067  0.58376367  1
  Ga  Ga30  1  0.52978933  0.65493667  0.41712367  1
  Ga  Ga31  1  0.12514733  0.47021067  0.41712367  1
  Ga  Ga32  1  0.34506333  0.87485267  0.41712367  1
  Ga  Ga33  1  0.13825100  0.68651700  0.91709700  1
  Ga  Ga34  1  0.54826600  0.86174900  0.91709700  1
  Ga  Ga35  1  0.31348300  0.45173400  0.91709700  1
  Si  Si36  1  0.54147667  0.86418933  0.58268433  1
  Si  Si37  1  0.32271267  0.45852333  0.58268433  1
  Si  Si38  1  0.13581067  0.67728733  0.58268433  1
  Si  Si39  1  0.19547800  0.98313200  0.41654500  1
  Si  Si40  1  0.78765400  0.80452200  0.41654500  1
  Si  Si41  1  0.01686800  0.21234600  0.41654500  1
  Si  Si42  1  0.20814333  0.19752267  0.91601767  1
  Si  Si43  1  0.98937933  0.79185667  0.91601767  1
  Si  Si44  1  0.80247733  0.01062067  0.91601767  1
  Si  Si45  1  0.86214467  0.31646533  0.74987833  1
  Si  Si46  1  0.45432067  0.13785533  0.74987833  1
  Si  Si47  1  0.68353467  0.54567933  0.74987833  1
  Si  Si48  1  0.87481000  0.53085600  0.24935100  1
  Si  Si49  1  0.65604600  0.12519000  0.24935100  1
  Si  Si50  1  0.46914400  0.34395400  0.24935100  1
  Si  Si51  1  0.52881133  0.64979867  0.08321167  1
  Si  Si52  1  0.12098733  0.47118867  0.08321167  1
  Si  Si53  1  0.35020133  0.87901267  0.08321167  1
  O  O54  1  0.21494333  0.11059867  0.40585567  1
  O  O55  1  0.13099067  0.92882833  0.57171233  1
  O  O56  1  0.07117167  0.20216233  0.57171233  1
  O  O57  1  0.20322133  0.73766367  0.73451067  1
  O  O58  1  0.53444233  0.79677867  0.73451067  1
  O  O59  1  0.26233633  0.46555767  0.73451067  1
  O  O60  1  0.78381867  0.23348133  0.23960433  1
  O  O61  1  0.44966267  0.21618133  0.23960433  1
  O  O62  1  0.76651867  0.55033733  0.23960433  1
  O  O63  1  0.79783767  0.86900933  0.57171233  1
  O  O64  1  0.88940133  0.10434467  0.40585567  1
  O  O65  1  0.89565533  0.78505667  0.40585567  1
  O  O66  1  0.78686433  0.87816567  0.27647967  1
  O  O67  1  0.12183433  0.90869867  0.27647967  1
  O  O68  1  0.09130133  0.21313567  0.27647967  1
  O  O69  1  0.20686233  0.12641667  0.77307867  1
  O  O70  1  0.87358333  0.08044567  0.77307867  1
  O  O71  1  0.91955433  0.79313767  0.77307867  1
  O  O72  1  0.01158967  0.66661233  0.58440033  1
  O  O73  1  0.33338767  0.34497733  0.58440033  1
  O  O74  1  0.65502267  0.98841033  0.58440033  1
  O  O75  1  0.00571800  0.32557600  0.41576100  1
  O  O76  1  0.67442400  0.68014200  0.41576100  1
  O  O77  1  0.31985800  0.99428200  0.41576100  1
  O  O78  1  0.88161000  0.44393200  0.73918900  1
  O  O79  1  0.79765733  0.26216167  0.90504567  1
  O  O80  1  0.73783833  0.53549567  0.90504567  1
  O  O81  1  0.86988800  0.07099700  0.06784400  1
  O  O82  1  0.20110900  0.13011200  0.06784400  1
  O  O83  1  0.92900300  0.79889100  0.06784400  1
  O  O84  1  0.45048533  0.56681467  0.57293767  1
  O  O85  1  0.11632933  0.54951467  0.57293767  1
  O  O86  1  0.43318533  0.88367067  0.57293767  1
  O  O87  1  0.46450433  0.20234267  0.90504567  1
  O  O88  1  0.55606800  0.43767800  0.73918900  1
  O  O89  1  0.56232200  0.11839000  0.73918900  1
  O  O90  1  0.45353100  0.21149900  0.60981300  1
  O  O91  1  0.78850100  0.24203200  0.60981300  1
  O  O92  1  0.75796800  0.54646900  0.60981300  1
  O  O93  1  0.87352900  0.45975000  0.10641200  1
  O  O94  1  0.54025000  0.41377900  0.10641200  1
  O  O95  1  0.58622100  0.12647100  0.10641200  1
  O  O96  1  0.67825633  0.99994567  0.91773367  1
  O  O97  1  0.00005433  0.67831067  0.91773367  1
  O  O98  1  0.32168933  0.32174367  0.91773367  1
  O  O99  1  0.67238467  0.65890933  0.74909433  1
  O  O100  1  0.34109067  0.01347533  0.74909433  1
  O  O101  1  0.98652467  0.32761533  0.74909433  1
  O  O102  1  0.54827667  0.77726533  0.07252233  1
  O  O103  1  0.46432400  0.59549500  0.23837900  1
  O  O104  1  0.40450500  0.86882900  0.23837900  1
  O  O105  1  0.53655467  0.40433033  0.40117733  1
  O  O106  1  0.86777567  0.46344533  0.40117733  1
  O  O107  1  0.59566967  0.13222433  0.40117733  1
  O  O108  1  0.11715200  0.90014800  0.90627100  1
  O  O109  1  0.78299600  0.88284800  0.90627100  1
  O  O110  1  0.09985200  0.21700400  0.90627100  1
  O  O111  1  0.13117100  0.53567600  0.23837900  1
  O  O112  1  0.22273467  0.77101133  0.07252233  1
  O  O113  1  0.22898867  0.45172333  0.07252233  1
  O  O114  1  0.12019767  0.54483233  0.94314633  1
  O  O115  1  0.45516767  0.57536533  0.94314633  1
  O  O116  1  0.42463467  0.87980233  0.94314633  1
  O  O117  1  0.54019567  0.79308333  0.43974533  1
  O  O118  1  0.20691667  0.74711233  0.43974533  1
  O  O119  1  0.25288767  0.45980433  0.43974533  1
  O  O120  1  0.34492300  0.33327900  0.25106700  1
  O  O121  1  0.66672100  0.01164400  0.25106700  1
  O  O122  1  0.98835600  0.65507700  0.25106700  1
  O  O123  1  0.33905133  0.99224267  0.08242767  1
  O  O124  1  0.00775733  0.34680867  0.08242767  1
  O  O125  1  0.65319133  0.66094867  0.08242767  1
