# generated using pymatgen
data_Zn(GaTe2)2
_symmetry_space_group_name_H-M   'P 1'
_cell_length_a   6.07298600
_cell_length_b   6.07298600
_cell_length_c   12.02480200
_cell_angle_alpha   90.00000000
_cell_angle_beta   90.00000000
_cell_angle_gamma   90.00000000
_symmetry_Int_Tables_number   1
_chemical_formula_structural   Zn(GaTe2)2
_chemical_formula_sum   'Zn2 Ga4 Te8'
_cell_volume   443.48863398
_cell_formula_units_Z   2
loop_
 _symmetry_equiv_pos_site_id
 _symmetry_equiv_pos_as_xyz
  1  'x, y, z'
loop_
 _atom_site_type_symbol
 _atom_site_label
 _atom_site_symmetry_multiplicity
 _atom_site_fract_x
 _atom_site_fract_y
 _atom_site_fract_z
 _atom_site_occupancy
  Zn  Zn0  1  0.00000000  0.00000000  0.00000000  1
  Zn  Zn1  1  0.50000000  0.50000000  0.50000000  1
  Ga  Ga2  1  0.50000000  0.50000000  0.00000000  1
  Ga  Ga3  1  0.50000000  0.00000000  0.25000000  1
  Ga  Ga4  1  0.00000000  0.00000000  0.50000000  1
  Ga  Ga5  1  0.00000000  0.50000000  0.75000000  1
  Te  Te6  1  0.23303300  0.73591800  0.36660500  1
  Te  Te7  1  0.76408200  0.73303300  0.13339500  1
  Te  Te8  1  0.23591800  0.26696700  0.13339500  1
  Te  Te9  1  0.76696700  0.26408200  0.36660500  1
  Te  Te10  1  0.73303300  0.23591800  0.86660500  1
  Te  Te11  1  0.26408200  0.23303300  0.63339500  1
  Te  Te12  1  0.73591800  0.76696700  0.63339500  1
  Te  Te13  1  0.26696700  0.76408200  0.86660500  1
