# generated using pymatgen
data_KSbS2
_symmetry_space_group_name_H-M   'P 1'
_cell_length_a   8.86858200
_cell_length_b   9.46694600
_cell_length_c   6.97694989
_cell_angle_alpha   90.00000000
_cell_angle_beta   121.64601792
_cell_angle_gamma   90.00000000
_symmetry_Int_Tables_number   1
_chemical_formula_structural   KSbS2
_chemical_formula_sum   'K4 Sb4 S8'
_cell_volume   498.67235019
_cell_formula_units_Z   4
loop_
 _symmetry_equiv_pos_site_id
 _symmetry_equiv_pos_as_xyz
  1  'x, y, z'
loop_
 _atom_site_type_symbol
 _atom_site_label
 _atom_site_symmetry_multiplicity
 _atom_site_fract_x
 _atom_site_fract_y
 _atom_site_fract_z
 _atom_site_occupancy
  K  K0  1  0.50000000  0.64217300  0.75000000  1
  K  K1  1  0.50000000  0.35782700  0.25000000  1
  K  K2  1  0.00000000  0.14217300  0.75000000  1
  K  K3  1  0.00000000  0.85782700  0.25000000  1
  Sb  Sb4  1  0.50000000  0.91490800  0.25000000  1
  Sb  Sb5  1  0.50000000  0.08509200  0.75000000  1
  Sb  Sb6  1  0.00000000  0.41490800  0.25000000  1
  Sb  Sb7  1  0.00000000  0.58509200  0.75000000  1
  S  S8  1  0.29644550  0.07690150  0.27988100  1
  S  S9  1  0.70355450  0.07690150  0.22011900  1
  S  S10  1  0.29644550  0.92309850  0.77988100  1
  S  S11  1  0.70355450  0.92309850  0.72011900  1
  S  S12  1  0.79644550  0.57690150  0.27988100  1
  S  S13  1  0.20355450  0.57690150  0.22011900  1
  S  S14  1  0.79644550  0.42309850  0.77988100  1
  S  S15  1  0.20355450  0.42309850  0.72011900  1
