# generated using pymatgen
data_LiCoPO4
_symmetry_space_group_name_H-M   'P 1'
_cell_length_a   4.76278303
_cell_length_b   6.02550408
_cell_length_c   10.19691608
_cell_angle_alpha   90.00000000
_cell_angle_beta   90.00000000
_cell_angle_gamma   90.00000000
_symmetry_Int_Tables_number   1
_chemical_formula_structural   LiCoPO4
_chemical_formula_sum   'Li4 Co4 P4 O16'
_cell_volume   292.63281629
_cell_formula_units_Z   4
loop_
 _symmetry_equiv_pos_site_id
 _symmetry_equiv_pos_as_xyz
  1  'x, y, z'
loop_
 _atom_site_type_symbol
 _atom_site_label
 _atom_site_symmetry_multiplicity
 _atom_site_fract_x
 _atom_site_fract_y
 _atom_site_fract_z
 _atom_site_occupancy
  Li  Li0  1  0.00000000  0.00000000  0.50000000  1
  Li  Li1  1  0.50000000  0.50000000  0.00000000  1
  Li  Li2  1  0.00000000  0.50000000  0.50000000  1
  Li  Li3  1  0.50000000  0.00000000  0.00000000  1
  Co  Co4  1  0.48032200  0.25000000  0.27570250  1
  Co  Co5  1  0.01967800  0.25000000  0.77570250  1
  Co  Co6  1  0.51967800  0.75000000  0.72429750  1
  Co  Co7  1  0.98032200  0.75000000  0.22429750  1
  P  P8  1  0.91181500  0.25000000  0.09295050  1
  P  P9  1  0.58818500  0.25000000  0.59295050  1
  P  P10  1  0.08818500  0.75000000  0.90704950  1
  P  P11  1  0.41181500  0.75000000  0.40704950  1
  O  O12  1  0.23448900  0.25000000  0.09974950  1
  O  O13  1  0.26551100  0.25000000  0.59974950  1
  O  O14  1  0.76551100  0.75000000  0.90025050  1
  O  O15  1  0.73448900  0.75000000  0.40025050  1
  O  O16  1  0.70266600  0.25000000  0.44967350  1
  O  O17  1  0.79733400  0.25000000  0.94967350  1
  O  O18  1  0.29733400  0.75000000  0.55032650  1
  O  O19  1  0.20266600  0.75000000  0.05032650  1
  O  O20  1  0.72896200  0.04482900  0.66225450  1
  O  O21  1  0.77103800  0.45517100  0.16225450  1
  O  O22  1  0.27103800  0.54482900  0.33774550  1
  O  O23  1  0.22896200  0.95517100  0.83774550  1
  O  O24  1  0.27103800  0.95517100  0.33774550  1
  O  O25  1  0.22896200  0.54482900  0.83774550  1
  O  O26  1  0.72896200  0.45517100  0.66225450  1
  O  O27  1  0.77103800  0.04482900  0.16225450  1
