# generated using pymatgen
data_Sr3Ta6(Si2O13)2
_symmetry_space_group_name_H-M   'P 1'
_cell_length_a   9.03505958
_cell_length_b   9.03505958
_cell_length_c   7.74188000
_cell_angle_alpha   90.00000000
_cell_angle_beta   90.00000000
_cell_angle_gamma   120.00000000
_symmetry_Int_Tables_number   1
_chemical_formula_structural   Sr3Ta6(Si2O13)2
_chemical_formula_sum   'Sr3 Ta6 Si4 O26'
_cell_volume   547.31721537
_cell_formula_units_Z   1
loop_
 _symmetry_equiv_pos_site_id
 _symmetry_equiv_pos_as_xyz
  1  'x, y, z'
loop_
 _atom_site_type_symbol
 _atom_site_label
 _atom_site_symmetry_multiplicity
 _atom_site_fract_x
 _atom_site_fract_y
 _atom_site_fract_z
 _atom_site_occupancy
  Sr  Sr0  1  0.40301800  0.40301800  0.50000000  1
  Sr  Sr1  1  0.00000000  0.59698200  0.50000000  1
  Sr  Sr2  1  0.59698200  0.00000000  0.50000000  1
  Ta  Ta3  1  0.00000000  0.23853300  0.75400700  1
  Ta  Ta4  1  0.76146700  0.76146700  0.75400700  1
  Ta  Ta5  1  0.23853300  0.00000000  0.24599300  1
  Ta  Ta6  1  0.76146700  0.76146700  0.24599300  1
  Ta  Ta7  1  0.23853300  0.00000000  0.75400700  1
  Ta  Ta8  1  0.00000000  0.23853300  0.24599300  1
  Si  Si9  1  0.66666667  0.33333333  0.20932000  1
  Si  Si10  1  0.66666667  0.33333333  0.79068000  1
  Si  Si11  1  0.33333333  0.66666667  0.79068000  1
  Si  Si12  1  0.33333333  0.66666667  0.20932000  1
  O  O13  1  0.00000000  0.22139100  0.50000000  1
  O  O14  1  0.77860900  0.77860900  0.50000000  1
  O  O15  1  0.22139100  0.00000000  0.50000000  1
  O  O16  1  0.50890900  0.68595000  0.29123800  1
  O  O17  1  0.31405000  0.82295900  0.29123800  1
  O  O18  1  0.17704100  0.49109100  0.29123800  1
  O  O19  1  0.49109100  0.17704100  0.70876200  1
  O  O20  1  0.17704100  0.49109100  0.70876200  1
  O  O21  1  0.50890900  0.68595000  0.70876200  1
  O  O22  1  0.31405000  0.82295900  0.70876200  1
  O  O23  1  0.68595000  0.50890900  0.29123800  1
  O  O24  1  0.82295900  0.31405000  0.29123800  1
  O  O25  1  0.82295900  0.31405000  0.70876200  1
  O  O26  1  0.33333333  0.66666667  0.00000000  1
  O  O27  1  0.66666667  0.33333333  0.00000000  1
  O  O28  1  0.27929400  0.00000000  0.00000000  1
  O  O29  1  0.72070600  0.72070600  0.00000000  1
  O  O30  1  0.00000000  0.27929400  0.00000000  1
  O  O31  1  0.81462300  0.00000000  0.23462700  1
  O  O32  1  0.18537700  0.18537700  0.76537300  1
  O  O33  1  0.00000000  0.81462300  0.76537300  1
  O  O34  1  0.00000000  0.81462300  0.23462700  1
  O  O35  1  0.18537700  0.18537700  0.23462700  1
  O  O36  1  0.81462300  0.00000000  0.76537300  1
  O  O37  1  0.49109100  0.17704100  0.29123800  1
  O  O38  1  0.68595000  0.50890900  0.70876200  1
