# generated using pymatgen
data_Rb3Sm(PS4)2
_symmetry_space_group_name_H-M   'P 1'
_cell_length_a   9.89442800
_cell_length_b   6.89574300
_cell_length_c   11.82387840
_cell_angle_alpha   90.00000000
_cell_angle_beta   90.67454174
_cell_angle_gamma   90.00000000
_symmetry_Int_Tables_number   1
_chemical_formula_structural   Rb3Sm(PS4)2
_chemical_formula_sum   'Rb6 Sm2 P4 S16'
_cell_volume   806.68060740
_cell_formula_units_Z   2
loop_
 _symmetry_equiv_pos_site_id
 _symmetry_equiv_pos_as_xyz
  1  'x, y, z'
loop_
 _atom_site_type_symbol
 _atom_site_label
 _atom_site_symmetry_multiplicity
 _atom_site_fract_x
 _atom_site_fract_y
 _atom_site_fract_z
 _atom_site_occupancy
  Rb  Rb0  1  0.64444800  0.19732100  0.09674100  1
  Rb  Rb1  1  0.35555200  0.69732100  0.90325900  1
  Rb  Rb2  1  0.17434700  0.69265400  0.41447200  1
  Rb  Rb3  1  0.82565300  0.19265400  0.58552800  1
  Rb  Rb4  1  0.39205800  0.19144000  0.64950800  1
  Rb  Rb5  1  0.60794200  0.69144000  0.35049200  1
  Sm  Sm6  1  0.11588400  0.21309600  0.14709800  1
  Sm  Sm7  1  0.88411600  0.71309600  0.85290200  1
  P  P8  1  0.37268500  0.19143200  0.30828900  1
  P  P9  1  0.08498900  0.16960000  0.84558700  1
  P  P10  1  0.91501100  0.66960000  0.15441300  1
  P  P11  1  0.62731500  0.69143200  0.69171100  1
  S  S12  1  0.09040500  0.93519300  0.73855500  1
  S  S13  1  0.90959500  0.43519300  0.26144500  1
  S  S14  1  0.26154400  0.19406500  0.93751600  1
  S  S15  1  0.73845600  0.69406500  0.06248400  1
  S  S16  1  0.94653000  0.91464300  0.24908500  1
  S  S17  1  0.93524700  0.10512200  0.96027800  1
  S  S18  1  0.05347000  0.41464300  0.75091500  1
  S  S19  1  0.06475300  0.60512200  0.03972200  1
  S  S20  1  0.79842100  0.69489400  0.59458800  1
  S  S21  1  0.20157900  0.19489400  0.40541200  1
  S  S22  1  0.65275000  0.45703500  0.79806700  1
  S  S23  1  0.34725000  0.95703500  0.20193300  1
  S  S24  1  0.44721600  0.68512700  0.60916100  1
  S  S25  1  0.55278400  0.18512700  0.39083900  1
  S  S26  1  0.64517400  0.93609900  0.79269500  1
  S  S27  1  0.35482600  0.43609900  0.20730500  1
