# generated using pymatgen
data_Ba2ZnO3
_symmetry_space_group_name_H-M   'P 1'
_cell_length_a   5.96571800
_cell_length_b   11.56128000
_cell_length_c   12.71625899
_cell_angle_alpha   90.00000000
_cell_angle_beta   93.21018209
_cell_angle_gamma   90.00000000
_symmetry_Int_Tables_number   1
_chemical_formula_structural   Ba2ZnO3
_chemical_formula_sum   'Ba16 Zn8 O24'
_cell_volume   875.68112064
_cell_formula_units_Z   8
loop_
 _symmetry_equiv_pos_site_id
 _symmetry_equiv_pos_as_xyz
  1  'x, y, z'
loop_
 _atom_site_type_symbol
 _atom_site_label
 _atom_site_symmetry_multiplicity
 _atom_site_fract_x
 _atom_site_fract_y
 _atom_site_fract_z
 _atom_site_occupancy
  Ba  Ba0  1  0.23540000  0.79468800  0.84766500  1
  Ba  Ba1  1  0.73540000  0.70531200  0.34766500  1
  Ba  Ba2  1  0.26460000  0.70531200  0.15233500  1
  Ba  Ba3  1  0.76460000  0.79468800  0.65233500  1
  Ba  Ba4  1  0.76157050  0.89639850  0.07503000  1
  Ba  Ba5  1  0.23842950  0.89639850  0.42497000  1
  Ba  Ba6  1  0.73842950  0.60360150  0.92497000  1
  Ba  Ba7  1  0.26157050  0.60360150  0.57503000  1
  Ba  Ba8  1  0.73540000  0.29468800  0.84766500  1
  Ba  Ba9  1  0.23540000  0.20531200  0.34766500  1
  Ba  Ba10  1  0.76460000  0.20531200  0.15233500  1
  Ba  Ba11  1  0.26460000  0.29468800  0.65233500  1
  Ba  Ba12  1  0.26157050  0.39639850  0.07503000  1
  Ba  Ba13  1  0.73842950  0.39639850  0.42497000  1
  Ba  Ba14  1  0.23842950  0.10360150  0.92497000  1
  Ba  Ba15  1  0.76157050  0.10360150  0.57503000  1
  Zn  Zn16  1  0.22868600  0.50235500  0.33630100  1
  Zn  Zn17  1  0.27131400  0.99764500  0.66369900  1
  Zn  Zn18  1  0.77131400  0.50235500  0.16369900  1
  Zn  Zn19  1  0.72868600  0.99764500  0.83630100  1
  Zn  Zn20  1  0.72868600  0.00235500  0.33630100  1
  Zn  Zn21  1  0.77131400  0.49764500  0.66369900  1
  Zn  Zn22  1  0.27131400  0.00235500  0.16369900  1
  Zn  Zn23  1  0.22868600  0.49764500  0.83630100  1
  O  O24  1  0.22501850  0.90141650  0.03505700  1
  O  O25  1  0.77498150  0.90141650  0.46494300  1
  O  O26  1  0.27498150  0.59858350  0.96494300  1
  O  O27  1  0.72501850  0.59858350  0.53505700  1
  O  O28  1  0.50000000  0.50689000  0.25000000  1
  O  O29  1  0.00000000  0.99311000  0.75000000  1
  O  O30  1  0.50000000  0.90633000  0.25000000  1
  O  O31  1  0.32065100  0.82873500  0.63242300  1
  O  O32  1  0.82065100  0.67126500  0.13242300  1
  O  O33  1  0.17934900  0.67126500  0.36757700  1
  O  O34  1  0.67934900  0.82873500  0.86757700  1
  O  O35  1  0.00000000  0.59367000  0.75000000  1
  O  O36  1  0.72501850  0.40141650  0.03505700  1
  O  O37  1  0.27498150  0.40141650  0.46494300  1
  O  O38  1  0.77498150  0.09858350  0.96494300  1
  O  O39  1  0.22501850  0.09858350  0.53505700  1
  O  O40  1  0.00000000  0.00689000  0.25000000  1
  O  O41  1  0.50000000  0.49311000  0.75000000  1
  O  O42  1  0.00000000  0.40633000  0.25000000  1
  O  O43  1  0.82065100  0.32873500  0.63242300  1
  O  O44  1  0.32065100  0.17126500  0.13242300  1
  O  O45  1  0.67934900  0.17126500  0.36757700  1
  O  O46  1  0.17934900  0.32873500  0.86757700  1
  O  O47  1  0.50000000  0.09367000  0.75000000  1
