# generated using pymatgen
data_Ni(PO3)2
_symmetry_space_group_name_H-M   'P 1'
_cell_length_a   11.79596400
_cell_length_b   8.32715800
_cell_length_c   9.98933171
_cell_angle_alpha   90.00000000
_cell_angle_beta   118.46461126
_cell_angle_gamma   90.00000000
_symmetry_Int_Tables_number   1
_chemical_formula_structural   Ni(PO3)2
_chemical_formula_sum   'Ni8 P16 O48'
_cell_volume   862.60251387
_cell_formula_units_Z   8
loop_
 _symmetry_equiv_pos_site_id
 _symmetry_equiv_pos_as_xyz
  1  'x, y, z'
loop_
 _atom_site_type_symbol
 _atom_site_label
 _atom_site_symmetry_multiplicity
 _atom_site_fract_x
 _atom_site_fract_y
 _atom_site_fract_z
 _atom_site_occupancy
  Ni  Ni0  1  0.50000000  0.05424300  0.75000000  1
  Ni  Ni1  1  0.00000000  0.44575700  0.25000000  1
  Ni  Ni2  1  0.25000000  0.75000000  0.00000000  1
  Ni  Ni3  1  0.25000000  0.25000000  0.50000000  1
  Ni  Ni4  1  0.00000000  0.55424300  0.75000000  1
  Ni  Ni5  1  0.50000000  0.94575700  0.25000000  1
  Ni  Ni6  1  0.75000000  0.25000000  0.00000000  1
  Ni  Ni7  1  0.75000000  0.75000000  0.50000000  1
  P  P8  1  0.99101100  0.76071100  0.02366900  1
  P  P9  1  0.00898900  0.76071100  0.47633100  1
  P  P10  1  0.50898900  0.73928900  0.97633100  1
  P  P11  1  0.49101100  0.73928900  0.52366900  1
  P  P12  1  0.80328500  0.99128800  0.80363200  1
  P  P13  1  0.19671500  0.99128800  0.69636800  1
  P  P14  1  0.69671500  0.50871200  0.19636800  1
  P  P15  1  0.30328500  0.50871200  0.30363200  1
  P  P16  1  0.49101100  0.26071100  0.02366900  1
  P  P17  1  0.50898900  0.26071100  0.47633100  1
  P  P18  1  0.00898900  0.23928900  0.97633100  1
  P  P19  1  0.99101100  0.23928900  0.52366900  1
  P  P20  1  0.30328500  0.49128800  0.80363200  1
  P  P21  1  0.69671500  0.49128800  0.69636800  1
  P  P22  1  0.19671500  0.00871200  0.19636800  1
  P  P23  1  0.80328500  0.00871200  0.30363200  1
  O  O24  1  0.53350050  0.88104650  0.90531700  1
  O  O25  1  0.46649950  0.88104650  0.59468300  1
  O  O26  1  0.96649950  0.61895350  0.09468300  1
  O  O27  1  0.03350050  0.61895350  0.40531700  1
  O  O28  1  0.54943050  0.24016150  0.91731300  1
  O  O29  1  0.95056950  0.74016150  0.58268700  1
  O  O30  1  0.95056950  0.25983850  0.08268700  1
  O  O31  1  0.54943050  0.75983850  0.41731300  1
  O  O32  1  0.70094900  0.08140000  0.82510400  1
  O  O33  1  0.29905100  0.08140000  0.67489600  1
  O  O34  1  0.79905100  0.41860000  0.17489600  1
  O  O35  1  0.20094900  0.41860000  0.32510400  1
  O  O36  1  0.92273450  0.88921750  0.34643300  1
  O  O37  1  0.07726550  0.88921750  0.15356700  1
  O  O38  1  0.57726550  0.61078250  0.65356700  1
  O  O39  1  0.42273450  0.61078250  0.84643300  1
  O  O40  1  0.35692200  0.64383200  0.43506800  1
  O  O41  1  0.14307800  0.14383200  0.06493200  1
  O  O42  1  0.14307800  0.85616800  0.56493200  1
  O  O43  1  0.35692200  0.35616800  0.93506800  1
  O  O44  1  0.26680900  0.57723700  0.15198100  1
  O  O45  1  0.23319100  0.07723700  0.34801900  1
  O  O46  1  0.23319100  0.92276300  0.84801900  1
  O  O47  1  0.26680900  0.42276300  0.65198100  1
  O  O48  1  0.03350050  0.38104650  0.90531700  1
  O  O49  1  0.96649950  0.38104650  0.59468300  1
  O  O50  1  0.46649950  0.11895350  0.09468300  1
  O  O51  1  0.53350050  0.11895350  0.40531700  1
  O  O52  1  0.04943050  0.74016150  0.91731300  1
  O  O53  1  0.45056950  0.24016150  0.58268700  1
  O  O54  1  0.45056950  0.75983850  0.08268700  1
  O  O55  1  0.04943050  0.25983850  0.41731300  1
  O  O56  1  0.20094900  0.58140000  0.82510400  1
  O  O57  1  0.79905100  0.58140000  0.67489600  1
  O  O58  1  0.29905100  0.91860000  0.17489600  1
  O  O59  1  0.70094900  0.91860000  0.32510400  1
  O  O60  1  0.42273450  0.38921750  0.34643300  1
  O  O61  1  0.57726550  0.38921750  0.15356700  1
  O  O62  1  0.07726550  0.11078250  0.65356700  1
  O  O63  1  0.92273450  0.11078250  0.84643300  1
  O  O64  1  0.85692200  0.14383200  0.43506800  1
  O  O65  1  0.64307800  0.64383200  0.06493200  1
  O  O66  1  0.64307800  0.35616800  0.56493200  1
  O  O67  1  0.85692200  0.85616800  0.93506800  1
  O  O68  1  0.76680900  0.07723700  0.15198100  1
  O  O69  1  0.73319100  0.57723700  0.34801900  1
  O  O70  1  0.73319100  0.42276300  0.84801900  1
  O  O71  1  0.76680900  0.92276300  0.65198100  1
