# generated using pymatgen
data_RbHo2Cu3S5
_symmetry_space_group_name_H-M   'P 1'
_cell_length_a   3.94309200
_cell_length_b   13.92778800
_cell_length_c   16.49585800
_cell_angle_alpha   90.00000000
_cell_angle_beta   90.00000000
_cell_angle_gamma   90.00000000
_symmetry_Int_Tables_number   1
_chemical_formula_structural   RbHo2Cu3S5
_chemical_formula_sum   'Rb4 Ho8 Cu12 S20'
_cell_volume   905.92859314
_cell_formula_units_Z   4
loop_
 _symmetry_equiv_pos_site_id
 _symmetry_equiv_pos_as_xyz
  1  'x, y, z'
loop_
 _atom_site_type_symbol
 _atom_site_label
 _atom_site_symmetry_multiplicity
 _atom_site_fract_x
 _atom_site_fract_y
 _atom_site_fract_z
 _atom_site_occupancy
  Rb  Rb0  1  0.00000000  0.43445300  0.25000000  1
  Rb  Rb1  1  0.50000000  0.06554700  0.75000000  1
  Rb  Rb2  1  0.50000000  0.93445300  0.25000000  1
  Rb  Rb3  1  0.00000000  0.56554700  0.75000000  1
  Ho  Ho4  1  0.50000000  0.19198500  0.09272800  1
  Ho  Ho5  1  0.00000000  0.30801500  0.90727200  1
  Ho  Ho6  1  0.50000000  0.19198500  0.40727200  1
  Ho  Ho7  1  0.00000000  0.30801500  0.59272800  1
  Ho  Ho8  1  0.00000000  0.69198500  0.09272800  1
  Ho  Ho9  1  0.50000000  0.80801500  0.90727200  1
  Ho  Ho10  1  0.00000000  0.69198500  0.40727200  1
  Ho  Ho11  1  0.50000000  0.80801500  0.59272800  1
  Cu  Cu12  1  0.50000000  0.41589400  0.46367800  1
  Cu  Cu13  1  0.00000000  0.08410600  0.53632200  1
  Cu  Cu14  1  0.00000000  0.08410600  0.96367800  1
  Cu  Cu15  1  0.00000000  0.15514700  0.25000000  1
  Cu  Cu16  1  0.50000000  0.34485300  0.75000000  1
  Cu  Cu17  1  0.50000000  0.41589400  0.03632200  1
  Cu  Cu18  1  0.00000000  0.91589400  0.46367800  1
  Cu  Cu19  1  0.50000000  0.58410600  0.53632200  1
  Cu  Cu20  1  0.50000000  0.58410600  0.96367800  1
  Cu  Cu21  1  0.50000000  0.65514700  0.25000000  1
  Cu  Cu22  1  0.00000000  0.84485300  0.75000000  1
  Cu  Cu23  1  0.00000000  0.91589400  0.03632200  1
  S  S24  1  0.00000000  0.33226800  0.06949000  1
  S  S25  1  0.50000000  0.16773200  0.93051000  1
  S  S26  1  0.50000000  0.16773200  0.56949000  1
  S  S27  1  0.00000000  0.33226800  0.43051000  1
  S  S28  1  0.00000000  0.26221900  0.75000000  1
  S  S29  1  0.50000000  0.23778100  0.25000000  1
  S  S30  1  0.50000000  0.43858600  0.61310800  1
  S  S31  1  0.50000000  0.43858600  0.88689200  1
  S  S32  1  0.00000000  0.06141400  0.38689200  1
  S  S33  1  0.00000000  0.06141400  0.11310800  1
  S  S34  1  0.50000000  0.83226800  0.06949000  1
  S  S35  1  0.00000000  0.66773200  0.93051000  1
  S  S36  1  0.00000000  0.66773200  0.56949000  1
  S  S37  1  0.50000000  0.83226800  0.43051000  1
  S  S38  1  0.50000000  0.76221900  0.75000000  1
  S  S39  1  0.00000000  0.73778100  0.25000000  1
  S  S40  1  0.00000000  0.93858600  0.61310800  1
  S  S41  1  0.00000000  0.93858600  0.88689200  1
  S  S42  1  0.50000000  0.56141400  0.38689200  1
  S  S43  1  0.50000000  0.56141400  0.11310800  1
