# generated using pymatgen
data_Ti2MnIn
_symmetry_space_group_name_H-M   'P 1'
_cell_length_a   6.34845600
_cell_length_b   6.34845600
_cell_length_c   6.34845600
_cell_angle_alpha   90.00000000
_cell_angle_beta   90.00000000
_cell_angle_gamma   90.00000000
_symmetry_Int_Tables_number   1
_chemical_formula_structural   Ti2MnIn
_chemical_formula_sum   'Ti8 Mn4 In4'
_cell_volume   255.86114659
_cell_formula_units_Z   4
loop_
 _symmetry_equiv_pos_site_id
 _symmetry_equiv_pos_as_xyz
  1  'x, y, z'
loop_
 _atom_site_type_symbol
 _atom_site_label
 _atom_site_symmetry_multiplicity
 _atom_site_fract_x
 _atom_site_fract_y
 _atom_site_fract_z
 _atom_site_occupancy
  Ti  Ti0  1  0.00000000  0.00000000  0.00000000  1
  Ti  Ti1  1  0.25000000  0.25000000  0.75000000  1
  Ti  Ti2  1  0.00000000  0.50000000  0.50000000  1
  Ti  Ti3  1  0.25000000  0.75000000  0.25000000  1
  Ti  Ti4  1  0.50000000  0.00000000  0.50000000  1
  Ti  Ti5  1  0.75000000  0.25000000  0.25000000  1
  Ti  Ti6  1  0.50000000  0.50000000  0.00000000  1
  Ti  Ti7  1  0.75000000  0.75000000  0.75000000  1
  Mn  Mn8  1  0.50000000  0.00000000  0.00000000  1
  Mn  Mn9  1  0.50000000  0.50000000  0.50000000  1
  Mn  Mn10  1  0.00000000  0.00000000  0.50000000  1
  Mn  Mn11  1  0.00000000  0.50000000  0.00000000  1
  In  In12  1  0.25000000  0.25000000  0.25000000  1
  In  In13  1  0.25000000  0.75000000  0.75000000  1
  In  In14  1  0.75000000  0.25000000  0.75000000  1
  In  In15  1  0.75000000  0.75000000  0.25000000  1
