# generated using pymatgen
data_TlCd(NO2)3
_symmetry_space_group_name_H-M   'P 1'
_cell_length_a   7.81246823
_cell_length_b   7.81246823
_cell_length_c   9.41518094
_cell_angle_alpha   90.00000000
_cell_angle_beta   90.00000000
_cell_angle_gamma   120.00000000
_symmetry_Int_Tables_number   1
_chemical_formula_structural   TlCd(NO2)3
_chemical_formula_sum   'Tl3 Cd3 N9 O18'
_cell_volume   497.66354764
_cell_formula_units_Z   3
loop_
 _symmetry_equiv_pos_site_id
 _symmetry_equiv_pos_as_xyz
  1  'x, y, z'
loop_
 _atom_site_type_symbol
 _atom_site_label
 _atom_site_symmetry_multiplicity
 _atom_site_fract_x
 _atom_site_fract_y
 _atom_site_fract_z
 _atom_site_occupancy
  Tl  Tl0  1  0.00000000  0.00000000  0.38455400  1
  Tl  Tl1  1  0.66666667  0.33333333  0.71788733  1
  Tl  Tl2  1  0.33333333  0.66666667  0.05122067  1
  Cd  Cd3  1  0.00000000  0.00000000  0.89830600  1
  Cd  Cd4  1  0.66666667  0.33333333  0.23163933  1
  Cd  Cd5  1  0.33333333  0.66666667  0.56497267  1
  N  N6  1  0.16407400  0.28010800  0.72255400  1
  N  N7  1  0.11603400  0.83592600  0.72255400  1
  N  N8  1  0.71989200  0.88396600  0.72255400  1
  N  N9  1  0.83074067  0.61344133  0.05588733  1
  N  N10  1  0.78270067  0.16925933  0.05588733  1
  N  N11  1  0.38655867  0.21729933  0.05588733  1
  N  N12  1  0.49740733  0.94677467  0.38922067  1
  N  N13  1  0.44936733  0.50259267  0.38922067  1
  N  N14  1  0.05322533  0.55063267  0.38922067  1
  O  O15  1  0.22004667  0.92892533  0.61708733  1
  O  O16  1  0.07107467  0.29112133  0.61708733  1
  O  O17  1  0.90144967  0.56487033  0.41429433  1
  O  O18  1  0.43512967  0.33657933  0.41429433  1
  O  O19  1  0.66342067  0.09855033  0.41429433  1
  O  O20  1  0.70887867  0.77995333  0.61708733  1
  O  O21  1  0.88671333  0.26225867  0.95042067  1
  O  O22  1  0.73774133  0.62445467  0.95042067  1
  O  O23  1  0.56811633  0.89820367  0.74762767  1
  O  O24  1  0.10179633  0.66991267  0.74762767  1
  O  O25  1  0.33008733  0.43188367  0.74762767  1
  O  O26  1  0.37554533  0.11328667  0.95042067  1
  O  O27  1  0.55338000  0.59559200  0.28375400  1
  O  O28  1  0.40440800  0.95778800  0.28375400  1
  O  O29  1  0.23478300  0.23153700  0.08096100  1
  O  O30  1  0.76846300  0.00324600  0.08096100  1
  O  O31  1  0.99675400  0.76521700  0.08096100  1
  O  O32  1  0.04221200  0.44662000  0.28375400  1
