# generated using pymatgen
data_K2WO4
_symmetry_space_group_name_H-M   'P 1'
_cell_length_a   12.60996800
_cell_length_b   6.29049400
_cell_length_c   7.69784408
_cell_angle_alpha   90.00000000
_cell_angle_beta   116.17314916
_cell_angle_gamma   90.00000000
_symmetry_Int_Tables_number   1
_chemical_formula_structural   K2WO4
_chemical_formula_sum   'K8 W4 O16'
_cell_volume   548.00617657
_cell_formula_units_Z   4
loop_
 _symmetry_equiv_pos_site_id
 _symmetry_equiv_pos_as_xyz
  1  'x, y, z'
loop_
 _atom_site_type_symbol
 _atom_site_label
 _atom_site_symmetry_multiplicity
 _atom_site_fract_x
 _atom_site_fract_y
 _atom_site_fract_z
 _atom_site_occupancy
  K  K0  1  0.49288300  0.00000000  0.76709200  1
  K  K1  1  0.00711700  0.50000000  0.23290800  1
  K  K2  1  0.34382800  0.50000000  0.25174200  1
  K  K3  1  0.15617200  0.00000000  0.74825800  1
  K  K4  1  0.99288300  0.50000000  0.76709200  1
  K  K5  1  0.50711700  0.00000000  0.23290800  1
  K  K6  1  0.84382800  0.00000000  0.25174200  1
  K  K7  1  0.65617200  0.50000000  0.74825800  1
  W  W8  1  0.32387800  0.50000000  0.77105800  1
  W  W9  1  0.17612200  0.00000000  0.22894200  1
  W  W10  1  0.82387800  0.00000000  0.77105800  1
  W  W11  1  0.67612200  0.50000000  0.22894200  1
  O  O12  1  0.35716050  0.26360550  0.92228300  1
  O  O13  1  0.14283950  0.76360550  0.07771700  1
  O  O14  1  0.14283950  0.23639450  0.07771700  1
  O  O15  1  0.35716050  0.73639450  0.92228300  1
  O  O16  1  0.08825200  0.00000000  0.36370600  1
  O  O17  1  0.41174800  0.50000000  0.63629400  1
  O  O18  1  0.16578600  0.50000000  0.61216700  1
  O  O19  1  0.33421400  0.00000000  0.38783300  1
  O  O20  1  0.85716050  0.76360550  0.92228300  1
  O  O21  1  0.64283950  0.26360550  0.07771700  1
  O  O22  1  0.64283950  0.73639450  0.07771700  1
  O  O23  1  0.85716050  0.23639450  0.92228300  1
  O  O24  1  0.58825200  0.50000000  0.36370600  1
  O  O25  1  0.91174800  0.00000000  0.63629400  1
  O  O26  1  0.66578600  0.00000000  0.61216700  1
  O  O27  1  0.83421400  0.50000000  0.38783300  1
