# generated using pymatgen
data_Cr2CdO4
_symmetry_space_group_name_H-M   'P 1'
_cell_length_a   8.77294617
_cell_length_b   8.77294617
_cell_length_c   8.77294617
_cell_angle_alpha   90.00000000
_cell_angle_beta   90.00000000
_cell_angle_gamma   90.00000000
_symmetry_Int_Tables_number   1
_chemical_formula_structural   Cr2CdO4
_chemical_formula_sum   'Cr16 Cd8 O32'
_cell_volume   675.20615667
_cell_formula_units_Z   8
loop_
 _symmetry_equiv_pos_site_id
 _symmetry_equiv_pos_as_xyz
  1  'x, y, z'
loop_
 _atom_site_type_symbol
 _atom_site_label
 _atom_site_symmetry_multiplicity
 _atom_site_fract_x
 _atom_site_fract_y
 _atom_site_fract_z
 _atom_site_occupancy
  Cr  Cr0  1  0.12500000  0.62500000  0.62500000  1
  Cr  Cr1  1  0.12500000  0.87500000  0.87500000  1
  Cr  Cr2  1  0.87500000  0.87500000  0.12500000  1
  Cr  Cr3  1  0.87500000  0.12500000  0.87500000  1
  Cr  Cr4  1  0.12500000  0.12500000  0.12500000  1
  Cr  Cr5  1  0.12500000  0.37500000  0.37500000  1
  Cr  Cr6  1  0.87500000  0.37500000  0.62500000  1
  Cr  Cr7  1  0.87500000  0.62500000  0.37500000  1
  Cr  Cr8  1  0.62500000  0.62500000  0.12500000  1
  Cr  Cr9  1  0.62500000  0.87500000  0.37500000  1
  Cr  Cr10  1  0.37500000  0.87500000  0.62500000  1
  Cr  Cr11  1  0.37500000  0.12500000  0.37500000  1
  Cr  Cr12  1  0.62500000  0.12500000  0.62500000  1
  Cr  Cr13  1  0.62500000  0.37500000  0.87500000  1
  Cr  Cr14  1  0.37500000  0.37500000  0.12500000  1
  Cr  Cr15  1  0.37500000  0.62500000  0.87500000  1
  Cd  Cd16  1  0.00000000  0.00000000  0.50000000  1
  Cd  Cd17  1  0.75000000  0.25000000  0.25000000  1
  Cd  Cd18  1  0.00000000  0.50000000  0.00000000  1
  Cd  Cd19  1  0.75000000  0.75000000  0.75000000  1
  Cd  Cd20  1  0.50000000  0.00000000  0.00000000  1
  Cd  Cd21  1  0.25000000  0.25000000  0.75000000  1
  Cd  Cd22  1  0.50000000  0.50000000  0.50000000  1
  Cd  Cd23  1  0.25000000  0.75000000  0.25000000  1
  O  O24  1  0.60654400  0.39345600  0.10654400  1
  O  O25  1  0.64345600  0.14345600  0.85654400  1
  O  O26  1  0.85654400  0.35654400  0.85654400  1
  O  O27  1  0.85654400  0.14345600  0.64345600  1
  O  O28  1  0.89345600  0.89345600  0.89345600  1
  O  O29  1  0.89345600  0.10654400  0.10654400  1
  O  O30  1  0.14345600  0.85654400  0.64345600  1
  O  O31  1  0.10654400  0.10654400  0.89345600  1
  O  O32  1  0.60654400  0.89345600  0.60654400  1
  O  O33  1  0.64345600  0.64345600  0.35654400  1
  O  O34  1  0.85654400  0.85654400  0.35654400  1
  O  O35  1  0.85654400  0.64345600  0.14345600  1
  O  O36  1  0.89345600  0.39345600  0.39345600  1
  O  O37  1  0.89345600  0.60654400  0.60654400  1
  O  O38  1  0.14345600  0.35654400  0.14345600  1
  O  O39  1  0.10654400  0.60654400  0.39345600  1
  O  O40  1  0.10654400  0.39345600  0.60654400  1
  O  O41  1  0.14345600  0.14345600  0.35654400  1
  O  O42  1  0.35654400  0.35654400  0.35654400  1
  O  O43  1  0.35654400  0.14345600  0.14345600  1
  O  O44  1  0.39345600  0.89345600  0.39345600  1
  O  O45  1  0.39345600  0.10654400  0.60654400  1
  O  O46  1  0.64345600  0.85654400  0.14345600  1
  O  O47  1  0.60654400  0.10654400  0.39345600  1
  O  O48  1  0.10654400  0.89345600  0.10654400  1
  O  O49  1  0.14345600  0.64345600  0.85654400  1
  O  O50  1  0.35654400  0.85654400  0.85654400  1
  O  O51  1  0.35654400  0.64345600  0.64345600  1
  O  O52  1  0.39345600  0.39345600  0.89345600  1
  O  O53  1  0.39345600  0.60654400  0.10654400  1
  O  O54  1  0.64345600  0.35654400  0.64345600  1
  O  O55  1  0.60654400  0.60654400  0.89345600  1
