# generated using pymatgen
data_Na2CoP2O7
_symmetry_space_group_name_H-M   'P 1'
_cell_length_a   7.87097050
_cell_length_b   7.87097050
_cell_length_c   5.14849300
_cell_angle_alpha   90.00000000
_cell_angle_beta   90.00000000
_cell_angle_gamma   90.00000000
_symmetry_Int_Tables_number   1
_chemical_formula_structural   Na2CoP2O7
_chemical_formula_sum   'Na4 Co2 P4 O14'
_cell_volume   318.96034762
_cell_formula_units_Z   2
loop_
 _symmetry_equiv_pos_site_id
 _symmetry_equiv_pos_as_xyz
  1  'x, y, z'
loop_
 _atom_site_type_symbol
 _atom_site_label
 _atom_site_symmetry_multiplicity
 _atom_site_fract_x
 _atom_site_fract_y
 _atom_site_fract_z
 _atom_site_occupancy
  Na  Na0  1  0.33287775  0.83287775  0.49064200  1
  Na  Na1  1  0.83287775  0.66712225  0.50935800  1
  Na  Na2  1  0.66712225  0.16712225  0.49064200  1
  Na  Na3  1  0.16712225  0.33287775  0.50935800  1
  Co  Co4  1  0.50000000  0.50000000  0.00000000  1
  Co  Co5  1  0.00000000  0.00000000  0.00000000  1
  P  P6  1  0.13847150  0.63847150  0.07166300  1
  P  P7  1  0.63847150  0.86152850  0.92833700  1
  P  P8  1  0.86152850  0.36152850  0.07166300  1
  P  P9  1  0.36152850  0.13847150  0.92833700  1
  O  O10  1  0.50000000  0.00000000  0.81707200  1
  O  O11  1  0.00000000  0.50000000  0.18292800  1
  O  O12  1  0.13971100  0.63971100  0.77883200  1
  O  O13  1  0.63971100  0.86028900  0.22116800  1
  O  O14  1  0.86028900  0.36028900  0.77883200  1
  O  O15  1  0.36028900  0.13971100  0.22116800  1
  O  O16  1  0.41992800  0.30428500  0.79314100  1
  O  O17  1  0.91992800  0.19571500  0.20685900  1
  O  O18  1  0.58007200  0.69571500  0.79314100  1
  O  O19  1  0.08007200  0.80428500  0.20685900  1
  O  O20  1  0.30428500  0.58007200  0.20685900  1
  O  O21  1  0.80428500  0.91992800  0.79314100  1
  O  O22  1  0.69571500  0.41992800  0.20685900  1
  O  O23  1  0.19571500  0.08007200  0.79314100  1
