# generated using pymatgen
data_ZnSnF6
_symmetry_space_group_name_H-M   'P 1'
_cell_length_a   5.33156822
_cell_length_b   5.33156822
_cell_length_c   14.09162144
_cell_angle_alpha   90.00000000
_cell_angle_beta   90.00000000
_cell_angle_gamma   120.00000000
_symmetry_Int_Tables_number   1
_chemical_formula_structural   ZnSnF6
_chemical_formula_sum   'Zn3 Sn3 F18'
_cell_volume   346.89779607
_cell_formula_units_Z   3
loop_
 _symmetry_equiv_pos_site_id
 _symmetry_equiv_pos_as_xyz
  1  'x, y, z'
loop_
 _atom_site_type_symbol
 _atom_site_label
 _atom_site_symmetry_multiplicity
 _atom_site_fract_x
 _atom_site_fract_y
 _atom_site_fract_z
 _atom_site_occupancy
  Zn  Zn0  1  0.33333333  0.66666667  0.16666667  1
  Zn  Zn1  1  1.00000000  0.00000000  0.50000000  1
  Zn  Zn2  1  0.66666667  0.33333333  0.83333333  1
  Sn  Sn3  1  0.00000000  0.00000000  0.00000000  1
  Sn  Sn4  1  0.66666667  0.33333333  0.33333333  1
  Sn  Sn5  1  0.33333333  0.66666667  0.66666667  1
  F  F6  1  0.99540833  0.38216667  0.25116167  1
  F  F7  1  0.61783333  0.61324167  0.25116167  1
  F  F8  1  0.27990833  0.32874167  0.08217167  1
  F  F9  1  0.04883333  0.72009167  0.08217167  1
  F  F10  1  0.67125833  0.95116667  0.08217167  1
  F  F11  1  0.38675833  0.00459167  0.25116167  1
  F  F12  1  0.66207500  0.71550000  0.58449500  1
  F  F13  1  0.28450000  0.94657500  0.58449500  1
  F  F14  1  0.94657500  0.66207500  0.41550500  1
  F  F15  1  0.71550000  0.05342500  0.41550500  1
  F  F16  1  0.33792500  0.28450000  0.41550500  1
  F  F17  1  0.05342500  0.33792500  0.58449500  1
  F  F18  1  0.32874167  0.04883333  0.91782833  1
  F  F19  1  0.95116667  0.27990833  0.91782833  1
  F  F20  1  0.61324167  0.99540833  0.74883833  1
  F  F21  1  0.38216667  0.38675833  0.74883833  1
  F  F22  1  0.00459167  0.61783333  0.74883833  1
  F  F23  1  0.72009167  0.67125833  0.91782833  1
