# generated using pymatgen
data_RbAg3Se2
_symmetry_space_group_name_H-M   'P 1'
_cell_length_a   16.84014200
_cell_length_b   4.45969800
_cell_length_c   9.10507470
_cell_angle_alpha   90.00000000
_cell_angle_beta   113.83414445
_cell_angle_gamma   90.00000000
_symmetry_Int_Tables_number   1
_chemical_formula_structural   RbAg3Se2
_chemical_formula_sum   'Rb4 Ag12 Se8'
_cell_volume   625.49295423
_cell_formula_units_Z   4
loop_
 _symmetry_equiv_pos_site_id
 _symmetry_equiv_pos_as_xyz
  1  'x, y, z'
loop_
 _atom_site_type_symbol
 _atom_site_label
 _atom_site_symmetry_multiplicity
 _atom_site_fract_x
 _atom_site_fract_y
 _atom_site_fract_z
 _atom_site_occupancy
  Rb  Rb0  1  0.13611300  0.00000000  0.04911800  1
  Rb  Rb1  1  0.36388700  0.50000000  0.95088200  1
  Rb  Rb2  1  0.63611300  0.50000000  0.04911800  1
  Rb  Rb3  1  0.86388700  0.00000000  0.95088200  1
  Ag  Ag4  1  0.18784100  0.50000000  0.43535200  1
  Ag  Ag5  1  0.05754800  0.00000000  0.40238900  1
  Ag  Ag6  1  0.31215900  0.00000000  0.56464800  1
  Ag  Ag7  1  0.09154000  0.50000000  0.64268700  1
  Ag  Ag8  1  0.40846000  0.00000000  0.35731300  1
  Ag  Ag9  1  0.44245200  0.50000000  0.59761100  1
  Ag  Ag10  1  0.68784100  0.00000000  0.43535200  1
  Ag  Ag11  1  0.55754800  0.50000000  0.40238900  1
  Ag  Ag12  1  0.81215900  0.50000000  0.56464800  1
  Ag  Ag13  1  0.59154000  0.00000000  0.64268700  1
  Ag  Ag14  1  0.90846000  0.50000000  0.35731300  1
  Ag  Ag15  1  0.94245200  0.00000000  0.59761100  1
  Se  Se16  1  0.01867800  0.50000000  0.21863700  1
  Se  Se17  1  0.30211800  0.50000000  0.30420700  1
  Se  Se18  1  0.19788200  0.00000000  0.69579300  1
  Se  Se19  1  0.48132200  0.00000000  0.78136300  1
  Se  Se20  1  0.51867800  0.00000000  0.21863700  1
  Se  Se21  1  0.80211800  0.00000000  0.30420700  1
  Se  Se22  1  0.69788200  0.50000000  0.69579300  1
  Se  Se23  1  0.98132200  0.50000000  0.78136300  1
