# generated using pymatgen
data_CaZn(GeO3)2
_symmetry_space_group_name_H-M   'P 1'
_cell_length_a   10.31803800
_cell_length_b   9.11141200
_cell_length_c   5.51303472
_cell_angle_alpha   90.00000000
_cell_angle_beta   105.50630453
_cell_angle_gamma   90.00000000
_symmetry_Int_Tables_number   1
_chemical_formula_structural   CaZn(GeO3)2
_chemical_formula_sum   'Ca4 Zn4 Ge8 O24'
_cell_volume   499.42559592
_cell_formula_units_Z   4
loop_
 _symmetry_equiv_pos_site_id
 _symmetry_equiv_pos_as_xyz
  1  'x, y, z'
loop_
 _atom_site_type_symbol
 _atom_site_label
 _atom_site_symmetry_multiplicity
 _atom_site_fract_x
 _atom_site_fract_y
 _atom_site_fract_z
 _atom_site_occupancy
  Ca  Ca0  1  0.00000000  0.30312700  0.25000000  1
  Ca  Ca1  1  0.00000000  0.69687300  0.75000000  1
  Ca  Ca2  1  0.50000000  0.80312700  0.25000000  1
  Ca  Ca3  1  0.50000000  0.19687300  0.75000000  1
  Zn  Zn4  1  0.00000000  0.90658900  0.25000000  1
  Zn  Zn5  1  0.00000000  0.09341100  0.75000000  1
  Zn  Zn6  1  0.50000000  0.40658900  0.25000000  1
  Zn  Zn7  1  0.50000000  0.59341100  0.75000000  1
  Ge  Ge8  1  0.78430000  0.59811900  0.22554500  1
  Ge  Ge9  1  0.21570000  0.59811900  0.27445500  1
  Ge  Ge10  1  0.21570000  0.40188100  0.77445500  1
  Ge  Ge11  1  0.78430000  0.40188100  0.72554500  1
  Ge  Ge12  1  0.28430000  0.09811900  0.22554500  1
  Ge  Ge13  1  0.71570000  0.09811900  0.27445500  1
  Ge  Ge14  1  0.71570000  0.90188100  0.77445500  1
  Ge  Ge15  1  0.28430000  0.90188100  0.72554500  1
  O  O16  1  0.85850850  0.47011450  0.48366100  1
  O  O17  1  0.14149150  0.47011450  0.01633900  1
  O  O18  1  0.14149150  0.52988550  0.51633900  1
  O  O19  1  0.85850850  0.52988550  0.98366100  1
  O  O20  1  0.86375150  0.23943250  0.84518200  1
  O  O21  1  0.13624850  0.23943250  0.65481800  1
  O  O22  1  0.13624850  0.76056750  0.15481800  1
  O  O23  1  0.86375150  0.76056750  0.34518200  1
  O  O24  1  0.60846750  0.59266950  0.13423900  1
  O  O25  1  0.39153250  0.59266950  0.36576100  1
  O  O26  1  0.39153250  0.40733050  0.86576100  1
  O  O27  1  0.60846750  0.40733050  0.63423900  1
  O  O28  1  0.35850850  0.97011450  0.48366100  1
  O  O29  1  0.64149150  0.97011450  0.01633900  1
  O  O30  1  0.64149150  0.02988550  0.51633900  1
  O  O31  1  0.35850850  0.02988550  0.98366100  1
  O  O32  1  0.36375150  0.73943250  0.84518200  1
  O  O33  1  0.63624850  0.73943250  0.65481800  1
  O  O34  1  0.63624850  0.26056750  0.15481800  1
  O  O35  1  0.36375150  0.26056750  0.34518200  1
  O  O36  1  0.10846750  0.09266950  0.13423900  1
  O  O37  1  0.89153250  0.09266950  0.36576100  1
  O  O38  1  0.89153250  0.90733050  0.86576100  1
  O  O39  1  0.10846750  0.90733050  0.63423900  1
