# generated using pymatgen
data_SrLi(B3O5)3
_symmetry_space_group_name_H-M   'P 1'
_cell_length_a   10.81957325
_cell_length_b   10.81957325
_cell_length_c   17.78419357
_cell_angle_alpha   90.00000000
_cell_angle_beta   90.00000000
_cell_angle_gamma   120.00000000
_symmetry_Int_Tables_number   1
_chemical_formula_structural   SrLi(B3O5)3
_chemical_formula_sum   'Sr6 Li6 B54 O90'
_cell_volume   1802.95576314
_cell_formula_units_Z   6
loop_
 _symmetry_equiv_pos_site_id
 _symmetry_equiv_pos_as_xyz
  1  'x, y, z'
loop_
 _atom_site_type_symbol
 _atom_site_label
 _atom_site_symmetry_multiplicity
 _atom_site_fract_x
 _atom_site_fract_y
 _atom_site_fract_z
 _atom_site_occupancy
  Sr  Sr0  1  0.33333333  0.66666667  0.15885867  1
  Sr  Sr1  1  0.33333333  0.66666667  0.65885867  1
  Sr  Sr2  1  0.00000000  0.00000000  0.49219200  1
  Sr  Sr3  1  0.00000000  0.00000000  0.99219200  1
  Sr  Sr4  1  0.66666667  0.33333333  0.82552533  1
  Sr  Sr5  1  0.66666667  0.33333333  0.32552533  1
  Li  Li6  1  0.33333333  0.66666667  0.89979967  1
  Li  Li7  1  0.33333333  0.66666667  0.39979967  1
  Li  Li8  1  0.00000000  0.00000000  0.23313300  1
  Li  Li9  1  0.00000000  0.00000000  0.73313300  1
  Li  Li10  1  0.66666667  0.33333333  0.56646633  1
  Li  Li11  1  0.66666667  0.33333333  0.06646633  1
  B  B12  1  0.60290300  0.54083300  0.16596300  1
  B  B13  1  0.00189067  0.56213233  0.27341833  1
  B  B14  1  0.66855733  0.77309167  0.10675167  1
  B  B15  1  0.22690833  0.89546567  0.10675167  1
  B  B16  1  0.12583367  0.73043033  0.99929633  1
  B  B17  1  0.26956967  0.39540333  0.99929633  1
  B  B18  1  0.60459667  0.87416633  0.99929633  1
  B  B19  1  0.56024167  0.99810933  0.27341833  1
  B  B20  1  0.93793000  0.39709700  0.16596300  1
  B  B21  1  0.45916700  0.06207000  0.16596300  1
  B  B22  1  0.72539233  0.93379067  0.21436967  1
  B  B23  1  0.06620933  0.79160167  0.21436967  1
  B  B24  1  0.20839833  0.27460767  0.21436967  1
  B  B25  1  0.54173167  0.60045733  0.38103633  1
  B  B26  1  0.39954267  0.94127433  0.38103633  1
  B  B27  1  0.05872567  0.45826833  0.38103633  1
  B  B28  1  0.43786767  0.43975833  0.27341833  1
  B  B29  1  0.10453433  0.33144267  0.10675167  1
  B  B30  1  0.26956967  0.87416633  0.49929633  1
  B  B31  1  0.66855733  0.89546567  0.60675167  1
  B  B32  1  0.33522400  0.10642500  0.44008500  1
  B  B33  1  0.89357500  0.22879900  0.44008500  1
  B  B34  1  0.79250033  0.06376367  0.33262967  1
  B  B35  1  0.93623633  0.72873667  0.33262967  1
  B  B36  1  0.27126333  0.20749967  0.33262967  1
  B  B37  1  0.22690833  0.33144267  0.60675167  1
  B  B38  1  0.60459667  0.73043033  0.49929633  1
  B  B39  1  0.12583367  0.39540333  0.49929633  1
  B  B40  1  0.39205900  0.26712400  0.54770300  1
  B  B41  1  0.73287600  0.12493500  0.54770300  1
  B  B42  1  0.87506500  0.60794100  0.54770300  1
  B  B43  1  0.20839833  0.93379067  0.71436967  1
  B  B44  1  0.06620933  0.27460767  0.71436967  1
  B  B45  1  0.72539233  0.79160167  0.71436967  1
  B  B46  1  0.10453433  0.77309167  0.60675167  1
  B  B47  1  0.77120100  0.66477600  0.44008500  1
  B  B48  1  0.93623633  0.20749967  0.83262967  1
  B  B49  1  0.33522400  0.22879900  0.94008500  1
  B  B50  1  0.00189067  0.43975833  0.77341833  1
  B  B51  1  0.56024167  0.56213233  0.77341833  1
  B  B52  1  0.45916700  0.39709700  0.66596300  1
  B  B53  1  0.60290300  0.06207000  0.66596300  1
  B  B54  1  0.93793000  0.54083300  0.66596300  1
  B  B55  1  0.89357500  0.66477600  0.94008500  1
  B  B56  1  0.27126333  0.06376367  0.83262967  1
  B  B57  1  0.79250033  0.72873667  0.83262967  1
  B  B58  1  0.05872567  0.60045733  0.88103633  1
  B  B59  1  0.39954267  0.45826833  0.88103633  1
  B  B60  1  0.54173167  0.94127433  0.88103633  1
  B  B61  1  0.87506500  0.26712400  0.04770300  1
  B  B62  1  0.73287600  0.60794100  0.04770300  1
  B  B63  1  0.39205900  0.12493500  0.04770300  1
  B  B64  1  0.77120100  0.10642500  0.94008500  1
  B  B65  1  0.43786767  0.99810933  0.77341833  1
  O  O66  1  0.56540833  0.46080067  0.22992167  1
  O  O67  1  0.53919933  0.10460767  0.22992167  1
  O  O68  1  0.34795900  0.92601500  0.15709600  1
  O  O69  1  0.57805600  0.65204100  0.15709600  1
  O  O70  1  0.89539233  0.43459167  0.22992167  1
  O  O71  1  0.74065167  0.98537433  0.99042933  1
  O  O72  1  0.24472267  0.25934833  0.99042933  1
  O  O73  1  0.01462567  0.75527733  0.99042933  1
  O  O74  1  0.10640867  0.87856733  0.15332833  1
  O  O75  1  0.77215867  0.89359133  0.15332833  1
  O  O76  1  0.12143267  0.22784133  0.15332833  1
  O  O77  1  0.45476600  0.56025800  0.31999500  1
  O  O78  1  0.10549200  0.54523400  0.31999500  1
  O  O79  1  0.43974200  0.89450800  0.31999500  1
  O  O80  1  0.56205900  0.79413400  0.06325500  1
  O  O81  1  0.20586600  0.76792500  0.06325500  1
  O  O82  1  0.59085500  0.91293100  0.22040800  1
  O  O83  1  0.08706900  0.67792400  0.22040800  1
  O  O84  1  0.32207600  0.40914500  0.22040800  1
  O  O85  1  0.98874267  0.24626433  0.05374133  1
  O  O86  1  0.75373567  0.74247833  0.05374133  1
  O  O87  1  0.25752167  0.01125733  0.05374133  1
  O  O88  1  0.15831033  0.66511267  0.94008667  1
  O  O89  1  0.33488733  0.49319767  0.94008667  1
  O  O90  1  0.50680233  0.84168967  0.94008667  1
  O  O91  1  0.50680233  0.66511267  0.44008667  1
  O  O92  1  0.33488733  0.84168967  0.44008667  1
  O  O93  1  0.15831033  0.49319767  0.44008667  1
  O  O94  1  0.07398500  0.42194400  0.15709600  1
  O  O95  1  0.23207500  0.43794100  0.06325500  1
  O  O96  1  0.23207500  0.79413400  0.56325500  1
  O  O97  1  0.20586600  0.43794100  0.56325500  1
  O  O98  1  0.01462567  0.25934833  0.49042933  1
  O  O99  1  0.24472267  0.98537433  0.49042933  1
  O  O100  1  0.56205900  0.76792500  0.56325500  1
  O  O101  1  0.40731833  0.31870767  0.32376267  1
  O  O102  1  0.91138933  0.59268167  0.32376267  1
  O  O103  1  0.68129233  0.08861067  0.32376267  1
  O  O104  1  0.77307533  0.21190067  0.48666167  1
  O  O105  1  0.43882533  0.22692467  0.48666167  1
  O  O106  1  0.78809933  0.56117467  0.48666167  1
  O  O107  1  0.12143267  0.89359133  0.65332833  1
  O  O108  1  0.77215867  0.87856733  0.65332833  1
  O  O109  1  0.10640867  0.22784133  0.65332833  1
  O  O110  1  0.22872567  0.12746733  0.39658833  1
  O  O111  1  0.87253267  0.10125833  0.39658833  1
  O  O112  1  0.25752167  0.24626433  0.55374133  1
  O  O113  1  0.75373567  0.01125733  0.55374133  1
  O  O114  1  0.98874267  0.74247833  0.55374133  1
  O  O115  1  0.65540933  0.57959767  0.38707467  1
  O  O116  1  0.42040233  0.07581167  0.38707467  1
  O  O117  1  0.92418833  0.34459067  0.38707467  1
  O  O118  1  0.82497700  0.99844600  0.27342000  1
  O  O119  1  0.00155400  0.82653100  0.27342000  1
  O  O120  1  0.17346900  0.17502300  0.27342000  1
  O  O121  1  0.17346900  0.99844600  0.77342000  1
  O  O122  1  0.00155400  0.17502300  0.77342000  1
  O  O123  1  0.82497700  0.82653100  0.77342000  1
  O  O124  1  0.74065167  0.75527733  0.49042933  1
  O  O125  1  0.89874167  0.77127433  0.39658833  1
  O  O126  1  0.89874167  0.12746733  0.89658833  1
  O  O127  1  0.87253267  0.77127433  0.89658833  1
  O  O128  1  0.68129233  0.59268167  0.82376267  1
  O  O129  1  0.91138933  0.31870767  0.82376267  1
  O  O130  1  0.22872567  0.10125833  0.89658833  1
  O  O131  1  0.07398500  0.65204100  0.65709600  1
  O  O132  1  0.57805600  0.92601500  0.65709600  1
  O  O133  1  0.34795900  0.42194400  0.65709600  1
  O  O134  1  0.43974200  0.54523400  0.81999500  1
  O  O135  1  0.10549200  0.56025800  0.81999500  1
  O  O136  1  0.45476600  0.89450800  0.81999500  1
  O  O137  1  0.78809933  0.22692467  0.98666167  1
  O  O138  1  0.43882533  0.21190067  0.98666167  1
  O  O139  1  0.77307533  0.56117467  0.98666167  1
  O  O140  1  0.89539233  0.46080067  0.72992167  1
  O  O141  1  0.53919933  0.43459167  0.72992167  1
  O  O142  1  0.92418833  0.57959767  0.88707467  1
  O  O143  1  0.42040233  0.34459067  0.88707467  1
  O  O144  1  0.65540933  0.07581167  0.88707467  1
  O  O145  1  0.32207600  0.91293100  0.72040800  1
  O  O146  1  0.08706900  0.40914500  0.72040800  1
  O  O147  1  0.59085500  0.67792400  0.72040800  1
  O  O148  1  0.49164367  0.33177933  0.60675333  1
  O  O149  1  0.66822067  0.15986433  0.60675333  1
  O  O150  1  0.84013567  0.50835633  0.60675333  1
  O  O151  1  0.84013567  0.33177933  0.10675333  1
  O  O152  1  0.66822067  0.50835633  0.10675333  1
  O  O153  1  0.49164367  0.15986433  0.10675333  1
  O  O154  1  0.40731833  0.08861067  0.82376267  1
  O  O155  1  0.56540833  0.10460767  0.72992167  1
