# generated using pymatgen
data_Er2Te3
_symmetry_space_group_name_H-M   'P 1'
_cell_length_a   8.69334600
_cell_length_b   12.25524800
_cell_length_c   25.96230800
_cell_angle_alpha   90.00000000
_cell_angle_beta   90.00000000
_cell_angle_gamma   90.00000000
_symmetry_Int_Tables_number   1
_chemical_formula_structural   Er2Te3
_chemical_formula_sum   'Er32 Te48'
_cell_volume   2766.00121850
_cell_formula_units_Z   16
loop_
 _symmetry_equiv_pos_site_id
 _symmetry_equiv_pos_as_xyz
  1  'x, y, z'
loop_
 _atom_site_type_symbol
 _atom_site_label
 _atom_site_symmetry_multiplicity
 _atom_site_fract_x
 _atom_site_fract_y
 _atom_site_fract_z
 _atom_site_occupancy
  Er  Er0  1  0.75000000  0.75000000  0.00046900  1
  Er  Er1  1  0.75000000  0.75000000  0.49953100  1
  Er  Er2  1  0.00000000  0.00000000  0.24953100  1
  Er  Er3  1  0.50000000  0.00000000  0.25046900  1
  Er  Er4  1  0.75000000  0.25000000  0.16731900  1
  Er  Er5  1  0.75000000  0.25000000  0.33268100  1
  Er  Er6  1  0.50000000  0.00000000  0.08268100  1
  Er  Er7  1  0.00000000  0.00000000  0.41731900  1
  Er  Er8  1  0.75000000  0.25000000  0.50046900  1
  Er  Er9  1  0.75000000  0.25000000  0.99953100  1
  Er  Er10  1  0.00000000  0.50000000  0.74953100  1
  Er  Er11  1  0.50000000  0.50000000  0.75046900  1
  Er  Er12  1  0.75000000  0.75000000  0.66731900  1
  Er  Er13  1  0.75000000  0.75000000  0.83268100  1
  Er  Er14  1  0.50000000  0.50000000  0.58268100  1
  Er  Er15  1  0.00000000  0.50000000  0.91731900  1
  Er  Er16  1  0.25000000  0.75000000  0.50046900  1
  Er  Er17  1  0.25000000  0.75000000  0.99953100  1
  Er  Er18  1  0.50000000  0.00000000  0.74953100  1
  Er  Er19  1  0.00000000  0.00000000  0.75046900  1
  Er  Er20  1  0.25000000  0.25000000  0.66731900  1
  Er  Er21  1  0.25000000  0.25000000  0.83268100  1
  Er  Er22  1  0.00000000  0.00000000  0.58268100  1
  Er  Er23  1  0.50000000  0.00000000  0.91731900  1
  Er  Er24  1  0.25000000  0.25000000  0.00046900  1
  Er  Er25  1  0.25000000  0.25000000  0.49953100  1
  Er  Er26  1  0.50000000  0.50000000  0.24953100  1
  Er  Er27  1  0.00000000  0.50000000  0.25046900  1
  Er  Er28  1  0.25000000  0.75000000  0.16731900  1
  Er  Er29  1  0.25000000  0.75000000  0.33268100  1
  Er  Er30  1  0.00000000  0.50000000  0.08268100  1
  Er  Er31  1  0.50000000  0.50000000  0.41731900  1
  Te  Te32  1  0.99813850  0.24963450  0.41722700  1
  Te  Te33  1  0.49813850  0.75036550  0.08277300  1
  Te  Te34  1  0.50186150  0.24963450  0.08277300  1
  Te  Te35  1  0.00186150  0.75036550  0.41722700  1
  Te  Te36  1  0.75186150  0.00036550  0.33277300  1
  Te  Te37  1  0.25186150  0.99963450  0.16722700  1
  Te  Te38  1  0.74813850  0.00036550  0.16722700  1
  Te  Te39  1  0.24813850  0.99963450  0.33277300  1
  Te  Te40  1  0.24859600  0.00000000  0.00000000  1
  Te  Te41  1  0.75140400  0.00000000  0.00000000  1
  Te  Te42  1  0.50140400  0.75000000  0.25000000  1
  Te  Te43  1  0.99859600  0.75000000  0.25000000  1
  Te  Te44  1  0.99813850  0.74963450  0.91722700  1
  Te  Te45  1  0.49813850  0.25036550  0.58277300  1
  Te  Te46  1  0.50186150  0.74963450  0.58277300  1
  Te  Te47  1  0.00186150  0.25036550  0.91722700  1
  Te  Te48  1  0.75186150  0.50036550  0.83277300  1
  Te  Te49  1  0.25186150  0.49963450  0.66722700  1
  Te  Te50  1  0.74813850  0.50036550  0.66722700  1
  Te  Te51  1  0.24813850  0.49963450  0.83277300  1
  Te  Te52  1  0.24859600  0.50000000  0.50000000  1
  Te  Te53  1  0.75140400  0.50000000  0.50000000  1
  Te  Te54  1  0.50140400  0.25000000  0.75000000  1
  Te  Te55  1  0.99859600  0.25000000  0.75000000  1
  Te  Te56  1  0.49813850  0.24963450  0.91722700  1
  Te  Te57  1  0.99813850  0.75036550  0.58277300  1
  Te  Te58  1  0.00186150  0.24963450  0.58277300  1
  Te  Te59  1  0.50186150  0.75036550  0.91722700  1
  Te  Te60  1  0.25186150  0.00036550  0.83277300  1
  Te  Te61  1  0.75186150  0.99963450  0.66722700  1
  Te  Te62  1  0.24813850  0.00036550  0.66722700  1
  Te  Te63  1  0.74813850  0.99963450  0.83277300  1
  Te  Te64  1  0.74859600  0.00000000  0.50000000  1
  Te  Te65  1  0.25140400  0.00000000  0.50000000  1
  Te  Te66  1  0.00140400  0.75000000  0.75000000  1
  Te  Te67  1  0.49859600  0.75000000  0.75000000  1
  Te  Te68  1  0.49813850  0.74963450  0.41722700  1
  Te  Te69  1  0.99813850  0.25036550  0.08277300  1
  Te  Te70  1  0.00186150  0.74963450  0.08277300  1
  Te  Te71  1  0.50186150  0.25036550  0.41722700  1
  Te  Te72  1  0.25186150  0.50036550  0.33277300  1
  Te  Te73  1  0.75186150  0.49963450  0.16722700  1
  Te  Te74  1  0.24813850  0.50036550  0.16722700  1
  Te  Te75  1  0.74813850  0.49963450  0.33277300  1
  Te  Te76  1  0.74859600  0.50000000  0.00000000  1
  Te  Te77  1  0.25140400  0.50000000  0.00000000  1
  Te  Te78  1  0.00140400  0.25000000  0.25000000  1
  Te  Te79  1  0.49859600  0.25000000  0.25000000  1
