# generated using pymatgen
data_SrSiO3
_symmetry_space_group_name_H-M   'P 1'
_cell_length_a   7.03028700
_cell_length_b   7.04131040
_cell_length_c   9.84497565
_cell_angle_alpha   69.08136420
_cell_angle_beta   83.51060119
_cell_angle_gamma   75.34288627
_symmetry_Int_Tables_number   1
_chemical_formula_structural   SrSiO3
_chemical_formula_sum   'Sr6 Si6 O18'
_cell_volume   440.27524020
_cell_formula_units_Z   6
loop_
 _symmetry_equiv_pos_site_id
 _symmetry_equiv_pos_as_xyz
  1  'x, y, z'
loop_
 _atom_site_type_symbol
 _atom_site_label
 _atom_site_symmetry_multiplicity
 _atom_site_fract_x
 _atom_site_fract_y
 _atom_site_fract_z
 _atom_site_occupancy
  Sr  Sr0  1  0.58518200  0.23574900  0.65451600  1
  Sr  Sr1  1  0.41481800  0.76425100  0.34548400  1
  Sr  Sr2  1  0.08314000  0.40557100  0.33985800  1
  Sr  Sr3  1  0.91686000  0.59442900  0.66014200  1
  Sr  Sr4  1  0.23829700  0.25240100  0.99660800  1
  Sr  Sr5  1  0.76170300  0.74759900  0.00339200  1
  Si  Si6  1  0.03984500  0.02094000  0.70586300  1
  Si  Si7  1  0.96015500  0.97906000  0.29413700  1
  Si  Si8  1  0.26904700  0.76893600  0.97815000  1
  Si  Si9  1  0.73095300  0.23106400  0.02185000  1
  Si  Si10  1  0.37917700  0.66865500  0.70607700  1
  Si  Si11  1  0.62082300  0.33134500  0.29392300  1
  O  O12  1  0.96312500  0.26336100  0.60736200  1
  O  O13  1  0.03687500  0.73663900  0.39263800  1
  O  O14  1  0.85942200  0.90236400  0.73989600  1
  O  O15  1  0.14057800  0.09763600  0.26010400  1
  O  O16  1  0.13452900  0.99451900  0.86282300  1
  O  O17  1  0.86547100  0.00548100  0.13717700  1
  O  O18  1  0.13510700  0.60171900  0.05654400  1
  O  O19  1  0.86489300  0.39828100  0.94345600  1
  O  O20  1  0.38448500  0.83596600  0.08004500  1
  O  O21  1  0.61551500  0.16403400  0.91995500  1
  O  O22  1  0.43710600  0.68792600  0.86009800  1
  O  O23  1  0.56289400  0.31207400  0.13990200  1
  O  O24  1  0.73116500  0.52022500  0.26312300  1
  O  O25  1  0.26883500  0.47977500  0.73687700  1
  O  O26  1  0.77269000  0.10027700  0.37781600  1
  O  O27  1  0.22731000  0.89972300  0.62218400  1
  O  O28  1  0.43176300  0.36571100  0.40097900  1
  O  O29  1  0.56823700  0.63428900  0.59902100  1
