# generated using pymatgen
data_TbNbO4
_symmetry_space_group_name_H-M   'P 1'
_cell_length_a   7.19284000
_cell_length_b   11.16651600
_cell_length_c   5.16582027
_cell_angle_alpha   90.00000000
_cell_angle_beta   131.96809192
_cell_angle_gamma   90.00000000
_symmetry_Int_Tables_number   1
_chemical_formula_structural   TbNbO4
_chemical_formula_sum   'Tb4 Nb4 O16'
_cell_volume   308.49525744
_cell_formula_units_Z   4
loop_
 _symmetry_equiv_pos_site_id
 _symmetry_equiv_pos_as_xyz
  1  'x, y, z'
loop_
 _atom_site_type_symbol
 _atom_site_label
 _atom_site_symmetry_multiplicity
 _atom_site_fract_x
 _atom_site_fract_y
 _atom_site_fract_z
 _atom_site_occupancy
  Tb  Tb0  1  0.50000000  0.37203300  0.25000000  1
  Tb  Tb1  1  0.00000000  0.12796700  0.75000000  1
  Tb  Tb2  1  0.00000000  0.87203300  0.25000000  1
  Tb  Tb3  1  0.50000000  0.62796700  0.75000000  1
  Nb  Nb4  1  0.00000000  0.39127400  0.25000000  1
  Nb  Nb5  1  0.50000000  0.10872600  0.75000000  1
  Nb  Nb6  1  0.50000000  0.89127400  0.25000000  1
  Nb  Nb7  1  0.00000000  0.60872600  0.75000000  1
  O  O8  1  0.34029200  0.21014500  0.84063400  1
  O  O9  1  0.65970800  0.21014500  0.65936600  1
  O  O10  1  0.15970800  0.28985500  0.15936600  1
  O  O11  1  0.84029200  0.28985500  0.34063400  1
  O  O12  1  0.74971100  0.03274300  0.20055000  1
  O  O13  1  0.25028900  0.03274300  0.29945000  1
  O  O14  1  0.75028900  0.46725700  0.79945000  1
  O  O15  1  0.24971100  0.46725700  0.70055000  1
  O  O16  1  0.84029200  0.71014500  0.84063400  1
  O  O17  1  0.15970800  0.71014500  0.65936600  1
  O  O18  1  0.65970800  0.78985500  0.15936600  1
  O  O19  1  0.34029200  0.78985500  0.34063400  1
  O  O20  1  0.24971100  0.53274300  0.20055000  1
  O  O21  1  0.75028900  0.53274300  0.29945000  1
  O  O22  1  0.25028900  0.96725700  0.79945000  1
  O  O23  1  0.74971100  0.96725700  0.70055000  1
