# generated using pymatgen
data_LiAlGeO4
_symmetry_space_group_name_H-M   'P 1'
_cell_length_a   13.95636276
_cell_length_b   13.95636276
_cell_length_c   9.31178387
_cell_angle_alpha   90.00000000
_cell_angle_beta   90.00000000
_cell_angle_gamma   120.00000000
_symmetry_Int_Tables_number   1
_chemical_formula_structural   LiAlGeO4
_chemical_formula_sum   'Li18 Al18 Ge18 O72'
_cell_volume   1570.75343211
_cell_formula_units_Z   18
loop_
 _symmetry_equiv_pos_site_id
 _symmetry_equiv_pos_as_xyz
  1  'x, y, z'
loop_
 _atom_site_type_symbol
 _atom_site_label
 _atom_site_symmetry_multiplicity
 _atom_site_fract_x
 _atom_site_fract_y
 _atom_site_fract_z
 _atom_site_occupancy
  Li  Li0  1  0.20870433  0.02020067  0.25978367  1
  Li  Li1  1  0.81149633  0.79129567  0.25978367  1
  Li  Li2  1  0.97979933  0.18850367  0.25978367  1
  Li  Li3  1  0.79129567  0.97979933  0.74021633  1
  Li  Li4  1  0.18850367  0.20870433  0.74021633  1
  Li  Li5  1  0.02020067  0.81149633  0.74021633  1
  Li  Li6  1  0.87537100  0.35353400  0.59311700  1
  Li  Li7  1  0.47816300  0.12462900  0.59311700  1
  Li  Li8  1  0.64646600  0.52183700  0.59311700  1
  Li  Li9  1  0.45796233  0.31313267  0.07354967  1
  Li  Li10  1  0.85517033  0.54203767  0.07354967  1
  Li  Li11  1  0.68686733  0.14482967  0.07354967  1
  Li  Li12  1  0.54203767  0.68686733  0.92645033  1
  Li  Li13  1  0.14482967  0.45796233  0.92645033  1
  Li  Li14  1  0.31313267  0.85517033  0.92645033  1
  Li  Li15  1  0.12462900  0.64646600  0.40688300  1
  Li  Li16  1  0.52183700  0.87537100  0.40688300  1
  Li  Li17  1  0.35353400  0.47816300  0.40688300  1
  Al  Al18  1  0.20855733  0.01242567  0.58053567  1
  Al  Al19  1  0.98757433  0.19613167  0.58053567  1
  Al  Al20  1  0.79144267  0.98757433  0.41946433  1
  Al  Al21  1  0.19613167  0.20855733  0.41946433  1
  Al  Al22  1  0.01242567  0.80386833  0.41946433  1
  Al  Al23  1  0.80386833  0.79144267  0.58053567  1
  Al  Al24  1  0.87522400  0.34575900  0.91386900  1
  Al  Al25  1  0.65424100  0.52946500  0.91386900  1
  Al  Al26  1  0.45810933  0.32090767  0.75279767  1
  Al  Al27  1  0.86279833  0.54189067  0.75279767  1
  Al  Al28  1  0.67909233  0.13720167  0.75279767  1
  Al  Al29  1  0.47053500  0.12477600  0.91386900  1
  Al  Al30  1  0.54189067  0.67909233  0.24720233  1
  Al  Al31  1  0.32090767  0.86279833  0.24720233  1
  Al  Al32  1  0.12477600  0.65424100  0.08613100  1
  Al  Al33  1  0.52946500  0.87522400  0.08613100  1
  Al  Al34  1  0.34575900  0.47053500  0.08613100  1
  Al  Al35  1  0.13720167  0.45810933  0.24720233  1
  Ge  Ge36  1  0.13805533  0.44917967  0.58240067  1
  Ge  Ge37  1  0.31112433  0.86194467  0.58240067  1
  Ge  Ge38  1  0.44917967  0.31112433  0.41759933  1
  Ge  Ge39  1  0.86194467  0.55082033  0.41759933  1
  Ge  Ge40  1  0.68887567  0.13805533  0.41759933  1
  Ge  Ge41  1  0.55082033  0.68887567  0.58240067  1
  Ge  Ge42  1  0.80472200  0.78251300  0.91573400  1
  Ge  Ge43  1  0.97779100  0.19527800  0.91573400  1
  Ge  Ge44  1  0.11584633  0.64445767  0.75093267  1
  Ge  Ge45  1  0.52861133  0.88415367  0.75093267  1
  Ge  Ge46  1  0.35554233  0.47138867  0.75093267  1
  Ge  Ge47  1  0.21748700  0.02220900  0.91573400  1
  Ge  Ge48  1  0.47138867  0.11584633  0.24906733  1
  Ge  Ge49  1  0.64445767  0.52861133  0.24906733  1
  Ge  Ge50  1  0.78251300  0.97779100  0.08426600  1
  Ge  Ge51  1  0.19527800  0.21748700  0.08426600  1
  Ge  Ge52  1  0.02220900  0.80472200  0.08426600  1
  Ge  Ge53  1  0.88415367  0.35554233  0.24906733  1
  O  O54  1  0.12176767  0.21830333  0.56314333  1
  O  O55  1  0.07270933  0.87078367  0.25007067  1
  O  O56  1  0.12921633  0.20192567  0.25007067  1
  O  O57  1  0.79807433  0.92729067  0.25007067  1
  O  O58  1  0.92729067  0.12921633  0.74992933  1
  O  O59  1  0.87078367  0.79807433  0.74992933  1
  O  O60  1  0.20192567  0.07270933  0.74992933  1
  O  O61  1  0.09653567  0.87823233  0.56314333  1
  O  O62  1  0.99442133  0.66686767  0.40665967  1
  O  O63  1  0.78169667  0.90346433  0.56314333  1
  O  O64  1  0.90346433  0.12176767  0.43685667  1
  O  O65  1  0.87823233  0.78169667  0.43685667  1
  O  O66  1  0.00557867  0.33313233  0.59334033  1
  O  O67  1  0.32755367  0.99442133  0.59334033  1
  O  O68  1  0.66686767  0.67244633  0.59334033  1
  O  O69  1  0.54376167  0.76284333  0.73596733  1
  O  O70  1  0.67244633  0.00557867  0.40665967  1
  O  O71  1  0.33313233  0.32755367  0.40665967  1
  O  O72  1  0.76284333  0.21908167  0.26403267  1
  O  O73  1  0.21908167  0.45623833  0.73596733  1
  O  O74  1  0.23715667  0.78091833  0.73596733  1
  O  O75  1  0.45623833  0.23715667  0.26403267  1
  O  O76  1  0.78091833  0.54376167  0.26403267  1
  O  O77  1  0.21830333  0.09653567  0.43685667  1
  O  O78  1  0.78843433  0.55163667  0.89647667  1
  O  O79  1  0.73937600  0.20411700  0.58340400  1
  O  O80  1  0.79588300  0.53525900  0.58340400  1
  O  O81  1  0.46474100  0.26062400  0.58340400  1
  O  O82  1  0.59395733  0.46254967  0.08326267  1
  O  O83  1  0.53745033  0.13140767  0.08326267  1
  O  O84  1  0.86859233  0.40604267  0.08326267  1
  O  O85  1  0.76320233  0.21156567  0.89647667  1
  O  O86  1  0.66108800  0.00020100  0.73999300  1
  O  O87  1  0.44836333  0.23679767  0.89647667  1
  O  O88  1  0.57013100  0.45510100  0.77019000  1
  O  O89  1  0.54489900  0.11503000  0.77019000  1
  O  O90  1  0.67224533  0.66646567  0.92667367  1
  O  O91  1  0.99422033  0.32775467  0.92667367  1
  O  O92  1  0.33353433  0.00577967  0.92667367  1
  O  O93  1  0.21042833  0.09617667  0.06930067  1
  O  O94  1  0.33911300  0.33891200  0.73999300  1
  O  O95  1  0.99979900  0.66088700  0.73999300  1
  O  O96  1  0.42951000  0.55241500  0.59736600  1
  O  O97  1  0.88574833  0.78957167  0.06930067  1
  O  O98  1  0.90382333  0.11425167  0.06930067  1
  O  O99  1  0.12290500  0.57049000  0.59736600  1
  O  O100  1  0.44758500  0.87709500  0.59736600  1
  O  O101  1  0.88497000  0.42986900  0.77019000  1
  O  O102  1  0.45510100  0.88497000  0.22981000  1
  O  O103  1  0.40604267  0.53745033  0.91673733  1
  O  O104  1  0.46254967  0.86859233  0.91673733  1
  O  O105  1  0.13140767  0.59395733  0.91673733  1
  O  O106  1  0.26062400  0.79588300  0.41659600  1
  O  O107  1  0.20411700  0.46474100  0.41659600  1
  O  O108  1  0.53525900  0.73937600  0.41659600  1
  O  O109  1  0.42986900  0.54489900  0.22981000  1
  O  O110  1  0.32775467  0.33353433  0.07332633  1
  O  O111  1  0.11503000  0.57013100  0.22981000  1
  O  O112  1  0.23679767  0.78843433  0.10352333  1
  O  O113  1  0.21156567  0.44836333  0.10352333  1
  O  O114  1  0.33891200  0.99979900  0.26000700  1
  O  O115  1  0.66088700  0.66108800  0.26000700  1
  O  O116  1  0.00020100  0.33911300  0.26000700  1
  O  O117  1  0.87709500  0.42951000  0.40263400  1
  O  O118  1  0.00577967  0.67224533  0.07332633  1
  O  O119  1  0.66646567  0.99422033  0.07332633  1
  O  O120  1  0.09617667  0.88574833  0.93069933  1
  O  O121  1  0.55241500  0.12290500  0.40263400  1
  O  O122  1  0.57049000  0.44758500  0.40263400  1
  O  O123  1  0.78957167  0.90382333  0.93069933  1
  O  O124  1  0.11425167  0.21042833  0.93069933  1
  O  O125  1  0.55163667  0.76320233  0.10352333  1
