# generated using pymatgen
data_Na3Cu2SbO6
_symmetry_space_group_name_H-M   'P 1'
_cell_length_a   5.87903400
_cell_length_b   8.94413400
_cell_length_c   5.95539517
_cell_angle_alpha   90.00000000
_cell_angle_beta   114.88060542
_cell_angle_gamma   90.00000000
_symmetry_Int_Tables_number   1
_chemical_formula_structural   Na3Cu2SbO6
_chemical_formula_sum   'Na6 Cu4 Sb2 O12'
_cell_volume   284.08704152
_cell_formula_units_Z   2
loop_
 _symmetry_equiv_pos_site_id
 _symmetry_equiv_pos_as_xyz
  1  'x, y, z'
loop_
 _atom_site_type_symbol
 _atom_site_label
 _atom_site_symmetry_multiplicity
 _atom_site_fract_x
 _atom_site_fract_y
 _atom_site_fract_z
 _atom_site_occupancy
  Na  Na0  1  0.50000000  0.67259000  0.50000000  1
  Na  Na1  1  0.50000000  0.32741000  0.50000000  1
  Na  Na2  1  0.50000000  0.00000000  0.50000000  1
  Na  Na3  1  0.00000000  0.17259000  0.50000000  1
  Na  Na4  1  0.00000000  0.82741000  0.50000000  1
  Na  Na5  1  0.00000000  0.50000000  0.50000000  1
  Cu  Cu6  1  0.50000000  0.16661900  0.00000000  1
  Cu  Cu7  1  0.50000000  0.83338100  0.00000000  1
  Cu  Cu8  1  0.00000000  0.66661900  0.00000000  1
  Cu  Cu9  1  0.00000000  0.33338100  0.00000000  1
  Sb  Sb10  1  0.00000000  0.00000000  0.00000000  1
  Sb  Sb11  1  0.50000000  0.50000000  0.00000000  1
  O  O12  1  0.19661300  0.16424800  0.22645600  1
  O  O13  1  0.25413900  0.00000000  0.83177700  1
  O  O14  1  0.74586100  0.00000000  0.16822300  1
  O  O15  1  0.19661300  0.83575200  0.22645600  1
  O  O16  1  0.80338700  0.83575200  0.77354400  1
  O  O17  1  0.80338700  0.16424800  0.77354400  1
  O  O18  1  0.69661300  0.66424800  0.22645600  1
  O  O19  1  0.75413900  0.50000000  0.83177700  1
  O  O20  1  0.24586100  0.50000000  0.16822300  1
  O  O21  1  0.69661300  0.33575200  0.22645600  1
  O  O22  1  0.30338700  0.33575200  0.77354400  1
  O  O23  1  0.30338700  0.66424800  0.77354400  1
