# generated using pymatgen
data_KCr3O8
_symmetry_space_group_name_H-M   'P 1'
_cell_length_a   8.88077387
_cell_length_b   5.53433410
_cell_length_c   7.86421119
_cell_angle_alpha   90.00000000
_cell_angle_beta   93.66083759
_cell_angle_gamma   90.00000000
_symmetry_Int_Tables_number   1
_chemical_formula_structural   KCr3O8
_chemical_formula_sum   'K2 Cr6 O16'
_cell_volume   385.73075420
_cell_formula_units_Z   2
loop_
 _symmetry_equiv_pos_site_id
 _symmetry_equiv_pos_as_xyz
  1  'x, y, z'
loop_
 _atom_site_type_symbol
 _atom_site_label
 _atom_site_symmetry_multiplicity
 _atom_site_fract_x
 _atom_site_fract_y
 _atom_site_fract_z
 _atom_site_occupancy
  K  K0  1  0.50000000  0.50000000  0.00000000  1
  K  K1  1  0.00000000  0.00000000  0.00000000  1
  Cr  Cr2  1  0.50000000  0.50000000  0.50000000  1
  Cr  Cr3  1  0.13326525  0.50000000  0.29513200  1
  Cr  Cr4  1  0.86673475  0.50000000  0.70486800  1
  Cr  Cr5  1  0.00000000  0.00000000  0.50000000  1
  Cr  Cr6  1  0.63326525  0.00000000  0.29513200  1
  Cr  Cr7  1  0.36673475  0.00000000  0.70486800  1
  O  O8  1  0.27953125  0.50000000  0.43766600  1
  O  O9  1  0.72046875  0.50000000  0.56233400  1
  O  O10  1  0.81184700  0.50000000  0.89787700  1
  O  O11  1  0.18815300  0.50000000  0.10212300  1
  O  O12  1  0.97234325  0.24888975  0.68004500  1
  O  O13  1  0.02765675  0.24888975  0.31995500  1
  O  O14  1  0.02765675  0.75111025  0.31995500  1
  O  O15  1  0.97234325  0.75111025  0.68004500  1
  O  O16  1  0.77953125  0.00000000  0.43766600  1
  O  O17  1  0.22046875  0.00000000  0.56233400  1
  O  O18  1  0.31184700  0.00000000  0.89787700  1
  O  O19  1  0.68815300  0.00000000  0.10212300  1
  O  O20  1  0.47234325  0.74888975  0.68004500  1
  O  O21  1  0.52765675  0.74888975  0.31995500  1
  O  O22  1  0.52765675  0.25111025  0.31995500  1
  O  O23  1  0.47234325  0.25111025  0.68004500  1
