# generated using pymatgen
data_Sr3SmRhO6
_symmetry_space_group_name_H-M   'P 1'
_cell_length_a   9.91677840
_cell_length_b   9.91677840
_cell_length_c   11.56001263
_cell_angle_alpha   90.00000000
_cell_angle_beta   90.00000000
_cell_angle_gamma   120.00000000
_symmetry_Int_Tables_number   1
_chemical_formula_structural   Sr3SmRhO6
_chemical_formula_sum   'Sr18 Sm6 Rh6 O36'
_cell_volume   984.53272698
_cell_formula_units_Z   6
loop_
 _symmetry_equiv_pos_site_id
 _symmetry_equiv_pos_as_xyz
  1  'x, y, z'
loop_
 _atom_site_type_symbol
 _atom_site_label
 _atom_site_symmetry_multiplicity
 _atom_site_fract_x
 _atom_site_fract_y
 _atom_site_fract_z
 _atom_site_occupancy
  Sr  Sr0  1  0.70244933  0.03578267  0.41666667  1
  Sr  Sr1  1  0.33333333  0.29755067  0.41666667  1
  Sr  Sr2  1  0.96421733  0.66666667  0.41666667  1
  Sr  Sr3  1  0.29755067  0.96421733  0.58333333  1
  Sr  Sr4  1  0.03578267  0.33333333  0.58333333  1
  Sr  Sr5  1  0.66666667  0.70244933  0.58333333  1
  Sr  Sr6  1  0.36911600  0.36911600  0.75000000  1
  Sr  Sr7  1  1.00000000  0.63088400  0.75000000  1
  Sr  Sr8  1  0.63088400  0.00000000  0.75000000  1
  Sr  Sr9  1  0.96421733  0.29755067  0.91666667  1
  Sr  Sr10  1  0.70244933  0.66666667  0.91666667  1
  Sr  Sr11  1  0.33333333  0.03578267  0.91666667  1
  Sr  Sr12  1  0.03578267  0.70244933  0.08333333  1
  Sr  Sr13  1  0.66666667  0.96421733  0.08333333  1
  Sr  Sr14  1  0.29755067  0.33333333  0.08333333  1
  Sr  Sr15  1  0.63088400  0.63088400  0.25000000  1
  Sr  Sr16  1  0.36911600  1.00000000  0.25000000  1
  Sr  Sr17  1  0.00000000  0.36911600  0.25000000  1
  Sm  Sm18  1  0.00000000  0.00000000  0.25000000  1
  Sm  Sm19  1  0.00000000  0.00000000  0.75000000  1
  Sm  Sm20  1  0.66666667  0.33333333  0.58333333  1
  Sm  Sm21  1  0.66666667  0.33333333  0.08333333  1
  Sm  Sm22  1  0.33333333  0.66666667  0.91666667  1
  Sm  Sm23  1  0.33333333  0.66666667  0.41666667  1
  Rh  Rh24  1  0.00000000  0.00000000  0.00000000  1
  Rh  Rh25  1  0.00000000  0.00000000  0.50000000  1
  Rh  Rh26  1  0.66666667  0.33333333  0.33333333  1
  Rh  Rh27  1  0.66666667  0.33333333  0.83333333  1
  Rh  Rh28  1  0.33333333  0.66666667  0.66666667  1
  Rh  Rh29  1  0.33333333  0.66666667  0.16666667  1
  O  O30  1  0.84836967  0.35688033  0.44325233  1
  O  O31  1  0.64311967  0.49148933  0.44325233  1
  O  O32  1  0.50851067  0.15163033  0.44325233  1
  O  O33  1  0.15815600  0.97645300  0.39008100  1
  O  O34  1  0.02354700  0.18170300  0.39008100  1
  O  O35  1  0.81829700  0.84184400  0.39008100  1
  O  O36  1  0.15163033  0.64311967  0.55674767  1
  O  O37  1  0.35688033  0.50851067  0.55674767  1
  O  O38  1  0.49148933  0.84836967  0.55674767  1
  O  O39  1  0.84184400  0.02354700  0.60991900  1
  O  O40  1  0.18170300  0.15815600  0.60991900  1
  O  O41  1  0.97645300  0.81829700  0.60991900  1
  O  O42  1  0.51503633  0.69021367  0.77658567  1
  O  O43  1  0.30978633  0.82482267  0.77658567  1
  O  O44  1  0.17517733  0.48496367  0.77658567  1
  O  O45  1  0.82482267  0.30978633  0.72341433  1
  O  O46  1  0.69021367  0.51503633  0.72341433  1
  O  O47  1  0.48496367  0.17517733  0.72341433  1
  O  O48  1  0.81829700  0.97645300  0.89008100  1
  O  O49  1  0.02354700  0.84184400  0.89008100  1
  O  O50  1  0.15815600  0.18170300  0.89008100  1
  O  O51  1  0.50851067  0.35688033  0.94325233  1
  O  O52  1  0.84836967  0.49148933  0.94325233  1
  O  O53  1  0.64311967  0.15163033  0.94325233  1
  O  O54  1  0.18170300  0.02354700  0.10991900  1
  O  O55  1  0.97645300  0.15815600  0.10991900  1
  O  O56  1  0.84184400  0.81829700  0.10991900  1
  O  O57  1  0.49148933  0.64311967  0.05674767  1
  O  O58  1  0.35688033  0.84836967  0.05674767  1
  O  O59  1  0.15163033  0.50851067  0.05674767  1
  O  O60  1  0.48496367  0.30978633  0.22341433  1
  O  O61  1  0.69021367  0.17517733  0.22341433  1
  O  O62  1  0.82482267  0.51503633  0.22341433  1
  O  O63  1  0.17517733  0.69021367  0.27658567  1
  O  O64  1  0.51503633  0.82482267  0.27658567  1
  O  O65  1  0.30978633  0.48496367  0.27658567  1
