# generated using pymatgen
data_K3CrO8
_symmetry_space_group_name_H-M   'P 1'
_cell_length_a   6.81943600
_cell_length_b   6.81943600
_cell_length_c   7.82530000
_cell_angle_alpha   90.00000000
_cell_angle_beta   90.00000000
_cell_angle_gamma   90.00000000
_symmetry_Int_Tables_number   1
_chemical_formula_structural   K3CrO8
_chemical_formula_sum   'K6 Cr2 O16'
_cell_volume   363.91328649
_cell_formula_units_Z   2
loop_
 _symmetry_equiv_pos_site_id
 _symmetry_equiv_pos_as_xyz
  1  'x, y, z'
loop_
 _atom_site_type_symbol
 _atom_site_label
 _atom_site_symmetry_multiplicity
 _atom_site_fract_x
 _atom_site_fract_y
 _atom_site_fract_z
 _atom_site_occupancy
  K  K0  1  0.00000000  0.50000000  0.25000000  1
  K  K1  1  0.50000000  0.00000000  0.25000000  1
  K  K2  1  0.00000000  0.00000000  0.50000000  1
  K  K3  1  0.50000000  0.00000000  0.75000000  1
  K  K4  1  0.00000000  0.50000000  0.75000000  1
  K  K5  1  0.50000000  0.50000000  0.00000000  1
  Cr  Cr6  1  0.00000000  0.00000000  0.00000000  1
  Cr  Cr7  1  0.50000000  0.50000000  0.50000000  1
  O  O8  1  0.29368600  0.70631400  0.51624800  1
  O  O9  1  0.20631400  0.20631400  0.98375200  1
  O  O10  1  0.29368600  0.29368600  0.48375200  1
  O  O11  1  0.70631400  0.29368600  0.51624800  1
  O  O12  1  0.13418600  0.86581400  0.17903600  1
  O  O13  1  0.36581400  0.36581400  0.32096400  1
  O  O14  1  0.13418600  0.13418600  0.82096400  1
  O  O15  1  0.86581400  0.13418600  0.17903600  1
  O  O16  1  0.79368600  0.20631400  0.01624800  1
  O  O17  1  0.70631400  0.70631400  0.48375200  1
  O  O18  1  0.79368600  0.79368600  0.98375200  1
  O  O19  1  0.20631400  0.79368600  0.01624800  1
  O  O20  1  0.63418600  0.36581400  0.67903600  1
  O  O21  1  0.86581400  0.86581400  0.82096400  1
  O  O22  1  0.63418600  0.63418600  0.32096400  1
  O  O23  1  0.36581400  0.63418600  0.67903600  1
