# generated using pymatgen
data_K2TeOF4
_symmetry_space_group_name_H-M   'P 1'
_cell_length_a   6.43772800
_cell_length_b   14.29507200
_cell_length_c   6.72101500
_cell_angle_alpha   90.00000000
_cell_angle_beta   90.00000000
_cell_angle_gamma   90.00000000
_symmetry_Int_Tables_number   1
_chemical_formula_structural   K2TeOF4
_chemical_formula_sum   'K8 Te4 O4 F16'
_cell_volume   618.52012526
_cell_formula_units_Z   4
loop_
 _symmetry_equiv_pos_site_id
 _symmetry_equiv_pos_as_xyz
  1  'x, y, z'
loop_
 _atom_site_type_symbol
 _atom_site_label
 _atom_site_symmetry_multiplicity
 _atom_site_fract_x
 _atom_site_fract_y
 _atom_site_fract_z
 _atom_site_occupancy
  K  K0  1  0.00000000  0.57304300  0.25000000  1
  K  K1  1  0.50000000  0.92695700  0.75000000  1
  K  K2  1  0.50000000  0.74952800  0.25000000  1
  K  K3  1  0.00000000  0.75047200  0.75000000  1
  K  K4  1  0.50000000  0.07304300  0.25000000  1
  K  K5  1  0.00000000  0.42695700  0.75000000  1
  K  K6  1  0.00000000  0.24952800  0.25000000  1
  K  K7  1  0.50000000  0.25047200  0.75000000  1
  Te  Te8  1  0.00000000  0.88997700  0.25000000  1
  Te  Te9  1  0.50000000  0.61002300  0.75000000  1
  Te  Te10  1  0.50000000  0.38997700  0.25000000  1
  Te  Te11  1  0.00000000  0.11002300  0.75000000  1
  O  O12  1  0.50000000  0.73715500  0.75000000  1
  O  O13  1  0.00000000  0.76284500  0.25000000  1
  O  O14  1  0.00000000  0.23715500  0.75000000  1
  O  O15  1  0.50000000  0.26284500  0.25000000  1
  F  F16  1  0.73528950  0.61230650  0.53258400  1
  F  F17  1  0.23528950  0.88769350  0.46741600  1
  F  F18  1  0.73528950  0.61230650  0.96741600  1
  F  F19  1  0.23528950  0.88769350  0.03258400  1
  F  F20  1  0.76471050  0.88769350  0.03258400  1
  F  F21  1  0.26471050  0.61230650  0.96741600  1
  F  F22  1  0.26471050  0.61230650  0.53258400  1
  F  F23  1  0.76471050  0.88769350  0.46741600  1
  F  F24  1  0.23528950  0.11230650  0.53258400  1
  F  F25  1  0.73528950  0.38769350  0.46741600  1
  F  F26  1  0.23528950  0.11230650  0.96741600  1
  F  F27  1  0.73528950  0.38769350  0.03258400  1
  F  F28  1  0.26471050  0.38769350  0.03258400  1
  F  F29  1  0.76471050  0.11230650  0.96741600  1
  F  F30  1  0.76471050  0.11230650  0.53258400  1
  F  F31  1  0.26471050  0.38769350  0.46741600  1
