# generated using pymatgen
data_Sr(AlS2)2
_symmetry_space_group_name_H-M   'P 1'
_cell_length_a   12.22769200
_cell_length_b   20.63597200
_cell_length_c   21.22345400
_cell_angle_alpha   90.00000000
_cell_angle_beta   90.00000000
_cell_angle_gamma   90.00000000
_symmetry_Int_Tables_number   1
_chemical_formula_structural   Sr(AlS2)2
_chemical_formula_sum   'Sr32 Al64 S128'
_cell_volume   5355.32072150
_cell_formula_units_Z   32
loop_
 _symmetry_equiv_pos_site_id
 _symmetry_equiv_pos_as_xyz
  1  'x, y, z'
loop_
 _atom_site_type_symbol
 _atom_site_label
 _atom_site_symmetry_multiplicity
 _atom_site_fract_x
 _atom_site_fract_y
 _atom_site_fract_z
 _atom_site_occupancy
  Sr  Sr0  1  0.75000000  0.25000000  0.49869400  1
  Sr  Sr1  1  0.75000000  0.25000000  0.00130600  1
  Sr  Sr2  1  0.00000000  0.00000000  0.25130600  1
  Sr  Sr3  1  0.50000000  0.00000000  0.24869400  1
  Sr  Sr4  1  0.75000000  0.25000000  0.25000000  1
  Sr  Sr5  1  0.50000000  0.00000000  0.00000000  1
  Sr  Sr6  1  0.75000000  0.75000000  0.25000000  1
  Sr  Sr7  1  0.00000000  0.00000000  0.00000000  1
  Sr  Sr8  1  0.75000000  0.75000000  0.99869400  1
  Sr  Sr9  1  0.75000000  0.75000000  0.50130600  1
  Sr  Sr10  1  0.00000000  0.50000000  0.75130600  1
  Sr  Sr11  1  0.50000000  0.50000000  0.74869400  1
  Sr  Sr12  1  0.75000000  0.75000000  0.75000000  1
  Sr  Sr13  1  0.50000000  0.50000000  0.50000000  1
  Sr  Sr14  1  0.75000000  0.25000000  0.75000000  1
  Sr  Sr15  1  0.00000000  0.50000000  0.50000000  1
  Sr  Sr16  1  0.25000000  0.25000000  0.99869400  1
  Sr  Sr17  1  0.25000000  0.25000000  0.50130600  1
  Sr  Sr18  1  0.50000000  0.00000000  0.75130600  1
  Sr  Sr19  1  0.00000000  0.00000000  0.74869400  1
  Sr  Sr20  1  0.25000000  0.25000000  0.75000000  1
  Sr  Sr21  1  0.00000000  0.00000000  0.50000000  1
  Sr  Sr22  1  0.25000000  0.75000000  0.75000000  1
  Sr  Sr23  1  0.50000000  0.00000000  0.50000000  1
  Sr  Sr24  1  0.25000000  0.75000000  0.49869400  1
  Sr  Sr25  1  0.25000000  0.75000000  0.00130600  1
  Sr  Sr26  1  0.50000000  0.50000000  0.25130600  1
  Sr  Sr27  1  0.00000000  0.50000000  0.24869400  1
  Sr  Sr28  1  0.25000000  0.75000000  0.25000000  1
  Sr  Sr29  1  0.00000000  0.50000000  0.00000000  1
  Sr  Sr30  1  0.25000000  0.25000000  0.25000000  1
  Sr  Sr31  1  0.50000000  0.50000000  0.00000000  1
  Al  Al32  1  0.00334150  0.36190800  0.37460850  1
  Al  Al33  1  0.50334150  0.63809200  0.12539150  1
  Al  Al34  1  0.49665850  0.36190800  0.12539150  1
  Al  Al35  1  0.99665850  0.63809200  0.37460850  1
  Al  Al36  1  0.74665850  0.88809200  0.37539150  1
  Al  Al37  1  0.24665850  0.11190800  0.12460850  1
  Al  Al38  1  0.75334150  0.88809200  0.12460850  1
  Al  Al39  1  0.25334150  0.11190800  0.37539150  1
  Al  Al40  1  0.95924150  0.17778200  0.37509850  1
  Al  Al41  1  0.45924150  0.82221800  0.12490150  1
  Al  Al42  1  0.54075850  0.17778200  0.12490150  1
  Al  Al43  1  0.04075850  0.82221800  0.37509850  1
  Al  Al44  1  0.79075850  0.07221800  0.37490150  1
  Al  Al45  1  0.29075850  0.92778200  0.12509850  1
  Al  Al46  1  0.70924150  0.07221800  0.12509850  1
  Al  Al47  1  0.20924150  0.92778200  0.37490150  1
  Al  Al48  1  0.00334150  0.86190800  0.87460850  1
  Al  Al49  1  0.50334150  0.13809200  0.62539150  1
  Al  Al50  1  0.49665850  0.86190800  0.62539150  1
  Al  Al51  1  0.99665850  0.13809200  0.87460850  1
  Al  Al52  1  0.74665850  0.38809200  0.87539150  1
  Al  Al53  1  0.24665850  0.61190800  0.62460850  1
  Al  Al54  1  0.75334150  0.38809200  0.62460850  1
  Al  Al55  1  0.25334150  0.61190800  0.87539150  1
  Al  Al56  1  0.95924150  0.67778200  0.87509850  1
  Al  Al57  1  0.45924150  0.32221800  0.62490150  1
  Al  Al58  1  0.54075850  0.67778200  0.62490150  1
  Al  Al59  1  0.04075850  0.32221800  0.87509850  1
  Al  Al60  1  0.79075850  0.57221800  0.87490150  1
  Al  Al61  1  0.29075850  0.42778200  0.62509850  1
  Al  Al62  1  0.70924150  0.57221800  0.62509850  1
  Al  Al63  1  0.20924150  0.42778200  0.87490150  1
  Al  Al64  1  0.50334150  0.36190800  0.87460850  1
  Al  Al65  1  0.00334150  0.63809200  0.62539150  1
  Al  Al66  1  0.99665850  0.36190800  0.62539150  1
  Al  Al67  1  0.49665850  0.63809200  0.87460850  1
  Al  Al68  1  0.24665850  0.88809200  0.87539150  1
  Al  Al69  1  0.74665850  0.11190800  0.62460850  1
  Al  Al70  1  0.25334150  0.88809200  0.62460850  1
  Al  Al71  1  0.75334150  0.11190800  0.87539150  1
  Al  Al72  1  0.45924150  0.17778200  0.87509850  1
  Al  Al73  1  0.95924150  0.82221800  0.62490150  1
  Al  Al74  1  0.04075850  0.17778200  0.62490150  1
  Al  Al75  1  0.54075850  0.82221800  0.87509850  1
  Al  Al76  1  0.29075850  0.07221800  0.87490150  1
  Al  Al77  1  0.79075850  0.92778200  0.62509850  1
  Al  Al78  1  0.20924150  0.07221800  0.62509850  1
  Al  Al79  1  0.70924150  0.92778200  0.87490150  1
  Al  Al80  1  0.50334150  0.86190800  0.37460850  1
  Al  Al81  1  0.00334150  0.13809200  0.12539150  1
  Al  Al82  1  0.99665850  0.86190800  0.12539150  1
  Al  Al83  1  0.49665850  0.13809200  0.37460850  1
  Al  Al84  1  0.24665850  0.38809200  0.37539150  1
  Al  Al85  1  0.74665850  0.61190800  0.12460850  1
  Al  Al86  1  0.25334150  0.38809200  0.12460850  1
  Al  Al87  1  0.75334150  0.61190800  0.37539150  1
  Al  Al88  1  0.45924150  0.67778200  0.37509850  1
  Al  Al89  1  0.95924150  0.32221800  0.12490150  1
  Al  Al90  1  0.04075850  0.67778200  0.12490150  1
  Al  Al91  1  0.54075850  0.32221800  0.37509850  1
  Al  Al92  1  0.29075850  0.57221800  0.37490150  1
  Al  Al93  1  0.79075850  0.42778200  0.12509850  1
  Al  Al94  1  0.20924150  0.57221800  0.12509850  1
  Al  Al95  1  0.70924150  0.42778200  0.37490150  1
  S  S96  1  0.86044850  0.80029050  0.37568700  1
  S  S97  1  0.36044850  0.19970950  0.12431300  1
  S  S98  1  0.63955150  0.80029050  0.12431300  1
  S  S99  1  0.13955150  0.19970950  0.37568700  1
  S  S100  1  0.88955150  0.44970950  0.37431300  1
  S  S101  1  0.88955150  0.05029050  0.12568700  1
  S  S102  1  0.61044850  0.44970950  0.12568700  1
  S  S103  1  0.61044850  0.05029050  0.37431300  1
  S  S104  1  0.62416600  0.62531450  0.04437250  1
  S  S105  1  0.62416600  0.87468550  0.45562750  1
  S  S106  1  0.87583400  0.62531450  0.45562750  1
  S  S107  1  0.87583400  0.87468550  0.04437250  1
  S  S108  1  0.62583400  0.62468550  0.20562750  1
  S  S109  1  0.62583400  0.87531450  0.29437250  1
  S  S110  1  0.87416600  0.62468550  0.29437250  1
  S  S111  1  0.87416600  0.87531450  0.20562750  1
  S  S112  1  0.37435200  0.87500250  0.04401250  1
  S  S113  1  0.87435200  0.12499750  0.45598750  1
  S  S114  1  0.12564800  0.87500250  0.45598750  1
  S  S115  1  0.62564800  0.12499750  0.04401250  1
  S  S116  1  0.37564800  0.87499750  0.20598750  1
  S  S117  1  0.87564800  0.12500250  0.29401250  1
  S  S118  1  0.12435200  0.87499750  0.29401250  1
  S  S119  1  0.62435200  0.12500250  0.20598750  1
  S  S120  1  0.61583350  0.22112250  0.37428500  1
  S  S121  1  0.61583350  0.27887750  0.12571500  1
  S  S122  1  0.88416650  0.22112250  0.12571500  1
  S  S123  1  0.88416650  0.27887750  0.37428500  1
  S  S124  1  0.13416650  0.02887750  0.37571500  1
  S  S125  1  0.63416650  0.97112250  0.12428500  1
  S  S126  1  0.36583350  0.02887750  0.12428500  1
  S  S127  1  0.86583350  0.97112250  0.37571500  1
  S  S128  1  0.86044850  0.30029050  0.87568700  1
  S  S129  1  0.36044850  0.69970950  0.62431300  1
  S  S130  1  0.63955150  0.30029050  0.62431300  1
  S  S131  1  0.13955150  0.69970950  0.87568700  1
  S  S132  1  0.88955150  0.94970950  0.87431300  1
  S  S133  1  0.88955150  0.55029050  0.62568700  1
  S  S134  1  0.61044850  0.94970950  0.62568700  1
  S  S135  1  0.61044850  0.55029050  0.87431300  1
  S  S136  1  0.62416600  0.12531450  0.54437250  1
  S  S137  1  0.62416600  0.37468550  0.95562750  1
  S  S138  1  0.87583400  0.12531450  0.95562750  1
  S  S139  1  0.87583400  0.37468550  0.54437250  1
  S  S140  1  0.62583400  0.12468550  0.70562750  1
  S  S141  1  0.62583400  0.37531450  0.79437250  1
  S  S142  1  0.87416600  0.12468550  0.79437250  1
  S  S143  1  0.87416600  0.37531450  0.70562750  1
  S  S144  1  0.37435200  0.37500250  0.54401250  1
  S  S145  1  0.87435200  0.62499750  0.95598750  1
  S  S146  1  0.12564800  0.37500250  0.95598750  1
  S  S147  1  0.62564800  0.62499750  0.54401250  1
  S  S148  1  0.37564800  0.37499750  0.70598750  1
  S  S149  1  0.87564800  0.62500250  0.79401250  1
  S  S150  1  0.12435200  0.37499750  0.79401250  1
  S  S151  1  0.62435200  0.62500250  0.70598750  1
  S  S152  1  0.61583350  0.72112250  0.87428500  1
  S  S153  1  0.61583350  0.77887750  0.62571500  1
  S  S154  1  0.88416650  0.72112250  0.62571500  1
  S  S155  1  0.88416650  0.77887750  0.87428500  1
  S  S156  1  0.13416650  0.52887750  0.87571500  1
  S  S157  1  0.63416650  0.47112250  0.62428500  1
  S  S158  1  0.36583350  0.52887750  0.62428500  1
  S  S159  1  0.86583350  0.47112250  0.87571500  1
  S  S160  1  0.36044850  0.80029050  0.87568700  1
  S  S161  1  0.86044850  0.19970950  0.62431300  1
  S  S162  1  0.13955150  0.80029050  0.62431300  1
  S  S163  1  0.63955150  0.19970950  0.87568700  1
  S  S164  1  0.38955150  0.44970950  0.87431300  1
  S  S165  1  0.38955150  0.05029050  0.62568700  1
  S  S166  1  0.11044850  0.44970950  0.62568700  1
  S  S167  1  0.11044850  0.05029050  0.87431300  1
  S  S168  1  0.12416600  0.62531450  0.54437250  1
  S  S169  1  0.12416600  0.87468550  0.95562750  1
  S  S170  1  0.37583400  0.62531450  0.95562750  1
  S  S171  1  0.37583400  0.87468550  0.54437250  1
  S  S172  1  0.12583400  0.62468550  0.70562750  1
  S  S173  1  0.12583400  0.87531450  0.79437250  1
  S  S174  1  0.37416600  0.62468550  0.79437250  1
  S  S175  1  0.37416600  0.87531450  0.70562750  1
  S  S176  1  0.87435200  0.87500250  0.54401250  1
  S  S177  1  0.37435200  0.12499750  0.95598750  1
  S  S178  1  0.62564800  0.87500250  0.95598750  1
  S  S179  1  0.12564800  0.12499750  0.54401250  1
  S  S180  1  0.87564800  0.87499750  0.70598750  1
  S  S181  1  0.37564800  0.12500250  0.79401250  1
  S  S182  1  0.62435200  0.87499750  0.79401250  1
  S  S183  1  0.12435200  0.12500250  0.70598750  1
  S  S184  1  0.11583350  0.22112250  0.87428500  1
  S  S185  1  0.11583350  0.27887750  0.62571500  1
  S  S186  1  0.38416650  0.22112250  0.62571500  1
  S  S187  1  0.38416650  0.27887750  0.87428500  1
  S  S188  1  0.63416650  0.02887750  0.87571500  1
  S  S189  1  0.13416650  0.97112250  0.62428500  1
  S  S190  1  0.86583350  0.02887750  0.62428500  1
  S  S191  1  0.36583350  0.97112250  0.87571500  1
  S  S192  1  0.36044850  0.30029050  0.37568700  1
  S  S193  1  0.86044850  0.69970950  0.12431300  1
  S  S194  1  0.13955150  0.30029050  0.12431300  1
  S  S195  1  0.63955150  0.69970950  0.37568700  1
  S  S196  1  0.38955150  0.94970950  0.37431300  1
  S  S197  1  0.38955150  0.55029050  0.12568700  1
  S  S198  1  0.11044850  0.94970950  0.12568700  1
  S  S199  1  0.11044850  0.55029050  0.37431300  1
  S  S200  1  0.12416600  0.12531450  0.04437250  1
  S  S201  1  0.12416600  0.37468550  0.45562750  1
  S  S202  1  0.37583400  0.12531450  0.45562750  1
  S  S203  1  0.37583400  0.37468550  0.04437250  1
  S  S204  1  0.12583400  0.12468550  0.20562750  1
  S  S205  1  0.12583400  0.37531450  0.29437250  1
  S  S206  1  0.37416600  0.12468550  0.29437250  1
  S  S207  1  0.37416600  0.37531450  0.20562750  1
  S  S208  1  0.87435200  0.37500250  0.04401250  1
  S  S209  1  0.37435200  0.62499750  0.45598750  1
  S  S210  1  0.62564800  0.37500250  0.45598750  1
  S  S211  1  0.12564800  0.62499750  0.04401250  1
  S  S212  1  0.87564800  0.37499750  0.20598750  1
  S  S213  1  0.37564800  0.62500250  0.29401250  1
  S  S214  1  0.62435200  0.37499750  0.29401250  1
  S  S215  1  0.12435200  0.62500250  0.20598750  1
  S  S216  1  0.11583350  0.72112250  0.37428500  1
  S  S217  1  0.11583350  0.77887750  0.12571500  1
  S  S218  1  0.38416650  0.72112250  0.12571500  1
  S  S219  1  0.38416650  0.77887750  0.37428500  1
  S  S220  1  0.63416650  0.52887750  0.37571500  1
  S  S221  1  0.13416650  0.47112250  0.12428500  1
  S  S222  1  0.86583350  0.52887750  0.12428500  1
  S  S223  1  0.36583350  0.47112250  0.37571500  1
