# generated using pymatgen
data_LiAsSe2
_symmetry_space_group_name_H-M   'P 1'
_cell_length_a   12.51399600
_cell_length_b   5.54657200
_cell_length_c   5.63659151
_cell_angle_alpha   90.00000000
_cell_angle_beta   112.90331314
_cell_angle_gamma   90.00000000
_symmetry_Int_Tables_number   1
_chemical_formula_structural   LiAsSe2
_chemical_formula_sum   'Li4 As4 Se8'
_cell_volume   360.39077758
_cell_formula_units_Z   4
loop_
 _symmetry_equiv_pos_site_id
 _symmetry_equiv_pos_as_xyz
  1  'x, y, z'
loop_
 _atom_site_type_symbol
 _atom_site_label
 _atom_site_symmetry_multiplicity
 _atom_site_fract_x
 _atom_site_fract_y
 _atom_site_fract_z
 _atom_site_occupancy
  Li  Li0  1  0.49994000  0.76134200  0.50252600  1
  Li  Li1  1  0.49994000  0.23865800  0.00252600  1
  Li  Li2  1  0.99994000  0.26134200  0.50252600  1
  Li  Li3  1  0.99994000  0.73865800  0.00252600  1
  As  As4  1  0.28591750  0.72282350  0.83624000  1
  As  As5  1  0.28591750  0.27717650  0.33624000  1
  As  As6  1  0.78591750  0.22282350  0.83624000  1
  As  As7  1  0.78591750  0.77717650  0.33624000  1
  Se  Se8  1  0.24324500  0.72681900  0.23739100  1
  Se  Se9  1  0.24324500  0.27318100  0.73739100  1
  Se  Se10  1  0.48947700  0.73980300  0.98913400  1
  Se  Se11  1  0.48947700  0.26019700  0.48913400  1
  Se  Se12  1  0.74324500  0.22681900  0.23739100  1
  Se  Se13  1  0.74324500  0.77318100  0.73739100  1
  Se  Se14  1  0.98947700  0.23980300  0.98913400  1
  Se  Se15  1  0.98947700  0.76019700  0.48913400  1
