# generated using pymatgen
data_SnWO4
_symmetry_space_group_name_H-M   'P 1'
_cell_length_a   7.62054900
_cell_length_b   7.62054900
_cell_length_c   7.62054900
_cell_angle_alpha   90.00000000
_cell_angle_beta   90.00000000
_cell_angle_gamma   90.00000000
_symmetry_Int_Tables_number   1
_chemical_formula_structural   SnWO4
_chemical_formula_sum   'Sn4 W4 O16'
_cell_volume   442.54636696
_cell_formula_units_Z   4
loop_
 _symmetry_equiv_pos_site_id
 _symmetry_equiv_pos_as_xyz
  1  'x, y, z'
loop_
 _atom_site_type_symbol
 _atom_site_label
 _atom_site_symmetry_multiplicity
 _atom_site_fract_x
 _atom_site_fract_y
 _atom_site_fract_z
 _atom_site_occupancy
  Sn  Sn0  1  0.81987900  0.81987900  0.81987900  1
  Sn  Sn1  1  0.68012100  0.18012100  0.31987900  1
  Sn  Sn2  1  0.31987900  0.68012100  0.18012100  1
  Sn  Sn3  1  0.18012100  0.31987900  0.68012100  1
  W  W4  1  0.16547700  0.16547700  0.16547700  1
  W  W5  1  0.33452300  0.83452300  0.66547700  1
  W  W6  1  0.66547700  0.33452300  0.83452300  1
  W  W7  1  0.83452300  0.66547700  0.33452300  1
  O  O8  1  0.64793800  0.23293600  0.04847100  1
  O  O9  1  0.14793800  0.26706400  0.95152900  1
  O  O10  1  0.35206200  0.73293600  0.45152900  1
  O  O11  1  0.26706400  0.95152900  0.14793800  1
  O  O12  1  0.45152900  0.35206200  0.73293600  1
  O  O13  1  0.95152900  0.14793800  0.26706400  1
  O  O14  1  0.23293600  0.04847100  0.64793800  1
  O  O15  1  0.04847100  0.64793800  0.23293600  1
  O  O16  1  0.29951700  0.29951700  0.29951700  1
  O  O17  1  0.20048300  0.70048300  0.79951700  1
  O  O18  1  0.79951700  0.20048300  0.70048300  1
  O  O19  1  0.70048300  0.79951700  0.20048300  1
  O  O20  1  0.85206200  0.76706400  0.54847100  1
  O  O21  1  0.54847100  0.85206200  0.76706400  1
  O  O22  1  0.76706400  0.54847100  0.85206200  1
  O  O23  1  0.73293600  0.45152900  0.35206200  1
