# generated using pymatgen
data_ErSF
_symmetry_space_group_name_H-M   'P 1'
_cell_length_a   3.74636200
_cell_length_b   3.74636200
_cell_length_c   6.82639200
_cell_angle_alpha   90.00000000
_cell_angle_beta   90.00000000
_cell_angle_gamma   90.00000000
_symmetry_Int_Tables_number   1
_chemical_formula_structural   ErSF
_chemical_formula_sum   'Er2 S2 F2'
_cell_volume   95.80996974
_cell_formula_units_Z   2
loop_
 _symmetry_equiv_pos_site_id
 _symmetry_equiv_pos_as_xyz
  1  'x, y, z'
loop_
 _atom_site_type_symbol
 _atom_site_label
 _atom_site_symmetry_multiplicity
 _atom_site_fract_x
 _atom_site_fract_y
 _atom_site_fract_z
 _atom_site_occupancy
  Er  Er0  1  0.00000000  0.50000000  0.77183600  1
  Er  Er1  1  0.50000000  0.00000000  0.22816400  1
  S  S2  1  0.50000000  0.00000000  0.64300900  1
  S  S3  1  0.00000000  0.50000000  0.35699100  1
  F  F4  1  0.50000000  0.50000000  0.00000000  1
  F  F5  1  0.00000000  0.00000000  0.00000000  1
