# generated using pymatgen
data_Sr3(FeO3)2
_symmetry_space_group_name_H-M   'P 1'
_cell_length_a   3.95835506
_cell_length_b   3.95835506
_cell_length_c   20.17574879
_cell_angle_alpha   90.00000000
_cell_angle_beta   90.00000000
_cell_angle_gamma   90.00000000
_symmetry_Int_Tables_number   1
_chemical_formula_structural   Sr3(FeO3)2
_chemical_formula_sum   'Sr6 Fe4 O12'
_cell_volume   316.12522947
_cell_formula_units_Z   2
loop_
 _symmetry_equiv_pos_site_id
 _symmetry_equiv_pos_as_xyz
  1  'x, y, z'
loop_
 _atom_site_type_symbol
 _atom_site_label
 _atom_site_symmetry_multiplicity
 _atom_site_fract_x
 _atom_site_fract_y
 _atom_site_fract_z
 _atom_site_occupancy
  Sr  Sr0  1  0.50000000  0.50000000  0.18038551  1
  Sr  Sr1  1  0.00000000  0.00000000  0.31961449  1
  Sr  Sr2  1  0.50000000  0.50000000  0.00000000  1
  Sr  Sr3  1  0.00000000  0.00000000  0.68038551  1
  Sr  Sr4  1  0.50000000  0.50000000  0.81961449  1
  Sr  Sr5  1  0.00000000  0.00000000  0.50000000  1
  Fe  Fe6  1  0.50000000  0.50000000  0.39731737  1
  Fe  Fe7  1  0.00000000  0.00000000  0.10268263  1
  Fe  Fe8  1  0.00000000  0.00000000  0.89731737  1
  Fe  Fe9  1  0.50000000  0.50000000  0.60268263  1
  O  O10  1  0.50000000  0.50000000  0.30292132  1
  O  O11  1  0.00000000  0.00000000  0.19707868  1
  O  O12  1  0.50000000  0.00000000  0.41552953  1
  O  O13  1  0.00000000  0.50000000  0.41552953  1
  O  O14  1  0.00000000  0.50000000  0.08447047  1
  O  O15  1  0.50000000  0.00000000  0.08447047  1
  O  O16  1  0.00000000  0.00000000  0.80292132  1
  O  O17  1  0.50000000  0.50000000  0.69707868  1
  O  O18  1  0.00000000  0.50000000  0.91552953  1
  O  O19  1  0.50000000  0.00000000  0.91552953  1
  O  O20  1  0.50000000  0.00000000  0.58447047  1
  O  O21  1  0.00000000  0.50000000  0.58447047  1
