# generated using pymatgen
data_Ba4Mg(SiN3)2
_symmetry_space_group_name_H-M   'P 1'
_cell_length_a   7.97278000
_cell_length_b   11.48734800
_cell_length_c   20.60383000
_cell_angle_alpha   90.00000000
_cell_angle_beta   90.00000000
_cell_angle_gamma   90.00000000
_symmetry_Int_Tables_number   1
_chemical_formula_structural   Ba4Mg(SiN3)2
_chemical_formula_sum   'Ba32 Mg8 Si16 N48'
_cell_volume   1887.02440154
_cell_formula_units_Z   8
loop_
 _symmetry_equiv_pos_site_id
 _symmetry_equiv_pos_as_xyz
  1  'x, y, z'
loop_
 _atom_site_type_symbol
 _atom_site_label
 _atom_site_symmetry_multiplicity
 _atom_site_fract_x
 _atom_site_fract_y
 _atom_site_fract_z
 _atom_site_occupancy
  Ba  Ba0  1  0.50000000  0.00000000  0.35004400  1
  Ba  Ba1  1  0.00000000  0.00000000  0.14995600  1
  Ba  Ba2  1  0.75000000  0.75000000  0.39995600  1
  Ba  Ba3  1  0.75000000  0.75000000  0.10004400  1
  Ba  Ba4  1  0.50000000  0.00000000  0.16856500  1
  Ba  Ba5  1  0.00000000  0.00000000  0.33143500  1
  Ba  Ba6  1  0.75000000  0.25000000  0.08143500  1
  Ba  Ba7  1  0.75000000  0.25000000  0.41856500  1
  Ba  Ba8  1  0.50000000  0.50000000  0.85004400  1
  Ba  Ba9  1  0.00000000  0.50000000  0.64995600  1
  Ba  Ba10  1  0.75000000  0.25000000  0.89995600  1
  Ba  Ba11  1  0.75000000  0.25000000  0.60004400  1
  Ba  Ba12  1  0.50000000  0.50000000  0.66856500  1
  Ba  Ba13  1  0.00000000  0.50000000  0.83143500  1
  Ba  Ba14  1  0.75000000  0.75000000  0.58143500  1
  Ba  Ba15  1  0.75000000  0.75000000  0.91856500  1
  Ba  Ba16  1  0.00000000  0.00000000  0.85004400  1
  Ba  Ba17  1  0.50000000  0.00000000  0.64995600  1
  Ba  Ba18  1  0.25000000  0.75000000  0.89995600  1
  Ba  Ba19  1  0.25000000  0.75000000  0.60004400  1
  Ba  Ba20  1  0.00000000  0.00000000  0.66856500  1
  Ba  Ba21  1  0.50000000  0.00000000  0.83143500  1
  Ba  Ba22  1  0.25000000  0.25000000  0.58143500  1
  Ba  Ba23  1  0.25000000  0.25000000  0.91856500  1
  Ba  Ba24  1  0.00000000  0.50000000  0.35004400  1
  Ba  Ba25  1  0.50000000  0.50000000  0.14995600  1
  Ba  Ba26  1  0.25000000  0.25000000  0.39995600  1
  Ba  Ba27  1  0.25000000  0.25000000  0.10004400  1
  Ba  Ba28  1  0.00000000  0.50000000  0.16856500  1
  Ba  Ba29  1  0.50000000  0.50000000  0.33143500  1
  Ba  Ba30  1  0.25000000  0.75000000  0.08143500  1
  Ba  Ba31  1  0.25000000  0.75000000  0.41856500  1
  Mg  Mg32  1  0.50000000  0.00000000  0.00000000  1
  Mg  Mg33  1  0.75000000  0.25000000  0.25000000  1
  Mg  Mg34  1  0.50000000  0.50000000  0.50000000  1
  Mg  Mg35  1  0.75000000  0.75000000  0.75000000  1
  Mg  Mg36  1  0.00000000  0.00000000  0.50000000  1
  Mg  Mg37  1  0.25000000  0.25000000  0.75000000  1
  Mg  Mg38  1  0.00000000  0.50000000  0.00000000  1
  Mg  Mg39  1  0.25000000  0.75000000  0.25000000  1
  Si  Si40  1  0.15783100  0.00000000  0.00000000  1
  Si  Si41  1  0.84216900  0.00000000  0.00000000  1
  Si  Si42  1  0.59216900  0.75000000  0.25000000  1
  Si  Si43  1  0.90783100  0.75000000  0.25000000  1
  Si  Si44  1  0.15783100  0.50000000  0.50000000  1
  Si  Si45  1  0.84216900  0.50000000  0.50000000  1
  Si  Si46  1  0.59216900  0.25000000  0.75000000  1
  Si  Si47  1  0.90783100  0.25000000  0.75000000  1
  Si  Si48  1  0.65783100  0.00000000  0.50000000  1
  Si  Si49  1  0.34216900  0.00000000  0.50000000  1
  Si  Si50  1  0.09216900  0.75000000  0.75000000  1
  Si  Si51  1  0.40783100  0.75000000  0.75000000  1
  Si  Si52  1  0.65783100  0.50000000  0.00000000  1
  Si  Si53  1  0.34216900  0.50000000  0.00000000  1
  Si  Si54  1  0.09216900  0.25000000  0.25000000  1
  Si  Si55  1  0.40783100  0.25000000  0.25000000  1
  N  N56  1  0.28912150  0.00433100  0.06809650  1
  N  N57  1  0.78912150  0.99566900  0.43190350  1
  N  N58  1  0.21087850  0.00433100  0.43190350  1
  N  N59  1  0.71087850  0.99566900  0.06809650  1
  N  N60  1  0.46087850  0.74566900  0.18190350  1
  N  N61  1  0.96087850  0.25433100  0.31809650  1
  N  N62  1  0.03912150  0.74566900  0.31809650  1
  N  N63  1  0.53912150  0.25433100  0.18190350  1
  N  N64  1  0.50000000  0.38503200  0.00000000  1
  N  N65  1  0.50000000  0.61496800  0.00000000  1
  N  N66  1  0.75000000  0.86496800  0.25000000  1
  N  N67  1  0.75000000  0.63503200  0.25000000  1
  N  N68  1  0.28912150  0.50433100  0.56809650  1
  N  N69  1  0.78912150  0.49566900  0.93190350  1
  N  N70  1  0.21087850  0.50433100  0.93190350  1
  N  N71  1  0.71087850  0.49566900  0.56809650  1
  N  N72  1  0.46087850  0.24566900  0.68190350  1
  N  N73  1  0.96087850  0.75433100  0.81809650  1
  N  N74  1  0.03912150  0.24566900  0.81809650  1
  N  N75  1  0.53912150  0.75433100  0.68190350  1
  N  N76  1  0.50000000  0.88503200  0.50000000  1
  N  N77  1  0.50000000  0.11496800  0.50000000  1
  N  N78  1  0.75000000  0.36496800  0.75000000  1
  N  N79  1  0.75000000  0.13503200  0.75000000  1
  N  N80  1  0.78912150  0.00433100  0.56809650  1
  N  N81  1  0.28912150  0.99566900  0.93190350  1
  N  N82  1  0.71087850  0.00433100  0.93190350  1
  N  N83  1  0.21087850  0.99566900  0.56809650  1
  N  N84  1  0.96087850  0.74566900  0.68190350  1
  N  N85  1  0.46087850  0.25433100  0.81809650  1
  N  N86  1  0.53912150  0.74566900  0.81809650  1
  N  N87  1  0.03912150  0.25433100  0.68190350  1
  N  N88  1  0.00000000  0.38503200  0.50000000  1
  N  N89  1  0.00000000  0.61496800  0.50000000  1
  N  N90  1  0.25000000  0.86496800  0.75000000  1
  N  N91  1  0.25000000  0.63503200  0.75000000  1
  N  N92  1  0.78912150  0.50433100  0.06809650  1
  N  N93  1  0.28912150  0.49566900  0.43190350  1
  N  N94  1  0.71087850  0.50433100  0.43190350  1
  N  N95  1  0.21087850  0.49566900  0.06809650  1
  N  N96  1  0.96087850  0.24566900  0.18190350  1
  N  N97  1  0.46087850  0.75433100  0.31809650  1
  N  N98  1  0.53912150  0.24566900  0.31809650  1
  N  N99  1  0.03912150  0.75433100  0.18190350  1
  N  N100  1  0.00000000  0.88503200  0.00000000  1
  N  N101  1  0.00000000  0.11496800  0.00000000  1
  N  N102  1  0.25000000  0.36496800  0.25000000  1
  N  N103  1  0.25000000  0.13503200  0.25000000  1
