# generated using pymatgen
data_Na2CuAs
_symmetry_space_group_name_H-M   'P 1'
_cell_length_a   7.18303800
_cell_length_b   8.88466200
_cell_length_c   5.32469800
_cell_angle_alpha   90.00000000
_cell_angle_beta   90.00000000
_cell_angle_gamma   90.00000000
_symmetry_Int_Tables_number   1
_chemical_formula_structural   Na2CuAs
_chemical_formula_sum   'Na8 Cu4 As4'
_cell_volume   339.81618157
_cell_formula_units_Z   4
loop_
 _symmetry_equiv_pos_site_id
 _symmetry_equiv_pos_as_xyz
  1  'x, y, z'
loop_
 _atom_site_type_symbol
 _atom_site_label
 _atom_site_symmetry_multiplicity
 _atom_site_fract_x
 _atom_site_fract_y
 _atom_site_fract_z
 _atom_site_occupancy
  Na  Na0  1  0.64635800  0.32472200  0.75000000  1
  Na  Na1  1  0.35364200  0.67527800  0.25000000  1
  Na  Na2  1  0.35364200  0.32472200  0.25000000  1
  Na  Na3  1  0.64635800  0.67527800  0.75000000  1
  Na  Na4  1  0.14635800  0.82472200  0.75000000  1
  Na  Na5  1  0.85364200  0.17527800  0.25000000  1
  Na  Na6  1  0.85364200  0.82472200  0.25000000  1
  Na  Na7  1  0.14635800  0.17527800  0.75000000  1
  Cu  Cu8  1  0.50000000  0.00000000  0.50000000  1
  Cu  Cu9  1  0.50000000  0.00000000  0.00000000  1
  Cu  Cu10  1  0.00000000  0.50000000  0.50000000  1
  Cu  Cu11  1  0.00000000  0.50000000  0.00000000  1
  As  As12  1  0.77006500  0.00000000  0.75000000  1
  As  As13  1  0.22993500  0.00000000  0.25000000  1
  As  As14  1  0.27006500  0.50000000  0.75000000  1
  As  As15  1  0.72993500  0.50000000  0.25000000  1
