# generated using pymatgen
data_Tb2Ti2S2O5
_symmetry_space_group_name_H-M   'P 1'
_cell_length_a   3.80500800
_cell_length_b   3.80500800
_cell_length_c   23.05254600
_cell_angle_alpha   90.00000000
_cell_angle_beta   90.00000000
_cell_angle_gamma   90.00000000
_symmetry_Int_Tables_number   1
_chemical_formula_structural   Tb2Ti2S2O5
_chemical_formula_sum   'Tb4 Ti4 S4 O10'
_cell_volume   333.75674074
_cell_formula_units_Z   2
loop_
 _symmetry_equiv_pos_site_id
 _symmetry_equiv_pos_as_xyz
  1  'x, y, z'
loop_
 _atom_site_type_symbol
 _atom_site_label
 _atom_site_symmetry_multiplicity
 _atom_site_fract_x
 _atom_site_fract_y
 _atom_site_fract_z
 _atom_site_occupancy
  Tb  Tb0  1  0.50000000  0.50000000  0.33334600  1
  Tb  Tb1  1  0.00000000  0.00000000  0.16665400  1
  Tb  Tb2  1  0.00000000  0.00000000  0.83334600  1
  Tb  Tb3  1  0.50000000  0.50000000  0.66665400  1
  Ti  Ti4  1  0.00000000  0.00000000  0.42127000  1
  Ti  Ti5  1  0.50000000  0.50000000  0.07873000  1
  Ti  Ti6  1  0.50000000  0.50000000  0.92127000  1
  Ti  Ti7  1  0.00000000  0.00000000  0.57873000  1
  S  S8  1  0.00000000  0.00000000  0.29494500  1
  S  S9  1  0.50000000  0.50000000  0.20505500  1
  S  S10  1  0.50000000  0.50000000  0.79494500  1
  S  S11  1  0.00000000  0.00000000  0.70505500  1
  O  O12  1  0.00000000  0.50000000  0.40058300  1
  O  O13  1  0.50000000  0.00000000  0.40058300  1
  O  O14  1  0.50000000  0.00000000  0.09941700  1
  O  O15  1  0.00000000  0.50000000  0.09941700  1
  O  O16  1  0.50000000  0.50000000  0.00000000  1
  O  O17  1  0.50000000  0.00000000  0.90058300  1
  O  O18  1  0.00000000  0.50000000  0.90058300  1
  O  O19  1  0.00000000  0.50000000  0.59941700  1
  O  O20  1  0.50000000  0.00000000  0.59941700  1
  O  O21  1  0.00000000  0.00000000  0.50000000  1
