# generated using pymatgen
data_K3MnO4
_symmetry_space_group_name_H-M   'P 1'
_cell_length_a   6.58870796
_cell_length_b   6.58870796
_cell_length_c   7.09653854
_cell_angle_alpha   90.00000000
_cell_angle_beta   90.00000000
_cell_angle_gamma   90.00000000
_symmetry_Int_Tables_number   1
_chemical_formula_structural   K3MnO4
_chemical_formula_sum   'K6 Mn2 O8'
_cell_volume   308.06834983
_cell_formula_units_Z   2
loop_
 _symmetry_equiv_pos_site_id
 _symmetry_equiv_pos_as_xyz
  1  'x, y, z'
loop_
 _atom_site_type_symbol
 _atom_site_label
 _atom_site_symmetry_multiplicity
 _atom_site_fract_x
 _atom_site_fract_y
 _atom_site_fract_z
 _atom_site_occupancy
  K  K0  1  0.00000000  0.00000000  0.50000000  1
  K  K1  1  0.00000000  0.50000000  0.25000000  1
  K  K2  1  0.50000000  0.00000000  0.25000000  1
  K  K3  1  0.50000000  0.50000000  0.00000000  1
  K  K4  1  0.50000000  0.00000000  0.75000000  1
  K  K5  1  0.00000000  0.50000000  0.75000000  1
  Mn  Mn6  1  0.00000000  0.00000000  0.00000000  1
  Mn  Mn7  1  0.50000000  0.50000000  0.50000000  1
  O  O8  1  0.65176950  0.65176950  0.36017550  1
  O  O9  1  0.84823050  0.15176950  0.13982450  1
  O  O10  1  0.65176950  0.34823050  0.63982450  1
  O  O11  1  0.34823050  0.34823050  0.36017550  1
  O  O12  1  0.15176950  0.15176950  0.86017550  1
  O  O13  1  0.34823050  0.65176950  0.63982450  1
  O  O14  1  0.15176950  0.84823050  0.13982450  1
  O  O15  1  0.84823050  0.84823050  0.86017550  1
