# generated using pymatgen
data_Mn(SbS2)2
_symmetry_space_group_name_H-M   'P 1'
_cell_length_a   12.67781600
_cell_length_b   3.82943800
_cell_length_c   15.50278892
_cell_angle_alpha   90.00000000
_cell_angle_beta   113.70485352
_cell_angle_gamma   90.00000000
_symmetry_Int_Tables_number   1
_chemical_formula_structural   Mn(SbS2)2
_chemical_formula_sum   'Mn4 Sb8 S16'
_cell_volume   689.14187840
_cell_formula_units_Z   4
loop_
 _symmetry_equiv_pos_site_id
 _symmetry_equiv_pos_as_xyz
  1  'x, y, z'
loop_
 _atom_site_type_symbol
 _atom_site_label
 _atom_site_symmetry_multiplicity
 _atom_site_fract_x
 _atom_site_fract_y
 _atom_site_fract_z
 _atom_site_occupancy
  Mn  Mn0  1  0.50000000  0.50000000  0.50000000  1
  Mn  Mn1  1  0.00000000  0.00000000  0.00000000  1
  Mn  Mn2  1  0.00000000  0.00000000  0.50000000  1
  Mn  Mn3  1  0.50000000  0.50000000  0.00000000  1
  Sb  Sb4  1  0.35403000  0.00000000  0.12663500  1
  Sb  Sb5  1  0.64597000  0.00000000  0.87336500  1
  Sb  Sb6  1  0.23155800  0.00000000  0.37581000  1
  Sb  Sb7  1  0.76844200  0.00000000  0.62419000  1
  Sb  Sb8  1  0.85403000  0.50000000  0.12663500  1
  Sb  Sb9  1  0.14597000  0.50000000  0.87336500  1
  Sb  Sb10  1  0.73155800  0.50000000  0.37581000  1
  Sb  Sb11  1  0.26844200  0.50000000  0.62419000  1
  S  S12  1  0.38654700  0.00000000  0.53945100  1
  S  S13  1  0.61345300  0.00000000  0.46054900  1
  S  S14  1  0.50580800  0.50000000  0.16329300  1
  S  S15  1  0.49419200  0.50000000  0.83670700  1
  S  S16  1  0.84526600  0.50000000  0.96265600  1
  S  S17  1  0.15473400  0.50000000  0.03734400  1
  S  S18  1  0.65819700  0.50000000  0.66669100  1
  S  S19  1  0.34180300  0.50000000  0.33330900  1
  S  S20  1  0.88654700  0.50000000  0.53945100  1
  S  S21  1  0.11345300  0.50000000  0.46054900  1
  S  S22  1  0.00580800  0.00000000  0.16329300  1
  S  S23  1  0.99419200  0.00000000  0.83670700  1
  S  S24  1  0.34526600  0.00000000  0.96265600  1
  S  S25  1  0.65473400  0.00000000  0.03734400  1
  S  S26  1  0.15819700  0.00000000  0.66669100  1
  S  S27  1  0.84180300  0.00000000  0.33330900  1
