# generated using pymatgen
data_KY2CuS4
_symmetry_space_group_name_H-M   'P 1'
_cell_length_a   3.96229200
_cell_length_b   13.53819000
_cell_length_c   13.75467700
_cell_angle_alpha   90.00000000
_cell_angle_beta   90.00000000
_cell_angle_gamma   90.00000000
_symmetry_Int_Tables_number   1
_chemical_formula_structural   KY2CuS4
_chemical_formula_sum   'K4 Y8 Cu4 S16'
_cell_volume   737.83198642
_cell_formula_units_Z   4
loop_
 _symmetry_equiv_pos_site_id
 _symmetry_equiv_pos_as_xyz
  1  'x, y, z'
loop_
 _atom_site_type_symbol
 _atom_site_label
 _atom_site_symmetry_multiplicity
 _atom_site_fract_x
 _atom_site_fract_y
 _atom_site_fract_z
 _atom_site_occupancy
  K  K0  1  0.50000000  0.39053900  0.75000000  1
  K  K1  1  0.00000000  0.10946100  0.25000000  1
  K  K2  1  0.00000000  0.89053900  0.75000000  1
  K  K3  1  0.50000000  0.60946100  0.25000000  1
  Y  Y4  1  0.00000000  0.36571400  0.43698300  1
  Y  Y5  1  0.50000000  0.13428600  0.93698300  1
  Y  Y6  1  0.00000000  0.36571400  0.06301700  1
  Y  Y7  1  0.50000000  0.13428600  0.56301700  1
  Y  Y8  1  0.50000000  0.86571400  0.43698300  1
  Y  Y9  1  0.00000000  0.63428600  0.93698300  1
  Y  Y10  1  0.50000000  0.86571400  0.06301700  1
  Y  Y11  1  0.00000000  0.63428600  0.56301700  1
  Cu  Cu12  1  0.50000000  0.33744900  0.25000000  1
  Cu  Cu13  1  0.00000000  0.16255100  0.75000000  1
  Cu  Cu14  1  0.00000000  0.83744900  0.25000000  1
  Cu  Cu15  1  0.50000000  0.66255100  0.75000000  1
  S  S16  1  0.00000000  0.00000000  0.00000000  1
  S  S17  1  0.00000000  0.00000000  0.50000000  1
  S  S18  1  0.00000000  0.26274300  0.61119800  1
  S  S19  1  0.50000000  0.23725700  0.38880200  1
  S  S20  1  0.00000000  0.43098900  0.25000000  1
  S  S21  1  0.00000000  0.26274300  0.88880200  1
  S  S22  1  0.50000000  0.06901100  0.75000000  1
  S  S23  1  0.50000000  0.23725700  0.11119800  1
  S  S24  1  0.50000000  0.50000000  0.00000000  1
  S  S25  1  0.50000000  0.50000000  0.50000000  1
  S  S26  1  0.50000000  0.76274300  0.61119800  1
  S  S27  1  0.00000000  0.73725700  0.38880200  1
  S  S28  1  0.50000000  0.93098900  0.25000000  1
  S  S29  1  0.50000000  0.76274300  0.88880200  1
  S  S30  1  0.00000000  0.56901100  0.75000000  1
  S  S31  1  0.00000000  0.73725700  0.11119800  1
