# generated using pymatgen
data_Tb2O3
_symmetry_space_group_name_H-M   'P 1'
_cell_length_a   10.74411200
_cell_length_b   10.74411200
_cell_length_c   10.74411200
_cell_angle_alpha   90.00000000
_cell_angle_beta   90.00000000
_cell_angle_gamma   90.00000000
_symmetry_Int_Tables_number   1
_chemical_formula_structural   Tb2O3
_chemical_formula_sum   'Tb32 O48'
_cell_volume   1240.25669686
_cell_formula_units_Z   16
loop_
 _symmetry_equiv_pos_site_id
 _symmetry_equiv_pos_as_xyz
  1  'x, y, z'
loop_
 _atom_site_type_symbol
 _atom_site_label
 _atom_site_symmetry_multiplicity
 _atom_site_fract_x
 _atom_site_fract_y
 _atom_site_fract_z
 _atom_site_occupancy
  Tb  Tb0  1  0.00000000  0.75000000  0.03223300  1
  Tb  Tb1  1  0.46776700  0.00000000  0.25000000  1
  Tb  Tb2  1  0.25000000  0.46776700  0.00000000  1
  Tb  Tb3  1  0.03223300  0.00000000  0.75000000  1
  Tb  Tb4  1  0.75000000  0.03223300  0.00000000  1
  Tb  Tb5  1  0.00000000  0.25000000  0.46776700  1
  Tb  Tb6  1  0.50000000  0.25000000  0.03223300  1
  Tb  Tb7  1  0.46776700  0.50000000  0.75000000  1
  Tb  Tb8  1  0.75000000  0.46776700  0.50000000  1
  Tb  Tb9  1  0.03223300  0.50000000  0.25000000  1
  Tb  Tb10  1  0.25000000  0.03223300  0.50000000  1
  Tb  Tb11  1  0.50000000  0.75000000  0.46776700  1
  Tb  Tb12  1  0.75000000  0.25000000  0.25000000  1
  Tb  Tb13  1  0.25000000  0.25000000  0.75000000  1
  Tb  Tb14  1  0.25000000  0.75000000  0.25000000  1
  Tb  Tb15  1  0.25000000  0.25000000  0.25000000  1
  Tb  Tb16  1  0.50000000  0.25000000  0.53223300  1
  Tb  Tb17  1  0.96776700  0.50000000  0.75000000  1
  Tb  Tb18  1  0.75000000  0.96776700  0.50000000  1
  Tb  Tb19  1  0.53223300  0.50000000  0.25000000  1
  Tb  Tb20  1  0.25000000  0.53223300  0.50000000  1
  Tb  Tb21  1  0.50000000  0.75000000  0.96776700  1
  Tb  Tb22  1  0.00000000  0.75000000  0.53223300  1
  Tb  Tb23  1  0.96776700  0.00000000  0.25000000  1
  Tb  Tb24  1  0.25000000  0.96776700  0.00000000  1
  Tb  Tb25  1  0.53223300  0.00000000  0.75000000  1
  Tb  Tb26  1  0.75000000  0.53223300  0.00000000  1
  Tb  Tb27  1  0.00000000  0.25000000  0.96776700  1
  Tb  Tb28  1  0.25000000  0.75000000  0.75000000  1
  Tb  Tb29  1  0.75000000  0.75000000  0.25000000  1
  Tb  Tb30  1  0.75000000  0.25000000  0.75000000  1
  Tb  Tb31  1  0.75000000  0.75000000  0.75000000  1
  O  O32  1  0.62064650  0.10901450  0.15109850  1
  O  O33  1  0.37935350  0.60901450  0.34890150  1
  O  O34  1  0.62064650  0.89098550  0.34890150  1
  O  O35  1  0.39098550  0.15109850  0.37935350  1
  O  O36  1  0.15109850  0.37935350  0.39098550  1
  O  O37  1  0.15109850  0.62064650  0.10901450  1
  O  O38  1  0.60901450  0.34890150  0.37935350  1
  O  O39  1  0.34890150  0.62064650  0.89098550  1
  O  O40  1  0.10901450  0.15109850  0.62064650  1
  O  O41  1  0.34890150  0.37935350  0.60901450  1
  O  O42  1  0.89098550  0.34890150  0.62064650  1
  O  O43  1  0.37935350  0.39098550  0.15109850  1
  O  O44  1  0.89098550  0.15109850  0.12064650  1
  O  O45  1  0.60901450  0.15109850  0.87935350  1
  O  O46  1  0.39098550  0.34890150  0.87935350  1
  O  O47  1  0.34890150  0.12064650  0.10901450  1
  O  O48  1  0.10901450  0.34890150  0.12064650  1
  O  O49  1  0.34890150  0.87935350  0.39098550  1
  O  O50  1  0.87935350  0.60901450  0.15109850  1
  O  O51  1  0.15109850  0.12064650  0.89098550  1
  O  O52  1  0.87935350  0.39098550  0.34890150  1
  O  O53  1  0.15109850  0.87935350  0.60901450  1
  O  O54  1  0.12064650  0.89098550  0.15109850  1
  O  O55  1  0.12064650  0.10901450  0.34890150  1
  O  O56  1  0.12064650  0.60901450  0.65109850  1
  O  O57  1  0.87935350  0.10901450  0.84890150  1
  O  O58  1  0.12064650  0.39098550  0.84890150  1
  O  O59  1  0.89098550  0.65109850  0.87935350  1
  O  O60  1  0.65109850  0.87935350  0.89098550  1
  O  O61  1  0.65109850  0.12064650  0.60901450  1
  O  O62  1  0.10901450  0.84890150  0.87935350  1
  O  O63  1  0.84890150  0.12064650  0.39098550  1
  O  O64  1  0.60901450  0.65109850  0.12064650  1
  O  O65  1  0.84890150  0.87935350  0.10901450  1
  O  O66  1  0.39098550  0.84890150  0.12064650  1
  O  O67  1  0.87935350  0.89098550  0.65109850  1
  O  O68  1  0.39098550  0.65109850  0.62064650  1
  O  O69  1  0.10901450  0.65109850  0.37935350  1
  O  O70  1  0.89098550  0.84890150  0.37935350  1
  O  O71  1  0.84890150  0.62064650  0.60901450  1
  O  O72  1  0.60901450  0.84890150  0.62064650  1
  O  O73  1  0.84890150  0.37935350  0.89098550  1
  O  O74  1  0.37935350  0.10901450  0.65109850  1
  O  O75  1  0.65109850  0.62064650  0.39098550  1
  O  O76  1  0.37935350  0.89098550  0.84890150  1
  O  O77  1  0.65109850  0.37935350  0.10901450  1
  O  O78  1  0.62064650  0.39098550  0.65109850  1
  O  O79  1  0.62064650  0.60901450  0.84890150  1
