# generated using pymatgen
data_Ba3Er4O9
_symmetry_space_group_name_H-M   'P 1'
_cell_length_a   6.10317586
_cell_length_b   6.10317586
_cell_length_c   25.39343663
_cell_angle_alpha   90.00000000
_cell_angle_beta   90.00000000
_cell_angle_gamma   120.00000000
_symmetry_Int_Tables_number   1
_chemical_formula_structural   Ba3Er4O9
_chemical_formula_sum   'Ba9 Er12 O27'
_cell_volume   819.15083837
_cell_formula_units_Z   3
loop_
 _symmetry_equiv_pos_site_id
 _symmetry_equiv_pos_as_xyz
  1  'x, y, z'
loop_
 _atom_site_type_symbol
 _atom_site_label
 _atom_site_symmetry_multiplicity
 _atom_site_fract_x
 _atom_site_fract_y
 _atom_site_fract_z
 _atom_site_occupancy
  Ba  Ba0  1  0.66666667  0.33333333  0.33318533  1
  Ba  Ba1  1  0.66666667  0.33333333  0.16815333  1
  Ba  Ba2  1  0.33333333  0.66666667  0.08821967  1
  Ba  Ba3  1  0.33333333  0.66666667  0.66651867  1
  Ba  Ba4  1  0.33333333  0.66666667  0.50148667  1
  Ba  Ba5  1  0.00000000  0.00000000  0.42155300  1
  Ba  Ba6  1  0.00000000  0.00000000  0.99985200  1
  Ba  Ba7  1  0.00000000  0.00000000  0.83482000  1
  Ba  Ba8  1  0.66666667  0.33333333  0.75488633  1
  Er  Er9  1  0.33333333  0.66666667  0.24048767  1
  Er  Er10  1  0.00000000  0.00000000  0.13516400  1
  Er  Er11  1  0.00000000  0.00000000  0.26062200  1
  Er  Er12  1  0.66666667  0.33333333  0.03209633  1
  Er  Er13  1  0.00000000  0.00000000  0.57382100  1
  Er  Er14  1  0.66666667  0.33333333  0.46849733  1
  Er  Er15  1  0.66666667  0.33333333  0.59395533  1
  Er  Er16  1  0.33333333  0.66666667  0.36542967  1
  Er  Er17  1  0.66666667  0.33333333  0.90715433  1
  Er  Er18  1  0.33333333  0.66666667  0.80183067  1
  Er  Er19  1  0.33333333  0.66666667  0.92728867  1
  Er  Er20  1  0.00000000  0.00000000  0.69876300  1
  O  O21  1  0.11619133  0.76807267  0.30575167  1
  O  O22  1  0.65188133  0.88380867  0.30575167  1
  O  O23  1  0.23192733  0.34811867  0.30575167  1
  O  O24  1  0.11160433  0.79040267  0.19350367  1
  O  O25  1  0.67879833  0.88839567  0.19350367  1
  O  O26  1  0.20959733  0.32120167  0.19350367  1
  O  O27  1  0.33449100  0.11063300  0.08381300  1
  O  O28  1  0.88936700  0.22385800  0.08381300  1
  O  O29  1  0.77614200  0.66550900  0.08381300  1
  O  O30  1  0.78285800  0.10140600  0.63908500  1
  O  O31  1  0.31854800  0.21714200  0.63908500  1
  O  O32  1  0.89859400  0.68145200  0.63908500  1
  O  O33  1  0.77827100  0.12373600  0.52683700  1
  O  O34  1  0.34546500  0.22172900  0.52683700  1
  O  O35  1  0.87626400  0.65453500  0.52683700  1
  O  O36  1  0.00115767  0.44396633  0.41714633  1
  O  O37  1  0.55603367  0.55719133  0.41714633  1
  O  O38  1  0.44280867  0.99884233  0.41714633  1
  O  O39  1  0.44952467  0.43473933  0.97241833  1
  O  O40  1  0.98521467  0.55047533  0.97241833  1
  O  O41  1  0.56526067  0.01478533  0.97241833  1
  O  O42  1  0.44493767  0.45706933  0.86017033  1
  O  O43  1  0.01213167  0.55506233  0.86017033  1
  O  O44  1  0.54293067  0.98786833  0.86017033  1
  O  O45  1  0.66782433  0.77729967  0.75047967  1
  O  O46  1  0.22270033  0.89052467  0.75047967  1
  O  O47  1  0.10947533  0.33217567  0.75047967  1
