# generated using pymatgen
data_NaSmSiO4
_symmetry_space_group_name_H-M   'P 1'
_cell_length_a   11.92230000
_cell_length_b   11.92230000
_cell_length_c   5.39335200
_cell_angle_alpha   90.00000000
_cell_angle_beta   90.00000000
_cell_angle_gamma   90.00000000
_symmetry_Int_Tables_number   1
_chemical_formula_structural   NaSmSiO4
_chemical_formula_sum   'Na8 Sm8 Si8 O32'
_cell_volume   766.61772642
_cell_formula_units_Z   8
loop_
 _symmetry_equiv_pos_site_id
 _symmetry_equiv_pos_as_xyz
  1  'x, y, z'
loop_
 _atom_site_type_symbol
 _atom_site_label
 _atom_site_symmetry_multiplicity
 _atom_site_fract_x
 _atom_site_fract_y
 _atom_site_fract_z
 _atom_site_occupancy
  Na  Na0  1  0.60700500  0.08689600  0.00000000  1
  Na  Na1  1  0.58689600  0.89299500  0.50000000  1
  Na  Na2  1  0.41310400  0.10700500  0.50000000  1
  Na  Na3  1  0.39299500  0.91310400  0.00000000  1
  Na  Na4  1  0.10700500  0.58689600  0.50000000  1
  Na  Na5  1  0.08689600  0.39299500  0.00000000  1
  Na  Na6  1  0.91310400  0.60700500  0.00000000  1
  Na  Na7  1  0.89299500  0.41310400  0.50000000  1
  Sm  Sm8  1  0.62158400  0.30878700  0.50000000  1
  Sm  Sm9  1  0.80878700  0.87841600  0.00000000  1
  Sm  Sm10  1  0.37841600  0.69121300  0.50000000  1
  Sm  Sm11  1  0.19121300  0.12158400  0.00000000  1
  Sm  Sm12  1  0.12158400  0.80878700  0.00000000  1
  Sm  Sm13  1  0.30878700  0.37841600  0.50000000  1
  Sm  Sm14  1  0.87841600  0.19121300  0.00000000  1
  Sm  Sm15  1  0.69121300  0.62158400  0.50000000  1
  Si  Si16  1  0.59776800  0.73842500  0.00000000  1
  Si  Si17  1  0.40223200  0.26157500  0.00000000  1
  Si  Si18  1  0.76157500  0.09776800  0.50000000  1
  Si  Si19  1  0.23842500  0.90223200  0.50000000  1
  Si  Si20  1  0.09776800  0.23842500  0.50000000  1
  Si  Si21  1  0.90223200  0.76157500  0.50000000  1
  Si  Si22  1  0.26157500  0.59776800  0.00000000  1
  Si  Si23  1  0.73842500  0.40223200  0.00000000  1
  O  O24  1  0.30522350  0.73026550  0.00000000  1
  O  O25  1  0.76973450  0.80522350  0.50000000  1
  O  O26  1  0.23026550  0.19477650  0.50000000  1
  O  O27  1  0.69477650  0.26973450  0.00000000  1
  O  O28  1  0.37821800  0.89671800  0.50000000  1
  O  O29  1  0.60328200  0.87821800  0.00000000  1
  O  O30  1  0.39671800  0.12178200  0.00000000  1
  O  O31  1  0.62178200  0.10328200  0.50000000  1
  O  O32  1  0.19390450  0.95981550  0.75656850  1
  O  O33  1  0.54018450  0.69390450  0.25656850  1
  O  O34  1  0.45981550  0.30609550  0.25656850  1
  O  O35  1  0.80609550  0.04018450  0.75656850  1
  O  O36  1  0.19390450  0.95981550  0.24343150  1
  O  O37  1  0.54018450  0.69390450  0.74343150  1
  O  O38  1  0.45981550  0.30609550  0.74343150  1
  O  O39  1  0.80609550  0.04018450  0.24343150  1
  O  O40  1  0.80522350  0.23026550  0.50000000  1
  O  O41  1  0.26973450  0.30522350  0.00000000  1
  O  O42  1  0.73026550  0.69477650  0.00000000  1
  O  O43  1  0.19477650  0.76973450  0.50000000  1
  O  O44  1  0.87821800  0.39671800  0.00000000  1
  O  O45  1  0.10328200  0.37821800  0.50000000  1
  O  O46  1  0.89671800  0.62178200  0.50000000  1
  O  O47  1  0.12178200  0.60328200  0.00000000  1
  O  O48  1  0.69390450  0.45981550  0.25656850  1
  O  O49  1  0.04018450  0.19390450  0.75656850  1
  O  O50  1  0.95981550  0.80609550  0.75656850  1
  O  O51  1  0.30609550  0.54018450  0.25656850  1
  O  O52  1  0.69390450  0.45981550  0.74343150  1
  O  O53  1  0.04018450  0.19390450  0.24343150  1
  O  O54  1  0.95981550  0.80609550  0.24343150  1
  O  O55  1  0.30609550  0.54018450  0.74343150  1
