# generated using pymatgen
data_Ba2LiGe3
_symmetry_space_group_name_H-M   'P 1'
_cell_length_a   8.95723800
_cell_length_b   15.57068800
_cell_length_c   19.72849400
_cell_angle_alpha   90.00000000
_cell_angle_beta   90.00000000
_cell_angle_gamma   90.00000000
_symmetry_Int_Tables_number   1
_chemical_formula_structural   Ba2LiGe3
_chemical_formula_sum   'Ba32 Li16 Ge48'
_cell_volume   2751.54012571
_cell_formula_units_Z   16
loop_
 _symmetry_equiv_pos_site_id
 _symmetry_equiv_pos_as_xyz
  1  'x, y, z'
loop_
 _atom_site_type_symbol
 _atom_site_label
 _atom_site_symmetry_multiplicity
 _atom_site_fract_x
 _atom_site_fract_y
 _atom_site_fract_z
 _atom_site_occupancy
  Ba  Ba0  1  0.50000000  0.00000000  0.87598300  1
  Ba  Ba1  1  0.00000000  0.00000000  0.62401700  1
  Ba  Ba2  1  0.75000000  0.75000000  0.87401700  1
  Ba  Ba3  1  0.75000000  0.75000000  0.62598300  1
  Ba  Ba4  1  0.50000000  0.00000000  0.62228000  1
  Ba  Ba5  1  0.00000000  0.00000000  0.87772000  1
  Ba  Ba6  1  0.25000000  0.75000000  0.62772000  1
  Ba  Ba7  1  0.25000000  0.75000000  0.87228000  1
  Ba  Ba8  1  0.50000000  0.50000000  0.37598300  1
  Ba  Ba9  1  0.00000000  0.50000000  0.12401700  1
  Ba  Ba10  1  0.75000000  0.25000000  0.37401700  1
  Ba  Ba11  1  0.75000000  0.25000000  0.12598300  1
  Ba  Ba12  1  0.50000000  0.50000000  0.12228000  1
  Ba  Ba13  1  0.00000000  0.50000000  0.37772000  1
  Ba  Ba14  1  0.25000000  0.25000000  0.12772000  1
  Ba  Ba15  1  0.25000000  0.25000000  0.37228000  1
  Ba  Ba16  1  0.00000000  0.00000000  0.37598300  1
  Ba  Ba17  1  0.50000000  0.00000000  0.12401700  1
  Ba  Ba18  1  0.25000000  0.75000000  0.37401700  1
  Ba  Ba19  1  0.25000000  0.75000000  0.12598300  1
  Ba  Ba20  1  0.00000000  0.00000000  0.12228000  1
  Ba  Ba21  1  0.50000000  0.00000000  0.37772000  1
  Ba  Ba22  1  0.75000000  0.75000000  0.12772000  1
  Ba  Ba23  1  0.75000000  0.75000000  0.37228000  1
  Ba  Ba24  1  0.00000000  0.50000000  0.87598300  1
  Ba  Ba25  1  0.50000000  0.50000000  0.62401700  1
  Ba  Ba26  1  0.25000000  0.25000000  0.87401700  1
  Ba  Ba27  1  0.25000000  0.25000000  0.62598300  1
  Ba  Ba28  1  0.00000000  0.50000000  0.62228000  1
  Ba  Ba29  1  0.50000000  0.50000000  0.87772000  1
  Ba  Ba30  1  0.75000000  0.25000000  0.62772000  1
  Ba  Ba31  1  0.75000000  0.25000000  0.87228000  1
  Li  Li32  1  0.00000000  0.66800700  0.00000000  1
  Li  Li33  1  0.50000000  0.83199300  0.00000000  1
  Li  Li34  1  0.75000000  0.58199300  0.75000000  1
  Li  Li35  1  0.75000000  0.91800700  0.75000000  1
  Li  Li36  1  0.00000000  0.16800700  0.50000000  1
  Li  Li37  1  0.50000000  0.33199300  0.50000000  1
  Li  Li38  1  0.75000000  0.08199300  0.25000000  1
  Li  Li39  1  0.75000000  0.41800700  0.25000000  1
  Li  Li40  1  0.50000000  0.66800700  0.50000000  1
  Li  Li41  1  0.00000000  0.83199300  0.50000000  1
  Li  Li42  1  0.25000000  0.58199300  0.25000000  1
  Li  Li43  1  0.25000000  0.91800700  0.25000000  1
  Li  Li44  1  0.50000000  0.16800700  0.00000000  1
  Li  Li45  1  0.00000000  0.33199300  0.00000000  1
  Li  Li46  1  0.25000000  0.08199300  0.75000000  1
  Li  Li47  1  0.25000000  0.41800700  0.75000000  1
  Ge  Ge48  1  0.75463250  0.91826200  0.99607150  1
  Ge  Ge49  1  0.75463250  0.58173800  0.50392850  1
  Ge  Ge50  1  0.74536750  0.91826200  0.50392850  1
  Ge  Ge51  1  0.74536750  0.58173800  0.99607150  1
  Ge  Ge52  1  0.25000000  0.58642700  0.75000000  1
  Ge  Ge53  1  0.25000000  0.91357300  0.75000000  1
  Ge  Ge54  1  0.50000000  0.66357300  0.00000000  1
  Ge  Ge55  1  0.00000000  0.83642700  0.00000000  1
  Ge  Ge56  1  0.00463250  0.66826200  0.75392850  1
  Ge  Ge57  1  0.00463250  0.83173800  0.74607150  1
  Ge  Ge58  1  0.49536750  0.66826200  0.74607150  1
  Ge  Ge59  1  0.49536750  0.83173800  0.75392850  1
  Ge  Ge60  1  0.75463250  0.41826200  0.49607150  1
  Ge  Ge61  1  0.75463250  0.08173800  0.00392850  1
  Ge  Ge62  1  0.74536750  0.41826200  0.00392850  1
  Ge  Ge63  1  0.74536750  0.08173800  0.49607150  1
  Ge  Ge64  1  0.25000000  0.08642700  0.25000000  1
  Ge  Ge65  1  0.25000000  0.41357300  0.25000000  1
  Ge  Ge66  1  0.50000000  0.16357300  0.50000000  1
  Ge  Ge67  1  0.00000000  0.33642700  0.50000000  1
  Ge  Ge68  1  0.00463250  0.16826200  0.25392850  1
  Ge  Ge69  1  0.00463250  0.33173800  0.24607150  1
  Ge  Ge70  1  0.49536750  0.16826200  0.24607150  1
  Ge  Ge71  1  0.49536750  0.33173800  0.25392850  1
  Ge  Ge72  1  0.25463250  0.91826200  0.49607150  1
  Ge  Ge73  1  0.25463250  0.58173800  0.00392850  1
  Ge  Ge74  1  0.24536750  0.91826200  0.00392850  1
  Ge  Ge75  1  0.24536750  0.58173800  0.49607150  1
  Ge  Ge76  1  0.75000000  0.58642700  0.25000000  1
  Ge  Ge77  1  0.75000000  0.91357300  0.25000000  1
  Ge  Ge78  1  0.00000000  0.66357300  0.50000000  1
  Ge  Ge79  1  0.50000000  0.83642700  0.50000000  1
  Ge  Ge80  1  0.50463250  0.66826200  0.25392850  1
  Ge  Ge81  1  0.50463250  0.83173800  0.24607150  1
  Ge  Ge82  1  0.99536750  0.66826200  0.24607150  1
  Ge  Ge83  1  0.99536750  0.83173800  0.25392850  1
  Ge  Ge84  1  0.25463250  0.41826200  0.99607150  1
  Ge  Ge85  1  0.25463250  0.08173800  0.50392850  1
  Ge  Ge86  1  0.24536750  0.41826200  0.50392850  1
  Ge  Ge87  1  0.24536750  0.08173800  0.99607150  1
  Ge  Ge88  1  0.75000000  0.08642700  0.75000000  1
  Ge  Ge89  1  0.75000000  0.41357300  0.75000000  1
  Ge  Ge90  1  0.00000000  0.16357300  0.00000000  1
  Ge  Ge91  1  0.50000000  0.33642700  0.00000000  1
  Ge  Ge92  1  0.50463250  0.16826200  0.75392850  1
  Ge  Ge93  1  0.50463250  0.33173800  0.74607150  1
  Ge  Ge94  1  0.99536750  0.16826200  0.74607150  1
  Ge  Ge95  1  0.99536750  0.33173800  0.75392850  1
