# generated using pymatgen
data_KHgC3(NO)3
_symmetry_space_group_name_H-M   'P 1'
_cell_length_a   4.10312200
_cell_length_b   10.57210700
_cell_length_c   17.93094000
_cell_angle_alpha   90.00000000
_cell_angle_beta   90.00000000
_cell_angle_gamma   90.00000000
_symmetry_Int_Tables_number   1
_chemical_formula_structural   KHgC3(NO)3
_chemical_formula_sum   'K4 Hg4 C12 N12 O12'
_cell_volume   777.81987751
_cell_formula_units_Z   4
loop_
 _symmetry_equiv_pos_site_id
 _symmetry_equiv_pos_as_xyz
  1  'x, y, z'
loop_
 _atom_site_type_symbol
 _atom_site_label
 _atom_site_symmetry_multiplicity
 _atom_site_fract_x
 _atom_site_fract_y
 _atom_site_fract_z
 _atom_site_occupancy
  K  K0  1  0.75000000  0.41627600  0.16221000  1
  K  K1  1  0.25000000  0.58372400  0.83779000  1
  K  K2  1  0.75000000  0.91627600  0.33779000  1
  K  K3  1  0.25000000  0.08372400  0.66221000  1
  Hg  Hg4  1  0.75000000  0.84331000  0.96318000  1
  Hg  Hg5  1  0.25000000  0.15669000  0.03682000  1
  Hg  Hg6  1  0.75000000  0.34331000  0.53682000  1
  Hg  Hg7  1  0.25000000  0.65669000  0.46318000  1
  C  C8  1  0.25000000  0.62256100  0.03310600  1
  C  C9  1  0.75000000  0.87743900  0.53310600  1
  C  C10  1  0.25000000  0.12256100  0.46689400  1
  C  C11  1  0.75000000  0.37743900  0.96689400  1
  C  C12  1  0.25000000  0.12417200  0.87251300  1
  C  C13  1  0.75000000  0.87582800  0.12748700  1
  C  C14  1  0.25000000  0.62417200  0.62748700  1
  C  C15  1  0.75000000  0.37582800  0.37251300  1
  C  C16  1  0.25000000  0.62639600  0.29914100  1
  C  C17  1  0.75000000  0.37360400  0.70085900  1
  C  C18  1  0.25000000  0.12639600  0.20085900  1
  C  C19  1  0.75000000  0.87360400  0.79914100  1
  N  N20  1  0.25000000  0.70630500  0.34770900  1
  N  N21  1  0.75000000  0.29369500  0.65229100  1
  N  N22  1  0.25000000  0.20630500  0.15229100  1
  N  N23  1  0.75000000  0.79369500  0.84770900  1
  N  N24  1  0.75000000  0.29416800  0.01289800  1
  N  N25  1  0.25000000  0.70583200  0.98710200  1
  N  N26  1  0.75000000  0.43348200  0.43108500  1
  N  N27  1  0.25000000  0.56651800  0.56891500  1
  N  N28  1  0.75000000  0.79416800  0.48710200  1
  N  N29  1  0.25000000  0.20583200  0.51289800  1
  N  N30  1  0.75000000  0.93348200  0.06891500  1
  N  N31  1  0.25000000  0.06651800  0.93108500  1
  O  O32  1  0.25000000  0.55250300  0.24841000  1
  O  O33  1  0.75000000  0.44749700  0.75159000  1
  O  O34  1  0.75000000  0.94749700  0.74841000  1
  O  O35  1  0.75000000  0.32596300  0.31244800  1
  O  O36  1  0.75000000  0.96221000  0.57862200  1
  O  O37  1  0.25000000  0.03779000  0.42137800  1
  O  O38  1  0.75000000  0.46221000  0.92137800  1
  O  O39  1  0.25000000  0.53779000  0.07862200  1
  O  O40  1  0.25000000  0.67403700  0.68755200  1
  O  O41  1  0.75000000  0.82596300  0.18755200  1
  O  O42  1  0.25000000  0.17403700  0.81244800  1
  O  O43  1  0.25000000  0.05250300  0.25159000  1
