# generated using pymatgen
data_Tm4Si2S3O7
_symmetry_space_group_name_H-M   'P 1'
_cell_length_a   11.62426800
_cell_length_b   11.62426800
_cell_length_c   13.48707000
_cell_angle_alpha   90.00000000
_cell_angle_beta   90.00000000
_cell_angle_gamma   90.00000000
_symmetry_Int_Tables_number   1
_chemical_formula_structural   Tm4Si2S3O7
_chemical_formula_sum   'Tm32 Si16 S24 O56'
_cell_volume   1822.42154000
_cell_formula_units_Z   8
loop_
 _symmetry_equiv_pos_site_id
 _symmetry_equiv_pos_as_xyz
  1  'x, y, z'
loop_
 _atom_site_type_symbol
 _atom_site_label
 _atom_site_symmetry_multiplicity
 _atom_site_fract_x
 _atom_site_fract_y
 _atom_site_fract_z
 _atom_site_occupancy
  Tm  Tm0  1  0.17258000  0.67258000  0.25000000  1
  Tm  Tm1  1  0.32742000  0.67258000  0.50000000  1
  Tm  Tm2  1  0.67258000  0.32742000  0.50000000  1
  Tm  Tm3  1  0.82742000  0.32742000  0.25000000  1
  Tm  Tm4  1  0.32742000  0.32742000  0.50000000  1
  Tm  Tm5  1  0.17258000  0.32742000  0.25000000  1
  Tm  Tm6  1  0.82742000  0.67258000  0.25000000  1
  Tm  Tm7  1  0.17258000  0.17258000  0.00000000  1
  Tm  Tm8  1  0.26461400  0.50000000  0.03423300  1
  Tm  Tm9  1  0.23538600  0.00000000  0.53423300  1
  Tm  Tm10  1  0.00000000  0.23538600  0.46576700  1
  Tm  Tm11  1  0.50000000  0.23538600  0.28423300  1
  Tm  Tm12  1  0.50000000  0.76461400  0.28423300  1
  Tm  Tm13  1  0.26461400  0.00000000  0.21576700  1
  Tm  Tm14  1  0.73538600  0.00000000  0.21576700  1
  Tm  Tm15  1  0.50000000  0.26461400  0.96576700  1
  Tm  Tm16  1  0.67258000  0.17258000  0.75000000  1
  Tm  Tm17  1  0.82742000  0.17258000  0.00000000  1
  Tm  Tm18  1  0.17258000  0.82742000  0.00000000  1
  Tm  Tm19  1  0.32742000  0.82742000  0.75000000  1
  Tm  Tm20  1  0.82742000  0.82742000  0.00000000  1
  Tm  Tm21  1  0.67258000  0.82742000  0.75000000  1
  Tm  Tm22  1  0.32742000  0.17258000  0.75000000  1
  Tm  Tm23  1  0.67258000  0.67258000  0.50000000  1
  Tm  Tm24  1  0.76461400  0.00000000  0.53423300  1
  Tm  Tm25  1  0.73538600  0.50000000  0.03423300  1
  Tm  Tm26  1  0.50000000  0.73538600  0.96576700  1
  Tm  Tm27  1  0.00000000  0.73538600  0.78423300  1
  Tm  Tm28  1  0.00000000  0.26461400  0.78423300  1
  Tm  Tm29  1  0.76461400  0.50000000  0.71576700  1
  Tm  Tm30  1  0.23538600  0.50000000  0.71576700  1
  Tm  Tm31  1  0.00000000  0.76461400  0.46576700  1
  Si  Si32  1  0.12525600  0.00000000  0.77984300  1
  Si  Si33  1  0.37474400  0.50000000  0.27984300  1
  Si  Si34  1  0.50000000  0.37474400  0.72015700  1
  Si  Si35  1  0.00000000  0.37474400  0.02984300  1
  Si  Si36  1  0.00000000  0.62525600  0.02984300  1
  Si  Si37  1  0.12525600  0.50000000  0.47015700  1
  Si  Si38  1  0.87474400  0.50000000  0.47015700  1
  Si  Si39  1  0.00000000  0.12525600  0.22015700  1
  Si  Si40  1  0.62525600  0.50000000  0.27984300  1
  Si  Si41  1  0.87474400  0.00000000  0.77984300  1
  Si  Si42  1  0.00000000  0.87474400  0.22015700  1
  Si  Si43  1  0.50000000  0.87474400  0.52984300  1
  Si  Si44  1  0.50000000  0.12525600  0.52984300  1
  Si  Si45  1  0.62525600  0.00000000  0.97015700  1
  Si  Si46  1  0.37474400  0.00000000  0.97015700  1
  Si  Si47  1  0.50000000  0.62525600  0.72015700  1
  S  S48  1  0.00000000  0.00000000  0.00000000  1
  S  S49  1  0.00000000  0.50000000  0.25000000  1
  S  S50  1  0.50000000  0.00000000  0.25000000  1
  S  S51  1  0.00000000  0.00000000  0.50000000  1
  S  S52  1  0.35468950  0.25000000  0.12500000  1
  S  S53  1  0.25000000  0.35468950  0.87500000  1
  S  S54  1  0.25000000  0.14531050  0.37500000  1
  S  S55  1  0.14531050  0.25000000  0.62500000  1
  S  S56  1  0.64531050  0.25000000  0.12500000  1
  S  S57  1  0.25000000  0.64531050  0.87500000  1
  S  S58  1  0.25000000  0.85468950  0.37500000  1
  S  S59  1  0.85468950  0.25000000  0.62500000  1
  S  S60  1  0.50000000  0.50000000  0.50000000  1
  S  S61  1  0.50000000  0.00000000  0.75000000  1
  S  S62  1  0.00000000  0.50000000  0.75000000  1
  S  S63  1  0.50000000  0.50000000  0.00000000  1
  S  S64  1  0.85468950  0.75000000  0.62500000  1
  S  S65  1  0.75000000  0.85468950  0.37500000  1
  S  S66  1  0.75000000  0.64531050  0.87500000  1
  S  S67  1  0.64531050  0.75000000  0.12500000  1
  S  S68  1  0.14531050  0.75000000  0.62500000  1
  S  S69  1  0.75000000  0.14531050  0.37500000  1
  S  S70  1  0.75000000  0.35468950  0.87500000  1
  S  S71  1  0.35468950  0.75000000  0.12500000  1
  O  O72  1  0.00000000  0.00000000  0.72483350  1
  O  O73  1  0.50000000  0.00000000  0.47483350  1
  O  O74  1  0.50000000  0.00000000  0.02516650  1
  O  O75  1  0.00000000  0.00000000  0.27516650  1
  O  O76  1  0.26558350  0.50000000  0.20127050  1
  O  O77  1  0.23441650  0.00000000  0.70127050  1
  O  O78  1  0.00000000  0.23441650  0.29872950  1
  O  O79  1  0.50000000  0.23441650  0.45127050  1
  O  O80  1  0.50000000  0.76558350  0.45127050  1
  O  O81  1  0.26558350  0.00000000  0.04872950  1
  O  O82  1  0.73441650  0.00000000  0.04872950  1
  O  O83  1  0.50000000  0.26558350  0.79872950  1
  O  O84  1  0.14147250  0.37497550  0.41578950  1
  O  O85  1  0.35852750  0.12502450  0.91578950  1
  O  O86  1  0.12502450  0.35852750  0.08421050  1
  O  O87  1  0.37497550  0.35852750  0.66578950  1
  O  O88  1  0.12502450  0.14147250  0.16578950  1
  O  O89  1  0.14147250  0.12502450  0.83421050  1
  O  O90  1  0.35852750  0.37497550  0.33421050  1
  O  O91  1  0.37497550  0.14147250  0.58421050  1
  O  O92  1  0.35852750  0.62502450  0.33421050  1
  O  O93  1  0.14147250  0.87497550  0.83421050  1
  O  O94  1  0.87497550  0.14147250  0.16578950  1
  O  O95  1  0.12502450  0.64147250  0.08421050  1
  O  O96  1  0.37497550  0.85852750  0.58421050  1
  O  O97  1  0.85852750  0.37497550  0.41578950  1
  O  O98  1  0.64147250  0.12502450  0.91578950  1
  O  O99  1  0.62502450  0.35852750  0.66578950  1
  O  O100  1  0.50000000  0.50000000  0.22483350  1
  O  O101  1  0.00000000  0.50000000  0.97483350  1
  O  O102  1  0.00000000  0.50000000  0.52516650  1
  O  O103  1  0.50000000  0.50000000  0.77516650  1
  O  O104  1  0.76558350  0.00000000  0.70127050  1
  O  O105  1  0.73441650  0.50000000  0.20127050  1
  O  O106  1  0.50000000  0.73441650  0.79872950  1
  O  O107  1  0.00000000  0.73441650  0.95127050  1
  O  O108  1  0.00000000  0.26558350  0.95127050  1
  O  O109  1  0.76558350  0.50000000  0.54872950  1
  O  O110  1  0.23441650  0.50000000  0.54872950  1
  O  O111  1  0.00000000  0.76558350  0.29872950  1
  O  O112  1  0.64147250  0.87497550  0.91578950  1
  O  O113  1  0.85852750  0.62502450  0.41578950  1
  O  O114  1  0.62502450  0.85852750  0.58421050  1
  O  O115  1  0.87497550  0.85852750  0.16578950  1
  O  O116  1  0.62502450  0.64147250  0.66578950  1
  O  O117  1  0.64147250  0.62502450  0.33421050  1
  O  O118  1  0.85852750  0.87497550  0.83421050  1
  O  O119  1  0.87497550  0.64147250  0.08421050  1
  O  O120  1  0.85852750  0.12502450  0.83421050  1
  O  O121  1  0.64147250  0.37497550  0.33421050  1
  O  O122  1  0.37497550  0.64147250  0.66578950  1
  O  O123  1  0.62502450  0.14147250  0.58421050  1
  O  O124  1  0.87497550  0.35852750  0.08421050  1
  O  O125  1  0.35852750  0.87497550  0.91578950  1
  O  O126  1  0.14147250  0.62502450  0.41578950  1
  O  O127  1  0.12502450  0.85852750  0.16578950  1
