# generated using pymatgen
data_CeAsO4
_symmetry_space_group_name_H-M   'P 1'
_cell_length_a   6.83103400
_cell_length_b   7.26654200
_cell_length_c   8.41905426
_cell_angle_alpha   90.00000000
_cell_angle_beta   126.42338364
_cell_angle_gamma   90.00000000
_symmetry_Int_Tables_number   1
_chemical_formula_structural   CeAsO4
_chemical_formula_sum   'Ce4 As4 O16'
_cell_volume   336.26788466
_cell_formula_units_Z   4
loop_
 _symmetry_equiv_pos_site_id
 _symmetry_equiv_pos_as_xyz
  1  'x, y, z'
loop_
 _atom_site_type_symbol
 _atom_site_label
 _atom_site_symmetry_multiplicity
 _atom_site_fract_x
 _atom_site_fract_y
 _atom_site_fract_z
 _atom_site_occupancy
  Ce  Ce0  1  0.18618600  0.84810600  0.78392800  1
  Ce  Ce1  1  0.18618600  0.65189400  0.28392800  1
  Ce  Ce2  1  0.81381400  0.34810600  0.71607200  1
  Ce  Ce3  1  0.81381400  0.15189400  0.21607200  1
  As  As4  1  0.69074800  0.83741700  0.80376000  1
  As  As5  1  0.30925200  0.33741700  0.69624000  1
  As  As6  1  0.30925200  0.16258300  0.19624000  1
  As  As7  1  0.69074800  0.66258300  0.30376000  1
  O  O8  1  0.34560800  0.39341600  0.51600500  1
  O  O9  1  0.34560800  0.10658400  0.01600500  1
  O  O10  1  0.10488200  0.34277800  0.10693000  1
  O  O11  1  0.10488200  0.15722200  0.60693000  1
  O  O12  1  0.39320300  0.78486900  0.61743100  1
  O  O13  1  0.82613400  0.49640400  0.25312900  1
  O  O14  1  0.89511800  0.84277800  0.39307000  1
  O  O15  1  0.60679700  0.28486900  0.88256900  1
  O  O16  1  0.82613400  0.00359600  0.75312900  1
  O  O17  1  0.65439200  0.60658400  0.48399500  1
  O  O18  1  0.17386600  0.99640400  0.24687100  1
  O  O19  1  0.39320300  0.71513100  0.11743100  1
  O  O20  1  0.60679700  0.21513100  0.38256900  1
  O  O21  1  0.65439200  0.89341600  0.98399500  1
  O  O22  1  0.89511800  0.65722200  0.89307000  1
  O  O23  1  0.17386600  0.50359600  0.74687100  1
