# generated using pymatgen
data_BaTi(BO3)2
_symmetry_space_group_name_H-M   'P 1'
_cell_length_a   5.07428647
_cell_length_b   5.07428647
_cell_length_c   16.81825590
_cell_angle_alpha   90.00000000
_cell_angle_beta   90.00000000
_cell_angle_gamma   120.00000000
_symmetry_Int_Tables_number   1
_chemical_formula_structural   BaTi(BO3)2
_chemical_formula_sum   'Ba3 Ti3 B6 O18'
_cell_volume   375.02614937
_cell_formula_units_Z   3
loop_
 _symmetry_equiv_pos_site_id
 _symmetry_equiv_pos_as_xyz
  1  'x, y, z'
loop_
 _atom_site_type_symbol
 _atom_site_label
 _atom_site_symmetry_multiplicity
 _atom_site_fract_x
 _atom_site_fract_y
 _atom_site_fract_z
 _atom_site_occupancy
  Ba  Ba0  1  0.00000000  0.00000000  0.00000000  1
  Ba  Ba1  1  0.66666667  0.33333333  0.33333333  1
  Ba  Ba2  1  0.33333333  0.66666667  0.66666667  1
  Ti  Ti3  1  0.33333333  0.66666667  0.16666667  1
  Ti  Ti4  1  1.00000000  0.00000000  0.50000000  1
  Ti  Ti5  1  0.66666667  0.33333333  0.83333333  1
  B  B6  1  0.00000000  0.00000000  0.23276200  1
  B  B7  1  0.66666667  0.33333333  0.10057133  1
  B  B8  1  0.66666667  0.33333333  0.56609533  1
  B  B9  1  0.33333333  0.66666667  0.43390467  1
  B  B10  1  0.33333333  0.66666667  0.89942867  1
  B  B11  1  0.00000000  0.00000000  0.76723800  1
  O  O12  1  0.10481433  0.30881267  0.23583067  1
  O  O13  1  0.20399833  0.89518567  0.23583067  1
  O  O14  1  0.97547933  0.53733167  0.09750267  1
  O  O15  1  0.56185233  0.02452067  0.09750267  1
  O  O16  1  0.46266833  0.43814767  0.09750267  1
  O  O17  1  0.69118733  0.79600167  0.23583067  1
  O  O18  1  0.77148100  0.64214600  0.56916400  1
  O  O19  1  0.87066500  0.22851900  0.56916400  1
  O  O20  1  0.64214600  0.87066500  0.43083600  1
  O  O21  1  0.22851900  0.35785400  0.43083600  1
  O  O22  1  0.12933500  0.77148100  0.43083600  1
  O  O23  1  0.35785400  0.12933500  0.56916400  1
  O  O24  1  0.43814767  0.97547933  0.90249733  1
  O  O25  1  0.53733167  0.56185233  0.90249733  1
  O  O26  1  0.30881267  0.20399833  0.76416933  1
  O  O27  1  0.89518567  0.69118733  0.76416933  1
  O  O28  1  0.79600167  0.10481433  0.76416933  1
  O  O29  1  0.02452067  0.46266833  0.90249733  1
