# generated using pymatgen
data_BeCN2
_symmetry_space_group_name_H-M   'P 1'
_cell_length_a   3.76366200
_cell_length_b   3.76366200
_cell_length_c   6.98606600
_cell_angle_alpha   90.00000000
_cell_angle_beta   90.00000000
_cell_angle_gamma   90.00000000
_symmetry_Int_Tables_number   1
_chemical_formula_structural   BeCN2
_chemical_formula_sum   'Be4 C4 N8'
_cell_volume   98.95868433
_cell_formula_units_Z   4
loop_
 _symmetry_equiv_pos_site_id
 _symmetry_equiv_pos_as_xyz
  1  'x, y, z'
loop_
 _atom_site_type_symbol
 _atom_site_label
 _atom_site_symmetry_multiplicity
 _atom_site_fract_x
 _atom_site_fract_y
 _atom_site_fract_z
 _atom_site_occupancy
  Be  Be0  1  0.00000000  0.50000000  0.25000000  1
  Be  Be1  1  0.00000000  0.00000000  0.00000000  1
  Be  Be2  1  0.50000000  0.00000000  0.75000000  1
  Be  Be3  1  0.50000000  0.50000000  0.50000000  1
  C  C4  1  0.50000000  0.00000000  0.25000000  1
  C  C5  1  0.50000000  0.50000000  0.00000000  1
  C  C6  1  0.00000000  0.50000000  0.75000000  1
  C  C7  1  0.00000000  0.00000000  0.50000000  1
  N  N8  1  0.75000000  0.79538600  0.37500000  1
  N  N9  1  0.29538600  0.75000000  0.12500000  1
  N  N10  1  0.70461400  0.25000000  0.12500000  1
  N  N11  1  0.25000000  0.20461400  0.37500000  1
  N  N12  1  0.25000000  0.29538600  0.87500000  1
  N  N13  1  0.79538600  0.25000000  0.62500000  1
  N  N14  1  0.20461400  0.75000000  0.62500000  1
  N  N15  1  0.75000000  0.70461400  0.87500000  1
