# generated using pymatgen
data_LiCaMgSiN3
_symmetry_space_group_name_H-M   'P 1'
_cell_length_a   5.58852800
_cell_length_b   9.89507400
_cell_length_c   6.03614599
_cell_angle_alpha   90.00000000
_cell_angle_beta   97.24945075
_cell_angle_gamma   90.00000000
_symmetry_Int_Tables_number   1
_chemical_formula_structural   LiCaMgSiN3
_chemical_formula_sum   'Li4 Ca4 Mg4 Si4 N12'
_cell_volume   331.12394021
_cell_formula_units_Z   4
loop_
 _symmetry_equiv_pos_site_id
 _symmetry_equiv_pos_as_xyz
  1  'x, y, z'
loop_
 _atom_site_type_symbol
 _atom_site_label
 _atom_site_symmetry_multiplicity
 _atom_site_fract_x
 _atom_site_fract_y
 _atom_site_fract_z
 _atom_site_occupancy
  Li  Li0  1  0.67492500  0.00000000  0.90674300  1
  Li  Li1  1  0.32507500  0.00000000  0.09325700  1
  Li  Li2  1  0.17492500  0.50000000  0.90674300  1
  Li  Li3  1  0.82507500  0.50000000  0.09325700  1
  Ca  Ca4  1  0.50000000  0.82037000  0.50000000  1
  Ca  Ca5  1  0.00000000  0.67963000  0.50000000  1
  Ca  Ca6  1  0.00000000  0.32037000  0.50000000  1
  Ca  Ca7  1  0.50000000  0.17963000  0.50000000  1
  Mg  Mg8  1  0.50000000  0.73366600  0.00000000  1
  Mg  Mg9  1  0.00000000  0.76633400  0.00000000  1
  Mg  Mg10  1  0.00000000  0.23366600  0.00000000  1
  Mg  Mg11  1  0.50000000  0.26633400  0.00000000  1
  Si  Si12  1  0.13038900  0.00000000  0.67866100  1
  Si  Si13  1  0.86961100  0.00000000  0.32133900  1
  Si  Si14  1  0.63038900  0.50000000  0.67866100  1
  Si  Si15  1  0.36961100  0.50000000  0.32133900  1
  N  N16  1  0.80836500  0.00000000  0.60987100  1
  N  N17  1  0.19163500  0.00000000  0.39012900  1
  N  N18  1  0.75228150  0.85472350  0.19014500  1
  N  N19  1  0.25228150  0.64527650  0.19014500  1
  N  N20  1  0.74771850  0.64527650  0.80985500  1
  N  N21  1  0.24771850  0.85472350  0.80985500  1
  N  N22  1  0.30836500  0.50000000  0.60987100  1
  N  N23  1  0.69163500  0.50000000  0.39012900  1
  N  N24  1  0.25228150  0.35472350  0.19014500  1
  N  N25  1  0.75228150  0.14527650  0.19014500  1
  N  N26  1  0.24771850  0.14527650  0.80985500  1
  N  N27  1  0.74771850  0.35472350  0.80985500  1
