# generated using pymatgen
data_Cd4SiS6
_symmetry_space_group_name_H-M   'P 1'
_cell_length_a   12.58186400
_cell_length_b   7.18661000
_cell_length_c   12.61519497
_cell_angle_alpha   90.00000000
_cell_angle_beta   110.59956820
_cell_angle_gamma   90.00000000
_symmetry_Int_Tables_number   1
_chemical_formula_structural   Cd4SiS6
_chemical_formula_sum   'Cd16 Si4 S24'
_cell_volume   1067.74545888
_cell_formula_units_Z   4
loop_
 _symmetry_equiv_pos_site_id
 _symmetry_equiv_pos_as_xyz
  1  'x, y, z'
loop_
 _atom_site_type_symbol
 _atom_site_label
 _atom_site_symmetry_multiplicity
 _atom_site_fract_x
 _atom_site_fract_y
 _atom_site_fract_z
 _atom_site_occupancy
  Cd  Cd0  1  0.52745100  0.89454600  0.31106700  1
  Cd  Cd1  1  0.52745100  0.10545400  0.81106700  1
  Cd  Cd2  1  0.18339950  0.92528150  0.30757800  1
  Cd  Cd3  1  0.68339950  0.57471850  0.80757800  1
  Cd  Cd4  1  0.31636050  0.30177050  0.15228600  1
  Cd  Cd5  1  0.81636050  0.19822950  0.65228600  1
  Cd  Cd6  1  0.50253150  0.38945650  0.50070200  1
  Cd  Cd7  1  0.00253150  0.11054350  0.00070200  1
  Cd  Cd8  1  0.02745100  0.39454600  0.31106700  1
  Cd  Cd9  1  0.02745100  0.60545400  0.81106700  1
  Cd  Cd10  1  0.68339950  0.42528150  0.30757800  1
  Cd  Cd11  1  0.18339950  0.07471850  0.80757800  1
  Cd  Cd12  1  0.81636050  0.80177050  0.15228600  1
  Cd  Cd13  1  0.31636050  0.69822950  0.65228600  1
  Cd  Cd14  1  0.00253150  0.88945650  0.50070200  1
  Cd  Cd15  1  0.50253150  0.61054350  0.00070200  1
  Si  Si16  1  0.75221350  0.72717850  0.56271800  1
  Si  Si17  1  0.25221350  0.77282150  0.06271800  1
  Si  Si18  1  0.25221350  0.22717850  0.56271800  1
  Si  Si19  1  0.75221350  0.27282150  0.06271800  1
  S  S20  1  0.32061750  0.01496950  0.01415100  1
  S  S21  1  0.32061750  0.98503050  0.51415100  1
  S  S22  1  0.57179850  0.73812550  0.50903000  1
  S  S23  1  0.07179850  0.76187450  0.00903000  1
  S  S24  1  0.13287600  0.23005500  0.19379300  1
  S  S25  1  0.63287600  0.26994500  0.69379300  1
  S  S26  1  0.32340200  0.73485300  0.24234700  1
  S  S27  1  0.82340200  0.76514700  0.74234700  1
  S  S28  1  0.79829500  0.03124200  0.98771900  1
  S  S29  1  0.29829500  0.46875800  0.48771900  1
  S  S30  1  0.50665500  0.75134600  0.81490900  1
  S  S31  1  0.50665500  0.24865400  0.31490900  1
  S  S32  1  0.82061750  0.51496950  0.01415100  1
  S  S33  1  0.82061750  0.48503050  0.51415100  1
  S  S34  1  0.07179850  0.23812550  0.50903000  1
  S  S35  1  0.57179850  0.26187450  0.00903000  1
  S  S36  1  0.63287600  0.73005500  0.19379300  1
  S  S37  1  0.13287600  0.76994500  0.69379300  1
  S  S38  1  0.82340200  0.23485300  0.24234700  1
  S  S39  1  0.32340200  0.26514700  0.74234700  1
  S  S40  1  0.29829500  0.53124200  0.98771900  1
  S  S41  1  0.79829500  0.96875800  0.48771900  1
  S  S42  1  0.00665500  0.25134600  0.81490900  1
  S  S43  1  0.00665500  0.74865400  0.31490900  1
