# generated using pymatgen
data_K3GeS3
_symmetry_space_group_name_H-M   'P 1'
_cell_length_a   8.79651000
_cell_length_b   12.57724600
_cell_length_c   8.32491670
_cell_angle_alpha   90.00000000
_cell_angle_beta   116.66903270
_cell_angle_gamma   90.00000000
_symmetry_Int_Tables_number   1
_chemical_formula_structural   K3GeS3
_chemical_formula_sum   'K12 Ge4 S12'
_cell_volume   823.04933574
_cell_formula_units_Z   4
loop_
 _symmetry_equiv_pos_site_id
 _symmetry_equiv_pos_as_xyz
  1  'x, y, z'
loop_
 _atom_site_type_symbol
 _atom_site_label
 _atom_site_symmetry_multiplicity
 _atom_site_fract_x
 _atom_site_fract_y
 _atom_site_fract_z
 _atom_site_occupancy
  K  K0  1  0.21613300  0.00000000  0.68558500  1
  K  K1  1  0.78386700  0.00000000  0.31441500  1
  K  K2  1  0.75000000  0.75000000  0.00000000  1
  K  K3  1  0.75000000  0.25000000  0.00000000  1
  K  K4  1  0.50000000  0.16814100  0.50000000  1
  K  K5  1  0.50000000  0.83185900  0.50000000  1
  K  K6  1  0.71613300  0.50000000  0.68558500  1
  K  K7  1  0.28386700  0.50000000  0.31441500  1
  K  K8  1  0.25000000  0.25000000  0.00000000  1
  K  K9  1  0.25000000  0.75000000  0.00000000  1
  K  K10  1  0.00000000  0.66814100  0.50000000  1
  K  K11  1  0.00000000  0.33185900  0.50000000  1
  Ge  Ge12  1  0.88161400  0.00000000  0.84359600  1
  Ge  Ge13  1  0.11838600  0.00000000  0.15640400  1
  Ge  Ge14  1  0.38161400  0.50000000  0.84359600  1
  Ge  Ge15  1  0.61838600  0.50000000  0.15640400  1
  S  S16  1  0.59659700  0.35382800  0.29977300  1
  S  S17  1  0.40340300  0.35382800  0.70022700  1
  S  S18  1  0.63156400  0.00000000  0.85708300  1
  S  S19  1  0.36843600  0.00000000  0.14291700  1
  S  S20  1  0.40340300  0.64617200  0.70022700  1
  S  S21  1  0.59659700  0.64617200  0.29977300  1
  S  S22  1  0.09659700  0.85382800  0.29977300  1
  S  S23  1  0.90340300  0.85382800  0.70022700  1
  S  S24  1  0.13156400  0.50000000  0.85708300  1
  S  S25  1  0.86843600  0.50000000  0.14291700  1
  S  S26  1  0.90340300  0.14617200  0.70022700  1
  S  S27  1  0.09659700  0.14617200  0.29977300  1
