# generated using pymatgen
data_SmAsO4
_symmetry_space_group_name_H-M   'P 1'
_cell_length_a   5.12890400
_cell_length_b   5.12890400
_cell_length_c   11.59054200
_cell_angle_alpha   90.00000000
_cell_angle_beta   90.00000000
_cell_angle_gamma   90.00000000
_symmetry_Int_Tables_number   1
_chemical_formula_structural   SmAsO4
_chemical_formula_sum   'Sm4 As4 O16'
_cell_volume   304.89681350
_cell_formula_units_Z   4
loop_
 _symmetry_equiv_pos_site_id
 _symmetry_equiv_pos_as_xyz
  1  'x, y, z'
loop_
 _atom_site_type_symbol
 _atom_site_label
 _atom_site_symmetry_multiplicity
 _atom_site_fract_x
 _atom_site_fract_y
 _atom_site_fract_z
 _atom_site_occupancy
  Sm  Sm0  1  0.00000000  0.00000000  0.00000000  1
  Sm  Sm1  1  0.00000000  0.50000000  0.25000000  1
  Sm  Sm2  1  0.50000000  0.50000000  0.50000000  1
  Sm  Sm3  1  0.50000000  0.00000000  0.75000000  1
  As  As4  1  0.50000000  0.50000000  0.00000000  1
  As  As5  1  0.50000000  0.00000000  0.25000000  1
  As  As6  1  0.00000000  0.00000000  0.50000000  1
  As  As7  1  0.00000000  0.50000000  0.75000000  1
  O  O8  1  0.14219350  0.75045350  0.42180950  1
  O  O9  1  0.74954650  0.14219350  0.17180950  1
  O  O10  1  0.25045350  0.85780650  0.17180950  1
  O  O11  1  0.85780650  0.24954650  0.42180950  1
  O  O12  1  0.64219350  0.75045350  0.32819050  1
  O  O13  1  0.74954650  0.64219350  0.07819050  1
  O  O14  1  0.25045350  0.35780650  0.07819050  1
  O  O15  1  0.35780650  0.24954650  0.32819050  1
  O  O16  1  0.64219350  0.25045350  0.92180950  1
  O  O17  1  0.24954650  0.64219350  0.67180950  1
  O  O18  1  0.75045350  0.35780650  0.67180950  1
  O  O19  1  0.35780650  0.74954650  0.92180950  1
  O  O20  1  0.14219350  0.25045350  0.82819050  1
  O  O21  1  0.24954650  0.14219350  0.57819050  1
  O  O22  1  0.75045350  0.85780650  0.57819050  1
  O  O23  1  0.85780650  0.74954650  0.82819050  1
