# generated using pymatgen
data_TiO2
_symmetry_space_group_name_H-M   'P 1'
_cell_length_a   5.94632000
_cell_length_b   6.57473800
_cell_length_c   6.57480400
_cell_angle_alpha   90.00000000
_cell_angle_beta   90.00000000
_cell_angle_gamma   90.00000000
_symmetry_Int_Tables_number   1
_chemical_formula_structural   TiO2
_chemical_formula_sum   'Ti8 O16'
_cell_volume   257.04522390
_cell_formula_units_Z   8
loop_
 _symmetry_equiv_pos_site_id
 _symmetry_equiv_pos_as_xyz
  1  'x, y, z'
loop_
 _atom_site_type_symbol
 _atom_site_label
 _atom_site_symmetry_multiplicity
 _atom_site_fract_x
 _atom_site_fract_y
 _atom_site_fract_z
 _atom_site_occupancy
  Ti  Ti0  1  0.50000000  0.25000000  0.25475500  1
  Ti  Ti1  1  0.00000000  0.25000000  0.24524500  1
  Ti  Ti2  1  0.25000000  0.25000000  0.75000000  1
  Ti  Ti3  1  0.25000000  0.75000000  0.25000000  1
  Ti  Ti4  1  0.00000000  0.75000000  0.75475500  1
  Ti  Ti5  1  0.50000000  0.75000000  0.74524500  1
  Ti  Ti6  1  0.75000000  0.75000000  0.25000000  1
  Ti  Ti7  1  0.75000000  0.25000000  0.75000000  1
  O  O8  1  0.24985100  0.25000000  0.05491900  1
  O  O9  1  0.50000000  0.44510100  0.75038300  1
  O  O10  1  0.25014900  0.75000000  0.55491900  1
  O  O11  1  0.00000000  0.55489900  0.25038300  1
  O  O12  1  0.50000000  0.94510100  0.24961700  1
  O  O13  1  0.00000000  0.05489900  0.74961700  1
  O  O14  1  0.24985100  0.75000000  0.94508100  1
  O  O15  1  0.25014900  0.25000000  0.44508100  1
  O  O16  1  0.74985100  0.75000000  0.55491900  1
  O  O17  1  0.00000000  0.94510100  0.25038300  1
  O  O18  1  0.75014900  0.25000000  0.05491900  1
  O  O19  1  0.50000000  0.05489900  0.75038300  1
  O  O20  1  0.00000000  0.44510100  0.74961700  1
  O  O21  1  0.50000000  0.55489900  0.24961700  1
  O  O22  1  0.74985100  0.25000000  0.44508100  1
  O  O23  1  0.75014900  0.75000000  0.94508100  1
