# generated using pymatgen
data_UMnO4
_symmetry_space_group_name_H-M   'P 1'
_cell_length_a   6.74341024
_cell_length_b   6.85545881
_cell_length_c   7.00552170
_cell_angle_alpha   90.00000000
_cell_angle_beta   90.00000000
_cell_angle_gamma   90.00000000
_symmetry_Int_Tables_number   1
_chemical_formula_structural   UMnO4
_chemical_formula_sum   'U4 Mn4 O16'
_cell_volume   323.85946169
_cell_formula_units_Z   4
loop_
 _symmetry_equiv_pos_site_id
 _symmetry_equiv_pos_as_xyz
  1  'x, y, z'
loop_
 _atom_site_type_symbol
 _atom_site_label
 _atom_site_symmetry_multiplicity
 _atom_site_fract_x
 _atom_site_fract_y
 _atom_site_fract_z
 _atom_site_occupancy
  U  U0  1  0.50000000  0.51744442  0.25000000  1
  U  U1  1  0.00000000  0.98255558  0.25000000  1
  U  U2  1  0.00000000  0.01744442  0.75000000  1
  U  U3  1  0.50000000  0.48255558  0.75000000  1
  Mn  Mn4  1  0.50000000  0.00000000  0.00000000  1
  Mn  Mn5  1  0.50000000  0.00000000  0.50000000  1
  Mn  Mn6  1  0.00000000  0.50000000  0.50000000  1
  Mn  Mn7  1  0.00000000  0.50000000  0.00000000  1
  O  O8  1  0.00000000  0.81323577  0.98616219  1
  O  O9  1  0.50000000  0.68676423  0.51383781  1
  O  O10  1  0.00000000  0.81323577  0.51383781  1
  O  O11  1  0.50000000  0.68676423  0.98616219  1
  O  O12  1  0.29336024  0.01942462  0.75000000  1
  O  O13  1  0.79336024  0.48057538  0.75000000  1
  O  O14  1  0.20663976  0.48057538  0.75000000  1
  O  O15  1  0.70663976  0.01942462  0.75000000  1
  O  O16  1  0.50000000  0.31323577  0.48616219  1
  O  O17  1  0.00000000  0.18676423  0.01383781  1
  O  O18  1  0.50000000  0.31323577  0.01383781  1
  O  O19  1  0.00000000  0.18676423  0.48616219  1
  O  O20  1  0.79336024  0.51942462  0.25000000  1
  O  O21  1  0.29336024  0.98057538  0.25000000  1
  O  O22  1  0.70663976  0.98057538  0.25000000  1
  O  O23  1  0.20663976  0.51942462  0.25000000  1
