# generated using pymatgen
data_Sr(As3Pt2)2
_symmetry_space_group_name_H-M   'P 1'
_cell_length_a   8.72548200
_cell_length_b   8.44813800
_cell_length_c   12.15198905
_cell_angle_alpha   90.00000000
_cell_angle_beta   90.93846865
_cell_angle_gamma   90.00000000
_symmetry_Int_Tables_number   1
_chemical_formula_structural   Sr(As3Pt2)2
_chemical_formula_sum   'Sr4 As24 Pt16'
_cell_volume   895.65248739
_cell_formula_units_Z   4
loop_
 _symmetry_equiv_pos_site_id
 _symmetry_equiv_pos_as_xyz
  1  'x, y, z'
loop_
 _atom_site_type_symbol
 _atom_site_label
 _atom_site_symmetry_multiplicity
 _atom_site_fract_x
 _atom_site_fract_y
 _atom_site_fract_z
 _atom_site_occupancy
  Sr  Sr0  1  0.50000000  0.90392400  0.25000000  1
  Sr  Sr1  1  0.50000000  0.09607600  0.75000000  1
  Sr  Sr2  1  0.00000000  0.40392400  0.25000000  1
  Sr  Sr3  1  0.00000000  0.59607600  0.75000000  1
  As  As4  1  0.11638700  0.02011100  0.69156900  1
  As  As5  1  0.88361300  0.02011100  0.80843100  1
  As  As6  1  0.88361300  0.97988900  0.30843100  1
  As  As7  1  0.11638700  0.97988900  0.19156900  1
  As  As8  1  0.75129100  0.12793100  0.05631300  1
  As  As9  1  0.24870900  0.12793100  0.44368700  1
  As  As10  1  0.24870900  0.87206900  0.94368700  1
  As  As11  1  0.75129100  0.87206900  0.55631300  1
  As  As12  1  0.63062250  0.75387750  0.94504200  1
  As  As13  1  0.36937750  0.75387750  0.55495800  1
  As  As14  1  0.63062250  0.24612250  0.44504200  1
  As  As15  1  0.36937750  0.24612250  0.05495800  1
  As  As16  1  0.61638700  0.52011100  0.69156900  1
  As  As17  1  0.38361300  0.52011100  0.80843100  1
  As  As18  1  0.38361300  0.47988900  0.30843100  1
  As  As19  1  0.61638700  0.47988900  0.19156900  1
  As  As20  1  0.25129100  0.62793100  0.05631300  1
  As  As21  1  0.74870900  0.62793100  0.44368700  1
  As  As22  1  0.74870900  0.37206900  0.94368700  1
  As  As23  1  0.25129100  0.37206900  0.55631300  1
  As  As24  1  0.13062250  0.25387750  0.94504200  1
  As  As25  1  0.86937750  0.25387750  0.55495800  1
  As  As26  1  0.13062250  0.74612250  0.44504200  1
  As  As27  1  0.86937750  0.74612250  0.05495800  1
  Pt  Pt28  1  0.71474700  0.20864900  0.25029400  1
  Pt  Pt29  1  0.28525300  0.20864900  0.24970600  1
  Pt  Pt30  1  0.50000000  0.00000000  0.50000000  1
  Pt  Pt31  1  0.50000000  0.00000000  0.00000000  1
  Pt  Pt32  1  0.00000000  0.00000000  0.50000000  1
  Pt  Pt33  1  0.00000000  0.00000000  0.00000000  1
  Pt  Pt34  1  0.71474700  0.79135100  0.75029400  1
  Pt  Pt35  1  0.28525300  0.79135100  0.74970600  1
  Pt  Pt36  1  0.21474700  0.70864900  0.25029400  1
  Pt  Pt37  1  0.78525300  0.70864900  0.24970600  1
  Pt  Pt38  1  0.00000000  0.50000000  0.50000000  1
  Pt  Pt39  1  0.00000000  0.50000000  0.00000000  1
  Pt  Pt40  1  0.50000000  0.50000000  0.50000000  1
  Pt  Pt41  1  0.50000000  0.50000000  0.00000000  1
  Pt  Pt42  1  0.21474700  0.29135100  0.75029400  1
  Pt  Pt43  1  0.78525300  0.29135100  0.74970600  1
