# generated using pymatgen
data_RbGdSe2
_symmetry_space_group_name_H-M   'P 1'
_cell_length_a   4.29692400
_cell_length_b   4.29692400
_cell_length_c   23.97510227
_cell_angle_alpha   90.00000000
_cell_angle_beta   90.00000000
_cell_angle_gamma   120.00000000
_symmetry_Int_Tables_number   1
_chemical_formula_structural   RbGdSe2
_chemical_formula_sum   'Rb3 Gd3 Se6'
_cell_volume   383.35968886
_cell_formula_units_Z   3
loop_
 _symmetry_equiv_pos_site_id
 _symmetry_equiv_pos_as_xyz
  1  'x, y, z'
loop_
 _atom_site_type_symbol
 _atom_site_label
 _atom_site_symmetry_multiplicity
 _atom_site_fract_x
 _atom_site_fract_y
 _atom_site_fract_z
 _atom_site_occupancy
  Rb  Rb0  1  0.00000000  0.00000000  0.00000000  1
  Rb  Rb1  1  0.66666667  0.33333333  0.33333333  1
  Rb  Rb2  1  0.33333333  0.66666667  0.66666667  1
  Gd  Gd3  1  0.33333333  0.66666667  0.16666667  1
  Gd  Gd4  1  1.00000000  1.00000000  0.50000000  1
  Gd  Gd5  1  0.66666667  0.33333333  0.83333333  1
  Se  Se6  1  0.00000000  0.00000000  0.23209300  1
  Se  Se7  1  0.66666667  0.33333333  0.10124033  1
  Se  Se8  1  0.66666667  0.33333333  0.56542633  1
  Se  Se9  1  0.33333333  0.66666667  0.43457367  1
  Se  Se10  1  0.33333333  0.66666667  0.89875967  1
  Se  Se11  1  0.00000000  0.00000000  0.76790700  1
