# generated using pymatgen
data_Sr2CoWO6
_symmetry_space_group_name_H-M   'P 1'
_cell_length_a   5.72271900
_cell_length_b   5.67976600
_cell_length_c   9.83455556
_cell_angle_alpha   90.00000000
_cell_angle_beta   125.65808225
_cell_angle_gamma   90.00000000
_symmetry_Int_Tables_number   1
_chemical_formula_structural   Sr2CoWO6
_chemical_formula_sum   'Sr4 Co2 W2 O12'
_cell_volume   259.72660639
_cell_formula_units_Z   2
loop_
 _symmetry_equiv_pos_site_id
 _symmetry_equiv_pos_as_xyz
  1  'x, y, z'
loop_
 _atom_site_type_symbol
 _atom_site_label
 _atom_site_symmetry_multiplicity
 _atom_site_fract_x
 _atom_site_fract_y
 _atom_site_fract_z
 _atom_site_occupancy
  Sr  Sr0  1  0.25323500  0.98722800  0.75106500  1
  Sr  Sr1  1  0.25323500  0.51277200  0.25106500  1
  Sr  Sr2  1  0.74676500  0.01277200  0.24893500  1
  Sr  Sr3  1  0.74676500  0.48722800  0.74893500  1
  Co  Co4  1  0.50000000  0.50000000  0.00000000  1
  Co  Co5  1  0.50000000  0.00000000  0.50000000  1
  W  W6  1  0.00000000  0.50000000  0.50000000  1
  W  W7  1  0.00000000  0.00000000  0.00000000  1
  O  O8  1  0.18805000  0.50760100  0.74152000  1
  O  O9  1  0.18805000  0.99239900  0.24152000  1
  O  O10  1  0.81195000  0.49239900  0.25848000  1
  O  O11  1  0.81195000  0.00760100  0.75848000  1
  O  O12  1  0.24846500  0.23946800  0.52891700  1
  O  O13  1  0.24846500  0.26053200  0.02891700  1
  O  O14  1  0.75153500  0.76053200  0.47108300  1
  O  O15  1  0.75153500  0.73946800  0.97108300  1
  O  O16  1  0.71437400  0.27863000  0.47309400  1
  O  O17  1  0.71437400  0.22137000  0.97309400  1
  O  O18  1  0.28562600  0.72137000  0.52690600  1
  O  O19  1  0.28562600  0.77863000  0.02690600  1
