# generated using pymatgen
data_Ca2Mn3O8
_symmetry_space_group_name_H-M   'P 1'
_cell_length_a   11.12322600
_cell_length_b   5.94482000
_cell_length_c   5.02775048
_cell_angle_alpha   90.00000000
_cell_angle_beta   109.71473356
_cell_angle_gamma   90.00000000
_symmetry_Int_Tables_number   1
_chemical_formula_structural   Ca2Mn3O8
_chemical_formula_sum   'Ca4 Mn6 O16'
_cell_volume   312.97519645
_cell_formula_units_Z   2
loop_
 _symmetry_equiv_pos_site_id
 _symmetry_equiv_pos_as_xyz
  1  'x, y, z'
loop_
 _atom_site_type_symbol
 _atom_site_label
 _atom_site_symmetry_multiplicity
 _atom_site_fract_x
 _atom_site_fract_y
 _atom_site_fract_z
 _atom_site_occupancy
  Ca  Ca0  1  0.27697300  0.00000000  0.33637100  1
  Ca  Ca1  1  0.22302700  0.50000000  0.66362900  1
  Ca  Ca2  1  0.77697300  0.50000000  0.33637100  1
  Ca  Ca3  1  0.72302700  0.00000000  0.66362900  1
  Mn  Mn4  1  0.00000000  0.00000000  0.50000000  1
  Mn  Mn5  1  0.00000000  0.25802300  0.00000000  1
  Mn  Mn6  1  0.00000000  0.74197700  0.00000000  1
  Mn  Mn7  1  0.50000000  0.50000000  0.50000000  1
  Mn  Mn8  1  0.50000000  0.75802300  0.00000000  1
  Mn  Mn9  1  0.50000000  0.24197700  0.00000000  1
  O  O10  1  0.10341500  0.50000000  0.95793800  1
  O  O11  1  0.39658500  0.00000000  0.04206200  1
  O  O12  1  0.09709600  0.00000000  0.90327100  1
  O  O13  1  0.40290400  0.50000000  0.09672900  1
  O  O14  1  0.39838500  0.27808100  0.60822400  1
  O  O15  1  0.39838500  0.72191900  0.60822400  1
  O  O16  1  0.10161500  0.77808100  0.39177600  1
  O  O17  1  0.10161500  0.22191900  0.39177600  1
  O  O18  1  0.60341500  0.00000000  0.95793800  1
  O  O19  1  0.89658500  0.50000000  0.04206200  1
  O  O20  1  0.59709600  0.50000000  0.90327100  1
  O  O21  1  0.90290400  0.00000000  0.09672900  1
  O  O22  1  0.89838500  0.77808100  0.60822400  1
  O  O23  1  0.89838500  0.22191900  0.60822400  1
  O  O24  1  0.60161500  0.27808100  0.39177600  1
  O  O25  1  0.60161500  0.72191900  0.39177600  1
