# generated using pymatgen
data_Rb2NbCuSe4
_symmetry_space_group_name_H-M   'P 1'
_cell_length_a   5.80218400
_cell_length_b   14.27758800
_cell_length_c   25.16953600
_cell_angle_alpha   90.00000000
_cell_angle_beta   90.00000000
_cell_angle_gamma   90.00000000
_symmetry_Int_Tables_number   1
_chemical_formula_structural   Rb2NbCuSe4
_chemical_formula_sum   'Rb16 Nb8 Cu8 Se32'
_cell_volume   2085.07438074
_cell_formula_units_Z   8
loop_
 _symmetry_equiv_pos_site_id
 _symmetry_equiv_pos_as_xyz
  1  'x, y, z'
loop_
 _atom_site_type_symbol
 _atom_site_label
 _atom_site_symmetry_multiplicity
 _atom_site_fract_x
 _atom_site_fract_y
 _atom_site_fract_z
 _atom_site_occupancy
  Rb  Rb0  1  0.00000000  0.00000000  0.82123000  1
  Rb  Rb1  1  0.50000000  0.00000000  0.67877000  1
  Rb  Rb2  1  0.25000000  0.75000000  0.57123000  1
  Rb  Rb3  1  0.25000000  0.75000000  0.92877000  1
  Rb  Rb4  1  0.00000000  0.50000000  0.32123000  1
  Rb  Rb5  1  0.50000000  0.50000000  0.17877000  1
  Rb  Rb6  1  0.25000000  0.25000000  0.07123000  1
  Rb  Rb7  1  0.25000000  0.25000000  0.42877000  1
  Rb  Rb8  1  0.50000000  0.00000000  0.32123000  1
  Rb  Rb9  1  0.00000000  0.00000000  0.17877000  1
  Rb  Rb10  1  0.75000000  0.75000000  0.07123000  1
  Rb  Rb11  1  0.75000000  0.75000000  0.42877000  1
  Rb  Rb12  1  0.50000000  0.50000000  0.82123000  1
  Rb  Rb13  1  0.00000000  0.50000000  0.67877000  1
  Rb  Rb14  1  0.75000000  0.25000000  0.57123000  1
  Rb  Rb15  1  0.75000000  0.25000000  0.92877000  1
  Nb  Nb16  1  0.25000000  0.75000000  0.75000000  1
  Nb  Nb17  1  0.00000000  0.00000000  0.00000000  1
  Nb  Nb18  1  0.25000000  0.25000000  0.25000000  1
  Nb  Nb19  1  0.00000000  0.50000000  0.50000000  1
  Nb  Nb20  1  0.75000000  0.75000000  0.25000000  1
  Nb  Nb21  1  0.50000000  0.00000000  0.50000000  1
  Nb  Nb22  1  0.75000000  0.25000000  0.75000000  1
  Nb  Nb23  1  0.50000000  0.50000000  0.00000000  1
  Cu  Cu24  1  0.75000000  0.75000000  0.75000000  1
  Cu  Cu25  1  0.50000000  0.00000000  0.00000000  1
  Cu  Cu26  1  0.75000000  0.25000000  0.25000000  1
  Cu  Cu27  1  0.50000000  0.50000000  0.50000000  1
  Cu  Cu28  1  0.25000000  0.75000000  0.25000000  1
  Cu  Cu29  1  0.00000000  0.00000000  0.50000000  1
  Cu  Cu30  1  0.25000000  0.25000000  0.75000000  1
  Cu  Cu31  1  0.00000000  0.50000000  0.00000000  1
  Se  Se32  1  0.74567250  0.90165000  0.55520550  1
  Se  Se33  1  0.74567250  0.59835000  0.94479450  1
  Se  Se34  1  0.75432750  0.90165000  0.94479450  1
  Se  Se35  1  0.75432750  0.59835000  0.55520550  1
  Se  Se36  1  0.49567250  0.84835000  0.80520550  1
  Se  Se37  1  0.49567250  0.65165000  0.69479450  1
  Se  Se38  1  0.00432750  0.65165000  0.80520550  1
  Se  Se39  1  0.00432750  0.84835000  0.69479450  1
  Se  Se40  1  0.74567250  0.40165000  0.05520550  1
  Se  Se41  1  0.74567250  0.09835000  0.44479450  1
  Se  Se42  1  0.75432750  0.40165000  0.44479450  1
  Se  Se43  1  0.75432750  0.09835000  0.05520550  1
  Se  Se44  1  0.49567250  0.34835000  0.30520550  1
  Se  Se45  1  0.49567250  0.15165000  0.19479450  1
  Se  Se46  1  0.00432750  0.15165000  0.30520550  1
  Se  Se47  1  0.00432750  0.34835000  0.19479450  1
  Se  Se48  1  0.24567250  0.90165000  0.05520550  1
  Se  Se49  1  0.24567250  0.59835000  0.44479450  1
  Se  Se50  1  0.25432750  0.90165000  0.44479450  1
  Se  Se51  1  0.25432750  0.59835000  0.05520550  1
  Se  Se52  1  0.99567250  0.84835000  0.30520550  1
  Se  Se53  1  0.99567250  0.65165000  0.19479450  1
  Se  Se54  1  0.50432750  0.65165000  0.30520550  1
  Se  Se55  1  0.50432750  0.84835000  0.19479450  1
  Se  Se56  1  0.24567250  0.40165000  0.55520550  1
  Se  Se57  1  0.24567250  0.09835000  0.94479450  1
  Se  Se58  1  0.25432750  0.40165000  0.94479450  1
  Se  Se59  1  0.25432750  0.09835000  0.55520550  1
  Se  Se60  1  0.99567250  0.34835000  0.80520550  1
  Se  Se61  1  0.99567250  0.15165000  0.69479450  1
  Se  Se62  1  0.50432750  0.15165000  0.80520550  1
  Se  Se63  1  0.50432750  0.34835000  0.69479450  1
