# generated using pymatgen
data_Ho2HgO4
_symmetry_space_group_name_H-M   'P 1'
_cell_length_a   13.65611800
_cell_length_b   3.61691400
_cell_length_c   10.11815154
_cell_angle_alpha   90.00000000
_cell_angle_beta   122.64338231
_cell_angle_gamma   90.00000000
_symmetry_Int_Tables_number   1
_chemical_formula_structural   Ho2HgO4
_chemical_formula_sum   'Ho8 Hg4 O16'
_cell_volume   420.82498920
_cell_formula_units_Z   4
loop_
 _symmetry_equiv_pos_site_id
 _symmetry_equiv_pos_as_xyz
  1  'x, y, z'
loop_
 _atom_site_type_symbol
 _atom_site_label
 _atom_site_symmetry_multiplicity
 _atom_site_fract_x
 _atom_site_fract_y
 _atom_site_fract_z
 _atom_site_occupancy
  Ho  Ho0  1  0.11891600  0.00000000  0.46287100  1
  Ho  Ho1  1  0.88108400  0.00000000  0.53712900  1
  Ho  Ho2  1  0.84112800  0.50000000  0.19991600  1
  Ho  Ho3  1  0.15887200  0.50000000  0.80008400  1
  Ho  Ho4  1  0.61891600  0.50000000  0.46287100  1
  Ho  Ho5  1  0.38108400  0.50000000  0.53712900  1
  Ho  Ho6  1  0.34112800  0.00000000  0.19991600  1
  Ho  Ho7  1  0.65887200  0.00000000  0.80008400  1
  Hg  Hg8  1  0.38632800  0.00000000  0.83814000  1
  Hg  Hg9  1  0.61367200  0.00000000  0.16186000  1
  Hg  Hg10  1  0.88632800  0.50000000  0.83814000  1
  Hg  Hg11  1  0.11367200  0.50000000  0.16186000  1
  O  O12  1  0.91781400  0.00000000  0.34741200  1
  O  O13  1  0.08218600  0.00000000  0.65258800  1
  O  O14  1  0.23184600  0.50000000  0.61166100  1
  O  O15  1  0.76815400  0.50000000  0.38833900  1
  O  O16  1  0.29654200  0.00000000  0.94566000  1
  O  O17  1  0.70345800  0.00000000  0.05434000  1
  O  O18  1  0.96538600  0.50000000  0.71675000  1
  O  O19  1  0.03461400  0.50000000  0.28325000  1
  O  O20  1  0.41781400  0.50000000  0.34741200  1
  O  O21  1  0.58218600  0.50000000  0.65258800  1
  O  O22  1  0.73184600  0.00000000  0.61166100  1
  O  O23  1  0.26815400  0.00000000  0.38833900  1
  O  O24  1  0.79654200  0.50000000  0.94566000  1
  O  O25  1  0.20345800  0.50000000  0.05434000  1
  O  O26  1  0.46538600  0.00000000  0.71675000  1
  O  O27  1  0.53461400  0.00000000  0.28325000  1
