# generated using pymatgen
data_SiO2
_symmetry_space_group_name_H-M   'P 1'
_cell_length_a   7.57120200
_cell_length_b   14.34696800
_cell_length_c   19.13503000
_cell_angle_alpha   90.00000000
_cell_angle_beta   90.00000000
_cell_angle_gamma   90.00000000
_symmetry_Int_Tables_number   1
_chemical_formula_structural   SiO2
_chemical_formula_sum   'Si36 O72'
_cell_volume   2078.51953424
_cell_formula_units_Z   36
loop_
 _symmetry_equiv_pos_site_id
 _symmetry_equiv_pos_as_xyz
  1  'x, y, z'
loop_
 _atom_site_type_symbol
 _atom_site_label
 _atom_site_symmetry_multiplicity
 _atom_site_fract_x
 _atom_site_fract_y
 _atom_site_fract_z
 _atom_site_occupancy
  Si  Si0  1  0.29363100  0.50000000  0.72655200  1
  Si  Si1  1  0.29363100  0.50000000  0.27344800  1
  Si  Si2  1  0.70636900  0.50000000  0.27344800  1
  Si  Si3  1  0.70636900  0.50000000  0.72655200  1
  Si  Si4  1  0.00000000  0.50000000  0.84611400  1
  Si  Si5  1  0.00000000  0.50000000  0.15388600  1
  Si  Si6  1  0.00000000  0.29913900  0.08371600  1
  Si  Si7  1  0.00000000  0.70086100  0.91628400  1
  Si  Si8  1  0.00000000  0.29913900  0.91628400  1
  Si  Si9  1  0.00000000  0.70086100  0.08371600  1
  Si  Si10  1  0.70637650  0.79811250  0.17516750  1
  Si  Si11  1  0.70637650  0.20188750  0.82483250  1
  Si  Si12  1  0.29362350  0.79811250  0.82483250  1
  Si  Si13  1  0.29362350  0.20188750  0.17516750  1
  Si  Si14  1  0.29362350  0.20188750  0.82483250  1
  Si  Si15  1  0.29362350  0.79811250  0.17516750  1
  Si  Si16  1  0.70637650  0.20188750  0.17516750  1
  Si  Si17  1  0.70637650  0.79811250  0.82483250  1
  Si  Si18  1  0.79363100  0.00000000  0.22655200  1
  Si  Si19  1  0.79363100  0.00000000  0.77344800  1
  Si  Si20  1  0.20636900  0.00000000  0.77344800  1
  Si  Si21  1  0.20636900  0.00000000  0.22655200  1
  Si  Si22  1  0.50000000  0.00000000  0.34611400  1
  Si  Si23  1  0.50000000  0.00000000  0.65388600  1
  Si  Si24  1  0.50000000  0.79913900  0.58371600  1
  Si  Si25  1  0.50000000  0.20086100  0.41628400  1
  Si  Si26  1  0.50000000  0.79913900  0.41628400  1
  Si  Si27  1  0.50000000  0.20086100  0.58371600  1
  Si  Si28  1  0.20637650  0.29811250  0.67516750  1
  Si  Si29  1  0.20637650  0.70188750  0.32483250  1
  Si  Si30  1  0.79362350  0.29811250  0.32483250  1
  Si  Si31  1  0.79362350  0.70188750  0.67516750  1
  Si  Si32  1  0.79362350  0.70188750  0.32483250  1
  Si  Si33  1  0.79362350  0.29811250  0.67516750  1
  Si  Si34  1  0.20637650  0.70188750  0.67516750  1
  Si  Si35  1  0.20637650  0.29811250  0.32483250  1
  O  O36  1  0.17637200  0.50000000  0.20241400  1
  O  O37  1  0.17637200  0.50000000  0.79758600  1
  O  O38  1  0.82362800  0.50000000  0.79758600  1
  O  O39  1  0.82362800  0.50000000  0.20241400  1
  O  O40  1  0.25000000  0.75000000  0.75000000  1
  O  O41  1  0.75000000  0.75000000  0.75000000  1
  O  O42  1  0.75000000  0.75000000  0.25000000  1
  O  O43  1  0.25000000  0.75000000  0.25000000  1
  O  O44  1  0.50000000  0.21748300  0.15577600  1
  O  O45  1  0.50000000  0.78251700  0.84422400  1
  O  O46  1  0.50000000  0.21748300  0.84422400  1
  O  O47  1  0.50000000  0.78251700  0.15577600  1
  O  O48  1  0.82354300  0.75083400  0.11411900  1
  O  O49  1  0.82354300  0.24916600  0.88588100  1
  O  O50  1  0.17645700  0.75083400  0.88588100  1
  O  O51  1  0.17645700  0.24916600  0.88588100  1
  O  O52  1  0.17645700  0.75083400  0.11411900  1
  O  O53  1  0.82354300  0.24916600  0.11411900  1
  O  O54  1  0.82354300  0.75083400  0.88588100  1
  O  O55  1  0.00000000  0.28883900  0.00000000  1
  O  O56  1  0.00000000  0.71116100  0.00000000  1
  O  O57  1  0.50000000  0.50000000  0.25002000  1
  O  O58  1  0.50000000  0.50000000  0.74998000  1
  O  O59  1  0.24989550  0.40897750  0.32086650  1
  O  O60  1  0.24989550  0.59102250  0.67913350  1
  O  O61  1  0.75010450  0.40897750  0.67913350  1
  O  O62  1  0.75010450  0.59102250  0.32086650  1
  O  O63  1  0.75010450  0.59102250  0.67913350  1
  O  O64  1  0.75010450  0.40897750  0.32086650  1
  O  O65  1  0.24989550  0.59102250  0.32086650  1
  O  O66  1  0.24989550  0.40897750  0.67913350  1
  O  O67  1  0.00000000  0.40880450  0.89569450  1
  O  O68  1  0.00000000  0.59119550  0.10430550  1
  O  O69  1  0.00000000  0.40880450  0.10430550  1
  O  O70  1  0.00000000  0.59119550  0.89569450  1
  O  O71  1  0.17645700  0.24916600  0.11411900  1
  O  O72  1  0.67637200  0.00000000  0.70241400  1
  O  O73  1  0.67637200  0.00000000  0.29758600  1
  O  O74  1  0.32362800  0.00000000  0.29758600  1
  O  O75  1  0.32362800  0.00000000  0.70241400  1
  O  O76  1  0.75000000  0.25000000  0.25000000  1
  O  O77  1  0.25000000  0.25000000  0.25000000  1
  O  O78  1  0.25000000  0.25000000  0.75000000  1
  O  O79  1  0.75000000  0.25000000  0.75000000  1
  O  O80  1  0.00000000  0.71748300  0.65577600  1
  O  O81  1  0.00000000  0.28251700  0.34422400  1
  O  O82  1  0.00000000  0.71748300  0.34422400  1
  O  O83  1  0.00000000  0.28251700  0.65577600  1
  O  O84  1  0.32354300  0.25083400  0.61411900  1
  O  O85  1  0.32354300  0.74916600  0.38588100  1
  O  O86  1  0.67645700  0.25083400  0.38588100  1
  O  O87  1  0.67645700  0.74916600  0.38588100  1
  O  O88  1  0.67645700  0.25083400  0.61411900  1
  O  O89  1  0.32354300  0.74916600  0.61411900  1
  O  O90  1  0.32354300  0.25083400  0.38588100  1
  O  O91  1  0.50000000  0.78883900  0.50000000  1
  O  O92  1  0.50000000  0.21116100  0.50000000  1
  O  O93  1  0.00000000  0.00000000  0.75002000  1
  O  O94  1  0.00000000  0.00000000  0.24998000  1
  O  O95  1  0.74989550  0.90897750  0.82086650  1
  O  O96  1  0.74989550  0.09102250  0.17913350  1
  O  O97  1  0.25010450  0.90897750  0.17913350  1
  O  O98  1  0.25010450  0.09102250  0.82086650  1
  O  O99  1  0.25010450  0.09102250  0.17913350  1
  O  O100  1  0.25010450  0.90897750  0.82086650  1
  O  O101  1  0.74989550  0.09102250  0.82086650  1
  O  O102  1  0.74989550  0.90897750  0.17913350  1
  O  O103  1  0.50000000  0.90880450  0.39569450  1
  O  O104  1  0.50000000  0.09119550  0.60430550  1
  O  O105  1  0.50000000  0.90880450  0.60430550  1
  O  O106  1  0.50000000  0.09119550  0.39569450  1
  O  O107  1  0.67645700  0.74916600  0.61411900  1
