# generated using pymatgen
data_In2HgTe4
_symmetry_space_group_name_H-M   'P 1'
_cell_length_a   6.41349600
_cell_length_b   6.41349600
_cell_length_c   12.71792200
_cell_angle_alpha   90.00000000
_cell_angle_beta   90.00000000
_cell_angle_gamma   90.00000000
_symmetry_Int_Tables_number   1
_chemical_formula_structural   In2HgTe4
_chemical_formula_sum   'In4 Hg2 Te8'
_cell_volume   523.12540735
_cell_formula_units_Z   2
loop_
 _symmetry_equiv_pos_site_id
 _symmetry_equiv_pos_as_xyz
  1  'x, y, z'
loop_
 _atom_site_type_symbol
 _atom_site_label
 _atom_site_symmetry_multiplicity
 _atom_site_fract_x
 _atom_site_fract_y
 _atom_site_fract_z
 _atom_site_occupancy
  In  In0  1  0.50000000  0.00000000  0.25000000  1
  In  In1  1  0.50000000  0.50000000  0.00000000  1
  In  In2  1  0.00000000  0.50000000  0.75000000  1
  In  In3  1  0.00000000  0.00000000  0.50000000  1
  Hg  Hg4  1  0.00000000  0.00000000  0.00000000  1
  Hg  Hg5  1  0.50000000  0.50000000  0.50000000  1
  Te  Te6  1  0.22437400  0.73023700  0.36261700  1
  Te  Te7  1  0.77562600  0.26976300  0.36261700  1
  Te  Te8  1  0.23023700  0.27562600  0.13738300  1
  Te  Te9  1  0.76976300  0.72437400  0.13738300  1
  Te  Te10  1  0.72437400  0.23023700  0.86261700  1
  Te  Te11  1  0.27562600  0.76976300  0.86261700  1
  Te  Te12  1  0.73023700  0.77562600  0.63738300  1
  Te  Te13  1  0.26976300  0.22437400  0.63738300  1
