# generated using pymatgen
data_La4B10O21
_symmetry_space_group_name_H-M   'P 1'
_cell_length_a   7.22427300
_cell_length_b   19.85499900
_cell_length_c   11.68403863
_cell_angle_alpha   90.00000000
_cell_angle_beta   124.41138608
_cell_angle_gamma   90.00000000
_symmetry_Int_Tables_number   1
_chemical_formula_structural   La4B10O21
_chemical_formula_sum   'La16 B40 O84'
_cell_volume   1382.64786755
_cell_formula_units_Z   4
loop_
 _symmetry_equiv_pos_site_id
 _symmetry_equiv_pos_as_xyz
  1  'x, y, z'
loop_
 _atom_site_type_symbol
 _atom_site_label
 _atom_site_symmetry_multiplicity
 _atom_site_fract_x
 _atom_site_fract_y
 _atom_site_fract_z
 _atom_site_occupancy
  La  La0  1  0.46490000  0.30002600  0.33867500  1
  La  La1  1  0.46490000  0.19997400  0.83867500  1
  La  La2  1  0.53510000  0.69997400  0.66132500  1
  La  La3  1  0.53510000  0.80002600  0.16132500  1
  La  La4  1  0.92682600  0.20484700  0.32338400  1
  La  La5  1  0.92682600  0.29515300  0.82338400  1
  La  La6  1  0.07317400  0.79515300  0.67661600  1
  La  La7  1  0.07317400  0.70484700  0.17661600  1
  La  La8  1  0.47544400  0.08182800  0.34035900  1
  La  La9  1  0.47544400  0.41817200  0.84035900  1
  La  La10  1  0.52455600  0.91817200  0.65964100  1
  La  La11  1  0.52455600  0.58182800  0.15964100  1
  La  La12  1  0.00187100  0.42032500  0.35007100  1
  La  La13  1  0.00187100  0.07967500  0.85007100  1
  La  La14  1  0.99812900  0.57967500  0.64992900  1
  La  La15  1  0.99812900  0.92032500  0.14992900  1
  B  B16  1  0.03531300  0.09314700  0.55352700  1
  B  B17  1  0.03531300  0.40685300  0.05352700  1
  B  B18  1  0.96468700  0.90685300  0.44647300  1
  B  B19  1  0.96468700  0.59314700  0.94647300  1
  B  B20  1  0.08437400  0.02161800  0.39282000  1
  B  B21  1  0.08437400  0.47838200  0.89282000  1
  B  B22  1  0.91562600  0.97838200  0.60718000  1
  B  B23  1  0.91562600  0.52161800  0.10718000  1
  B  B24  1  0.52449600  0.09416300  0.05399100  1
  B  B25  1  0.52449600  0.40583700  0.55399100  1
  B  B26  1  0.47550400  0.90583700  0.94600900  1
  B  B27  1  0.47550400  0.59416300  0.44600900  1
  B  B28  1  0.59821800  0.47522200  0.39562800  1
  B  B29  1  0.59821800  0.02477800  0.89562800  1
  B  B30  1  0.40178200  0.52477800  0.60437200  1
  B  B31  1  0.40178200  0.97522200  0.10437200  1
  B  B32  1  0.93206100  0.07854100  0.13515000  1
  B  B33  1  0.93206100  0.42145900  0.63515000  1
  B  B34  1  0.06793900  0.92145900  0.86485000  1
  B  B35  1  0.06793900  0.57854100  0.36485000  1
  B  B36  1  0.99875900  0.18878300  0.04686600  1
  B  B37  1  0.99875900  0.31121700  0.54686600  1
  B  B38  1  0.00124100  0.81121700  0.95313400  1
  B  B39  1  0.00124100  0.68878300  0.45313400  1
  B  B40  1  0.40922700  0.29427600  0.62159200  1
  B  B41  1  0.40922700  0.20572400  0.12159200  1
  B  B42  1  0.59077300  0.70572400  0.37840800  1
  B  B43  1  0.59077300  0.79427600  0.87840800  1
  B  B44  1  0.43232700  0.42733400  0.12907300  1
  B  B45  1  0.43232700  0.07266600  0.62907300  1
  B  B46  1  0.56767300  0.57266600  0.87092700  1
  B  B47  1  0.56767300  0.92733400  0.37092700  1
  B  B48  1  0.48036500  0.17872200  0.54697500  1
  B  B49  1  0.48036500  0.32127800  0.04697500  1
  B  B50  1  0.51963500  0.82127800  0.45302500  1
  B  B51  1  0.51963500  0.67872200  0.95302500  1
  B  B52  1  0.93777100  0.29835600  0.11993200  1
  B  B53  1  0.93777100  0.20164400  0.61993200  1
  B  B54  1  0.06222900  0.70164400  0.88006800  1
  B  B55  1  0.06222900  0.79835600  0.38006800  1
  O  O56  1  0.67785300  0.97881400  0.47999500  1
  O  O57  1  0.67785300  0.52118600  0.97999500  1
  O  O58  1  0.32214700  0.02118600  0.52000500  1
  O  O59  1  0.32214700  0.47881400  0.02000500  1
  O  O60  1  0.38563700  0.34234400  0.51861600  1
  O  O61  1  0.38563700  0.15765600  0.01861600  1
  O  O62  1  0.61436300  0.65765600  0.48138400  1
  O  O63  1  0.61436300  0.84234400  0.98138400  1
  O  O64  1  0.27226800  0.38220000  0.12870800  1
  O  O65  1  0.27226800  0.11780000  0.62870800  1
  O  O66  1  0.72773200  0.61780000  0.87129200  1
  O  O67  1  0.72773200  0.88220000  0.37129200  1
  O  O68  1  0.88917200  0.15549300  0.51854100  1
  O  O69  1  0.88917200  0.34450700  0.01854100  1
  O  O70  1  0.11082800  0.84450700  0.48145900  1
  O  O71  1  0.11082800  0.65549300  0.98145900  1
  O  O72  1  0.76051600  0.11336600  0.13934000  1
  O  O73  1  0.76051600  0.38663400  0.63934000  1
  O  O74  1  0.23948400  0.88663400  0.86066000  1
  O  O75  1  0.23948400  0.61336600  0.36066000  1
  O  O76  1  0.84814400  0.32229200  0.39907500  1
  O  O77  1  0.84814400  0.17770800  0.89907500  1
  O  O78  1  0.15185600  0.67770800  0.60092500  1
  O  O79  1  0.15185600  0.82229200  0.10092500  1
  O  O80  1  0.59656800  0.45851600  0.26705300  1
  O  O81  1  0.59656800  0.04148400  0.76705300  1
  O  O82  1  0.40343200  0.54148400  0.73294700  1
  O  O83  1  0.40343200  0.95851600  0.23294700  1
  O  O84  1  0.45637000  0.42915000  0.41362600  1
  O  O85  1  0.45637000  0.07085000  0.91362600  1
  O  O86  1  0.54363000  0.57085000  0.58637400  1
  O  O87  1  0.54363000  0.92915000  0.08637400  1
  O  O88  1  0.33585400  0.18792200  0.40827900  1
  O  O89  1  0.33585400  0.31207800  0.90827900  1
  O  O90  1  0.66414600  0.81207800  0.59172100  1
  O  O91  1  0.66414600  0.68792200  0.09172100  1
  O  O92  1  0.95373600  0.07001700  0.41383400  1
  O  O93  1  0.95373600  0.42998300  0.91383400  1
  O  O94  1  0.04626400  0.92998300  0.58616600  1
  O  O95  1  0.04626400  0.57001700  0.08616600  1
  O  O96  1  0.06183000  0.31307500  0.25651700  1
  O  O97  1  0.06183000  0.18692500  0.75651700  1
  O  O98  1  0.93817000  0.68692500  0.74348300  1
  O  O99  1  0.93817000  0.81307500  0.24348300  1
  O  O100  1  0.54353000  0.18233800  0.26319100  1
  O  O101  1  0.54353000  0.31766200  0.76319100  1
  O  O102  1  0.45647000  0.81766200  0.73680900  1
  O  O103  1  0.45647000  0.68233800  0.23680900  1
  O  O104  1  0.00186400  0.04791200  0.63826900  1
  O  O105  1  0.00186400  0.45208800  0.13826900  1
  O  O106  1  0.99813600  0.95208800  0.36173100  1
  O  O107  1  0.99813600  0.54791200  0.86173100  1
  O  O108  1  0.18873200  0.26619400  0.58051400  1
  O  O109  1  0.18873200  0.23380600  0.08051400  1
  O  O110  1  0.81126800  0.73380600  0.41948600  1
  O  O111  1  0.81126800  0.76619400  0.91948600  1
  O  O112  1  0.90785300  0.96035400  0.73154000  1
  O  O113  1  0.90785300  0.53964600  0.23154000  1
  O  O114  1  0.09214700  0.03964600  0.26846000  1
  O  O115  1  0.09214700  0.46035400  0.76846000  1
  O  O116  1  0.08302000  0.12738600  0.12920700  1
  O  O117  1  0.08302000  0.37261400  0.62920700  1
  O  O118  1  0.91698000  0.87261400  0.87079300  1
  O  O119  1  0.91698000  0.62738600  0.37079300  1
  O  O120  1  0.58100100  0.38466100  0.10047500  1
  O  O121  1  0.58100100  0.11533900  0.60047500  1
  O  O122  1  0.41899900  0.61533900  0.89952500  1
  O  O123  1  0.41899900  0.88466100  0.39952500  1
  O  O124  1  0.83731800  0.03060200  0.01775600  1
  O  O125  1  0.83731800  0.46939800  0.51775600  1
  O  O126  1  0.16268200  0.96939800  0.98224400  1
  O  O127  1  0.16268200  0.53060200  0.48224400  1
  O  O128  1  0.85540700  0.23247800  0.08133400  1
  O  O129  1  0.85540700  0.26752200  0.58133400  1
  O  O130  1  0.14459300  0.76752200  0.91866600  1
  O  O131  1  0.14459300  0.73247800  0.41866600  1
  O  O132  1  0.54733200  0.26862300  0.13890900  1
  O  O133  1  0.54733200  0.23137700  0.63890900  1
  O  O134  1  0.45266800  0.73137700  0.86109100  1
  O  O135  1  0.45266800  0.76862300  0.36109100  1
  O  O136  1  0.46004800  0.04754800  0.12319700  1
  O  O137  1  0.46004800  0.45245200  0.62319700  1
  O  O138  1  0.53995200  0.95245200  0.87680300  1
  O  O139  1  0.53995200  0.54754800  0.37680300  1
