# generated using pymatgen
data_Sr3AlSb3
_symmetry_space_group_name_H-M   'P 1'
_cell_length_a   6.96511400
_cell_length_b   20.63238000
_cell_length_c   13.63881400
_cell_angle_alpha   90.00000000
_cell_angle_beta   90.00000000
_cell_angle_gamma   90.00000000
_symmetry_Int_Tables_number   1
_chemical_formula_structural   Sr3AlSb3
_chemical_formula_sum   'Sr24 Al8 Sb24'
_cell_volume   1959.99139036
_cell_formula_units_Z   8
loop_
 _symmetry_equiv_pos_site_id
 _symmetry_equiv_pos_as_xyz
  1  'x, y, z'
loop_
 _atom_site_type_symbol
 _atom_site_label
 _atom_site_symmetry_multiplicity
 _atom_site_fract_x
 _atom_site_fract_y
 _atom_site_fract_z
 _atom_site_occupancy
  Sr  Sr0  1  0.18986400  0.00000000  0.35410000  1
  Sr  Sr1  1  0.68986400  0.00000000  0.14590000  1
  Sr  Sr2  1  0.31013600  0.00000000  0.85410000  1
  Sr  Sr3  1  0.81013600  0.00000000  0.64590000  1
  Sr  Sr4  1  0.19730650  0.32405050  0.87088700  1
  Sr  Sr5  1  0.19730650  0.17594950  0.62911300  1
  Sr  Sr6  1  0.80269350  0.17594950  0.37088700  1
  Sr  Sr7  1  0.80269350  0.32405050  0.12911300  1
  Sr  Sr8  1  0.30269350  0.17594950  0.12911300  1
  Sr  Sr9  1  0.30269350  0.32405050  0.37088700  1
  Sr  Sr10  1  0.69730650  0.32405050  0.62911300  1
  Sr  Sr11  1  0.69730650  0.17594950  0.87088700  1
  Sr  Sr12  1  0.68986400  0.50000000  0.35410000  1
  Sr  Sr13  1  0.18986400  0.50000000  0.14590000  1
  Sr  Sr14  1  0.81013600  0.50000000  0.85410000  1
  Sr  Sr15  1  0.31013600  0.50000000  0.64590000  1
  Sr  Sr16  1  0.69730650  0.82405050  0.87088700  1
  Sr  Sr17  1  0.69730650  0.67594950  0.62911300  1
  Sr  Sr18  1  0.30269350  0.67594950  0.37088700  1
  Sr  Sr19  1  0.30269350  0.82405050  0.12911300  1
  Sr  Sr20  1  0.80269350  0.67594950  0.12911300  1
  Sr  Sr21  1  0.80269350  0.82405050  0.37088700  1
  Sr  Sr22  1  0.19730650  0.82405050  0.62911300  1
  Sr  Sr23  1  0.19730650  0.67594950  0.87088700  1
  Al  Al24  1  0.50000000  0.41371300  0.00000000  1
  Al  Al25  1  0.50000000  0.08628700  0.50000000  1
  Al  Al26  1  0.00000000  0.08628700  0.00000000  1
  Al  Al27  1  0.00000000  0.41371300  0.50000000  1
  Al  Al28  1  0.00000000  0.91371300  0.00000000  1
  Al  Al29  1  0.00000000  0.58628700  0.50000000  1
  Al  Al30  1  0.50000000  0.58628700  0.00000000  1
  Al  Al31  1  0.50000000  0.91371300  0.50000000  1
  Sb  Sb32  1  0.71206200  0.00000000  0.39241300  1
  Sb  Sb33  1  0.21206200  0.00000000  0.10758700  1
  Sb  Sb34  1  0.78793800  0.00000000  0.89241300  1
  Sb  Sb35  1  0.28793800  0.00000000  0.60758700  1
  Sb  Sb36  1  0.71194600  0.33943400  0.87723000  1
  Sb  Sb37  1  0.71194600  0.16056600  0.62277000  1
  Sb  Sb38  1  0.28805400  0.16056600  0.37723000  1
  Sb  Sb39  1  0.28805400  0.33943400  0.12277000  1
  Sb  Sb40  1  0.78805400  0.16056600  0.12277000  1
  Sb  Sb41  1  0.78805400  0.33943400  0.37723000  1
  Sb  Sb42  1  0.21194600  0.33943400  0.62277000  1
  Sb  Sb43  1  0.21194600  0.16056600  0.87723000  1
  Sb  Sb44  1  0.21206200  0.50000000  0.39241300  1
  Sb  Sb45  1  0.71206200  0.50000000  0.10758700  1
  Sb  Sb46  1  0.28793800  0.50000000  0.89241300  1
  Sb  Sb47  1  0.78793800  0.50000000  0.60758700  1
  Sb  Sb48  1  0.21194600  0.83943400  0.87723000  1
  Sb  Sb49  1  0.21194600  0.66056600  0.62277000  1
  Sb  Sb50  1  0.78805400  0.66056600  0.37723000  1
  Sb  Sb51  1  0.78805400  0.83943400  0.12277000  1
  Sb  Sb52  1  0.28805400  0.66056600  0.12277000  1
  Sb  Sb53  1  0.28805400  0.83943400  0.37723000  1
  Sb  Sb54  1  0.71194600  0.83943400  0.62277000  1
  Sb  Sb55  1  0.71194600  0.66056600  0.87723000  1
