# generated using pymatgen
data_Ba2Re6S11
_symmetry_space_group_name_H-M   'P 1'
_cell_length_a   9.32055413
_cell_length_b   9.32055413
_cell_length_c   32.31943024
_cell_angle_alpha   90.00000000
_cell_angle_beta   90.00000000
_cell_angle_gamma   120.00000000
_symmetry_Int_Tables_number   1
_chemical_formula_structural   Ba2Re6S11
_chemical_formula_sum   'Ba12 Re36 S66'
_cell_volume   2431.51970727
_cell_formula_units_Z   6
loop_
 _symmetry_equiv_pos_site_id
 _symmetry_equiv_pos_as_xyz
  1  'x, y, z'
loop_
 _atom_site_type_symbol
 _atom_site_label
 _atom_site_symmetry_multiplicity
 _atom_site_fract_x
 _atom_site_fract_y
 _atom_site_fract_z
 _atom_site_occupancy
  Ba  Ba0  1  0.66666667  0.33333333  0.02195533  1
  Ba  Ba1  1  0.66666667  0.33333333  0.14471133  1
  Ba  Ba2  1  0.00000000  0.00000000  0.31137800  1
  Ba  Ba3  1  0.00000000  0.00000000  0.18862200  1
  Ba  Ba4  1  0.33333333  0.66666667  0.35528867  1
  Ba  Ba5  1  0.33333333  0.66666667  0.47804467  1
  Ba  Ba6  1  0.66666667  0.33333333  0.64471133  1
  Ba  Ba7  1  0.66666667  0.33333333  0.52195533  1
  Ba  Ba8  1  0.00000000  0.00000000  0.68862200  1
  Ba  Ba9  1  0.00000000  1.00000000  0.81137800  1
  Ba  Ba10  1  0.33333333  0.66666667  0.97804467  1
  Ba  Ba11  1  0.33333333  0.66666667  0.85528867  1
  Re  Re12  1  0.50671600  0.68932000  0.20050600  1
  Re  Re13  1  0.18260400  0.49328400  0.20050600  1
  Re  Re14  1  0.84927067  0.02265333  0.03383933  1
  Re  Re15  1  0.17338267  0.15072933  0.03383933  1
  Re  Re16  1  0.97734667  0.82661733  0.03383933  1
  Re  Re17  1  0.35598667  0.51593733  0.13282733  1
  Re  Re18  1  0.15995067  0.64401333  0.13282733  1
  Re  Re19  1  0.48406267  0.84004933  0.13282733  1
  Re  Re20  1  0.31068000  0.81739600  0.20050600  1
  Re  Re21  1  0.68932000  0.50671600  0.29949400  1
  Re  Re22  1  0.49328400  0.18260400  0.29949400  1
  Re  Re23  1  0.81739600  0.31068000  0.29949400  1
  Re  Re24  1  0.17338267  0.02265333  0.53383933  1
  Re  Re25  1  0.84927067  0.82661733  0.53383933  1
  Re  Re26  1  0.51593733  0.35598667  0.36717267  1
  Re  Re27  1  0.84004933  0.48406267  0.36717267  1
  Re  Re28  1  0.64401333  0.15995067  0.36717267  1
  Re  Re29  1  0.02265333  0.84927067  0.46616067  1
  Re  Re30  1  0.82661733  0.97734667  0.46616067  1
  Re  Re31  1  0.15072933  0.17338267  0.46616067  1
  Re  Re32  1  0.97734667  0.15072933  0.53383933  1
  Re  Re33  1  0.35598667  0.84004933  0.63282733  1
  Re  Re34  1  0.15995067  0.51593733  0.63282733  1
  Re  Re35  1  0.48406267  0.64401333  0.63282733  1
  Re  Re36  1  0.84004933  0.35598667  0.86717267  1
  Re  Re37  1  0.51593733  0.15995067  0.86717267  1
  Re  Re38  1  0.18260400  0.68932000  0.70050600  1
  Re  Re39  1  0.50671600  0.81739600  0.70050600  1
  Re  Re40  1  0.31068000  0.49328400  0.70050600  1
  Re  Re41  1  0.68932000  0.18260400  0.79949400  1
  Re  Re42  1  0.49328400  0.31068000  0.79949400  1
  Re  Re43  1  0.81739600  0.50671600  0.79949400  1
  Re  Re44  1  0.64401333  0.48406267  0.86717267  1
  Re  Re45  1  0.02265333  0.17338267  0.96616067  1
  Re  Re46  1  0.82661733  0.84927067  0.96616067  1
  Re  Re47  1  0.15072933  0.97734667  0.96616067  1
  S  S48  1  0.66666667  0.33333333  0.24249333  1
  S  S49  1  0.33333333  0.66666667  0.25750667  1
  S  S50  1  0.00000000  0.00000000  0.09084000  1
  S  S51  1  0.33333333  0.66666667  0.07582667  1
  S  S52  1  0.93448367  0.60115033  0.08333333  1
  S  S53  1  0.66666667  0.06551633  0.08333333  1
  S  S54  1  0.39884967  0.33333333  0.08333333  1
  S  S55  1  0.73218300  0.73218300  0.25000000  1
  S  S56  1  0.00000000  0.26781700  0.25000000  1
  S  S57  1  0.26781700  1.00000000  0.25000000  1
  S  S58  1  0.98638733  0.61049867  0.30311167  1
  S  S59  1  0.62411133  0.01361267  0.30311167  1
  S  S60  1  0.38950133  0.37588867  0.30311167  1
  S  S61  1  0.61049867  0.98638733  0.19688833  1
  S  S62  1  0.37588867  0.38950133  0.19688833  1
  S  S63  1  0.01361267  0.62411133  0.19688833  1
  S  S64  1  0.65305400  0.70922200  0.13644500  1
  S  S65  1  0.29077800  0.94383200  0.13644500  1
  S  S66  1  0.05616800  0.34694600  0.13644500  1
  S  S67  1  0.27716533  0.95744467  0.03022167  1
  S  S68  1  0.04255533  0.31972067  0.03022167  1
  S  S69  1  0.68027933  0.72283467  0.03022167  1
  S  S70  1  0.33333333  0.66666667  0.57582667  1
  S  S71  1  0.00000000  0.00000000  0.59084000  1
  S  S72  1  0.66666667  0.33333333  0.42417333  1
  S  S73  1  0.00000000  0.00000000  0.40916000  1
  S  S74  1  0.60115033  0.93448367  0.41666667  1
  S  S75  1  0.33333333  0.39884967  0.41666667  1
  S  S76  1  0.06551633  0.66666667  0.41666667  1
  S  S77  1  0.39884967  0.06551633  0.58333333  1
  S  S78  1  0.66666667  0.60115033  0.58333333  1
  S  S79  1  0.93448367  0.33333333  0.58333333  1
  S  S80  1  0.65305400  0.94383200  0.63644500  1
  S  S81  1  0.29077800  0.34694600  0.63644500  1
  S  S82  1  0.05616800  0.70922200  0.63644500  1
  S  S83  1  0.27716533  0.31972067  0.53022167  1
  S  S84  1  0.04255533  0.72283467  0.53022167  1
  S  S85  1  0.68027933  0.95744467  0.53022167  1
  S  S86  1  0.31972067  0.04255533  0.46977833  1
  S  S87  1  0.95744467  0.27716533  0.46977833  1
  S  S88  1  0.72283467  0.68027933  0.46977833  1
  S  S89  1  0.94383200  0.29077800  0.36355500  1
  S  S90  1  0.70922200  0.65305400  0.36355500  1
  S  S91  1  0.34694600  0.05616800  0.36355500  1
  S  S92  1  0.00000000  0.00000000  0.90916000  1
  S  S93  1  0.66666667  0.33333333  0.92417333  1
  S  S94  1  0.33333333  0.66666667  0.75750667  1
  S  S95  1  0.66666667  0.33333333  0.74249333  1
  S  S96  1  0.26781700  0.26781700  0.75000000  1
  S  S97  1  0.00000000  0.73218300  0.75000000  1
  S  S98  1  0.73218300  0.00000000  0.75000000  1
  S  S99  1  0.06551633  0.39884967  0.91666667  1
  S  S100  1  0.33333333  0.93448367  0.91666667  1
  S  S101  1  0.60115033  0.66666667  0.91666667  1
  S  S102  1  0.31972067  0.27716533  0.96977833  1
  S  S103  1  0.95744467  0.68027933  0.96977833  1
  S  S104  1  0.72283467  0.04255533  0.96977833  1
  S  S105  1  0.94383200  0.65305400  0.86355500  1
  S  S106  1  0.70922200  0.05616800  0.86355500  1
  S  S107  1  0.34694600  0.29077800  0.86355500  1
  S  S108  1  0.98638733  0.37588867  0.80311167  1
  S  S109  1  0.62411133  0.61049867  0.80311167  1
  S  S110  1  0.38950133  0.01361267  0.80311167  1
  S  S111  1  0.61049867  0.62411133  0.69688833  1
  S  S112  1  0.37588867  0.98638733  0.69688833  1
  S  S113  1  0.01361267  0.38950133  0.69688833  1
