# generated using pymatgen
data_Li2PNO2
_symmetry_space_group_name_H-M   'P 1'
_cell_length_a   5.46102600
_cell_length_b   9.15586800
_cell_length_c   4.74896900
_cell_angle_alpha   90.00000000
_cell_angle_beta   90.00000000
_cell_angle_gamma   90.00000000
_symmetry_Int_Tables_number   1
_chemical_formula_structural   Li2PNO2
_chemical_formula_sum   'Li8 P4 N4 O8'
_cell_volume   237.45050726
_cell_formula_units_Z   4
loop_
 _symmetry_equiv_pos_site_id
 _symmetry_equiv_pos_as_xyz
  1  'x, y, z'
loop_
 _atom_site_type_symbol
 _atom_site_label
 _atom_site_symmetry_multiplicity
 _atom_site_fract_x
 _atom_site_fract_y
 _atom_site_fract_z
 _atom_site_occupancy
  Li  Li0  1  0.65946450  0.66567150  0.50155600  1
  Li  Li1  1  0.65946450  0.33432850  0.50155600  1
  Li  Li2  1  0.34053550  0.33432850  0.00155600  1
  Li  Li3  1  0.34053550  0.66567150  0.00155600  1
  Li  Li4  1  0.15946450  0.16567150  0.50155600  1
  Li  Li5  1  0.15946450  0.83432850  0.50155600  1
  Li  Li6  1  0.84053550  0.83432850  0.00155600  1
  Li  Li7  1  0.84053550  0.16567150  0.00155600  1
  P  P8  1  0.65375000  0.00000000  0.49851100  1
  P  P9  1  0.34625000  0.00000000  0.99851100  1
  P  P10  1  0.15375000  0.50000000  0.49851100  1
  P  P11  1  0.84625000  0.50000000  0.99851100  1
  N  N12  1  0.38700000  0.00000000  0.34117600  1
  N  N13  1  0.61300000  0.00000000  0.84117600  1
  N  N14  1  0.88700000  0.50000000  0.34117600  1
  N  N15  1  0.11300000  0.50000000  0.84117600  1
  O  O16  1  0.80545000  0.13904700  0.41910100  1
  O  O17  1  0.80545000  0.86095300  0.41910100  1
  O  O18  1  0.19455000  0.86095300  0.91910100  1
  O  O19  1  0.19455000  0.13904700  0.91910100  1
  O  O20  1  0.30545000  0.63904700  0.41910100  1
  O  O21  1  0.30545000  0.36095300  0.41910100  1
  O  O22  1  0.69455000  0.36095300  0.91910100  1
  O  O23  1  0.69455000  0.63904700  0.91910100  1
