# generated using pymatgen
data_Sn2S3
_symmetry_space_group_name_H-M   'P 1'
_cell_length_a   3.80154900
_cell_length_b   9.27176800
_cell_length_c   14.43049400
_cell_angle_alpha   90.00000000
_cell_angle_beta   90.00000000
_cell_angle_gamma   90.00000000
_symmetry_Int_Tables_number   1
_chemical_formula_structural   Sn2S3
_chemical_formula_sum   'Sn8 S12'
_cell_volume   508.63278178
_cell_formula_units_Z   4
loop_
 _symmetry_equiv_pos_site_id
 _symmetry_equiv_pos_as_xyz
  1  'x, y, z'
loop_
 _atom_site_type_symbol
 _atom_site_label
 _atom_site_symmetry_multiplicity
 _atom_site_fract_x
 _atom_site_fract_y
 _atom_site_fract_z
 _atom_site_occupancy
  Sn  Sn0  1  0.75000000  0.84026400  0.04990400  1
  Sn  Sn1  1  0.25000000  0.15973600  0.95009600  1
  Sn  Sn2  1  0.75000000  0.34026400  0.45009600  1
  Sn  Sn3  1  0.25000000  0.65973600  0.54990400  1
  Sn  Sn4  1  0.75000000  0.46851600  0.83706000  1
  Sn  Sn5  1  0.25000000  0.53148400  0.16294000  1
  Sn  Sn6  1  0.75000000  0.96851600  0.66294000  1
  Sn  Sn7  1  0.25000000  0.03148400  0.33706000  1
  S  S8  1  0.75000000  0.98212900  0.89491000  1
  S  S9  1  0.25000000  0.01787100  0.10509000  1
  S  S10  1  0.75000000  0.48212900  0.60509000  1
  S  S11  1  0.25000000  0.51787100  0.39491000  1
  S  S12  1  0.75000000  0.33147800  0.00498700  1
  S  S13  1  0.25000000  0.66852200  0.99501300  1
  S  S14  1  0.75000000  0.83147800  0.49501300  1
  S  S15  1  0.25000000  0.16852200  0.50498700  1
  S  S16  1  0.75000000  0.71969800  0.20756800  1
  S  S17  1  0.25000000  0.28030200  0.79243200  1
  S  S18  1  0.75000000  0.21969800  0.29243200  1
  S  S19  1  0.25000000  0.78030200  0.70756800  1
