# generated using pymatgen
data_Li2WO4
_symmetry_space_group_name_H-M   'P 1'
_cell_length_a   10.00656600
_cell_length_b   5.97457000
_cell_length_c   5.17026890
_cell_angle_alpha   90.00000000
_cell_angle_beta   91.54840171
_cell_angle_gamma   90.00000000
_symmetry_Int_Tables_number   1
_chemical_formula_structural   Li2WO4
_chemical_formula_sum   'Li8 W4 O16'
_cell_volume   308.99129127
_cell_formula_units_Z   4
loop_
 _symmetry_equiv_pos_site_id
 _symmetry_equiv_pos_as_xyz
  1  'x, y, z'
loop_
 _atom_site_type_symbol
 _atom_site_label
 _atom_site_symmetry_multiplicity
 _atom_site_fract_x
 _atom_site_fract_y
 _atom_site_fract_z
 _atom_site_occupancy
  Li  Li0  1  0.69259750  0.15006550  0.27141700  1
  Li  Li1  1  0.30740250  0.15006550  0.22858300  1
  Li  Li2  1  0.30740250  0.84993450  0.72858300  1
  Li  Li3  1  0.69259750  0.84993450  0.77141700  1
  Li  Li4  1  0.19259750  0.65006550  0.27141700  1
  Li  Li5  1  0.80740250  0.65006550  0.22858300  1
  Li  Li6  1  0.80740250  0.34993450  0.72858300  1
  Li  Li7  1  0.19259750  0.34993450  0.77141700  1
  W  W8  1  0.50000000  0.66272800  0.25000000  1
  W  W9  1  0.50000000  0.33727200  0.75000000  1
  W  W10  1  0.00000000  0.16272800  0.25000000  1
  W  W11  1  0.00000000  0.83727200  0.75000000  1
  O  O12  1  0.37004450  0.14711750  0.86385700  1
  O  O13  1  0.37004450  0.85288250  0.36385700  1
  O  O14  1  0.39719350  0.39563550  0.42842200  1
  O  O15  1  0.60280650  0.39563550  0.07157800  1
  O  O16  1  0.60280650  0.60436450  0.57157800  1
  O  O17  1  0.39719350  0.60436450  0.92842200  1
  O  O18  1  0.62995550  0.85288250  0.13614300  1
  O  O19  1  0.62995550  0.14711750  0.63614300  1
  O  O20  1  0.87004450  0.64711750  0.86385700  1
  O  O21  1  0.87004450  0.35288250  0.36385700  1
  O  O22  1  0.89719350  0.89563550  0.42842200  1
  O  O23  1  0.10280650  0.89563550  0.07157800  1
  O  O24  1  0.10280650  0.10436450  0.57157800  1
  O  O25  1  0.89719350  0.10436450  0.92842200  1
  O  O26  1  0.12995550  0.35288250  0.13614300  1
  O  O27  1  0.12995550  0.64711750  0.63614300  1
