# generated using pymatgen
data_Sr2Nb2O7
_symmetry_space_group_name_H-M   'P 1'
_cell_length_a   5.80171801
_cell_length_b   7.97565209
_cell_length_c   27.35209340
_cell_angle_alpha   90.00000000
_cell_angle_beta   90.00000000
_cell_angle_gamma   90.00000000
_symmetry_Int_Tables_number   1
_chemical_formula_structural   Sr2Nb2O7
_chemical_formula_sum   'Sr16 Nb16 O56'
_cell_volume   1265.64931439
_cell_formula_units_Z   8
loop_
 _symmetry_equiv_pos_site_id
 _symmetry_equiv_pos_as_xyz
  1  'x, y, z'
loop_
 _atom_site_type_symbol
 _atom_site_label
 _atom_site_symmetry_multiplicity
 _atom_site_fract_x
 _atom_site_fract_y
 _atom_site_fract_z
 _atom_site_occupancy
  Sr  Sr0  1  0.66926101  0.62524856  0.53741811  1
  Sr  Sr1  1  0.16926101  0.37475144  0.46258189  1
  Sr  Sr2  1  0.66926101  0.87475144  0.03741811  1
  Sr  Sr3  1  0.16926101  0.12524856  0.96258189  1
  Sr  Sr4  1  0.25564530  0.62502365  0.70155986  1
  Sr  Sr5  1  0.75564530  0.37497635  0.29844014  1
  Sr  Sr6  1  0.25564530  0.87497635  0.20155986  1
  Sr  Sr7  1  0.75564530  0.12502365  0.79844014  1
  Sr  Sr8  1  0.75709380  0.62462136  0.80481350  1
  Sr  Sr9  1  0.25709380  0.37537864  0.19518650  1
  Sr  Sr10  1  0.75709380  0.87537864  0.30481350  1
  Sr  Sr11  1  0.25709380  0.12462136  0.69518650  1
  Sr  Sr12  1  0.21241996  0.62142977  0.95106236  1
  Sr  Sr13  1  0.71241996  0.37857023  0.04893764  1
  Sr  Sr14  1  0.21241996  0.87857023  0.45106236  1
  Sr  Sr15  1  0.71241996  0.12142977  0.54893764  1
  Nb  Nb16  1  0.21882834  0.87144039  0.58808827  1
  Nb  Nb17  1  0.71882834  0.12855961  0.41191173  1
  Nb  Nb18  1  0.21882834  0.62855961  0.08808827  1
  Nb  Nb19  1  0.71882834  0.37144039  0.91191173  1
  Nb  Nb20  1  0.75160840  0.87831760  0.69127884  1
  Nb  Nb21  1  0.25160840  0.12168240  0.30872116  1
  Nb  Nb22  1  0.75160840  0.62168240  0.19127884  1
  Nb  Nb23  1  0.25160840  0.37831760  0.80872116  1
  Nb  Nb24  1  0.25019001  0.87207126  0.80787227  1
  Nb  Nb25  1  0.75019001  0.12792874  0.19212773  1
  Nb  Nb26  1  0.25019001  0.62792874  0.30787227  1
  Nb  Nb27  1  0.75019001  0.37207126  0.69212773  1
  Nb  Nb28  1  0.72044609  0.87638833  0.91080350  1
  Nb  Nb29  1  0.22044609  0.12361167  0.08919650  1
  Nb  Nb30  1  0.72044609  0.62361167  0.41080350  1
  Nb  Nb31  1  0.22044609  0.37638833  0.58919650  1
  O  O32  1  0.42615701  0.88756110  0.53405828  1
  O  O33  1  0.92615701  0.11243890  0.46594172  1
  O  O34  1  0.42615701  0.61243890  0.03405828  1
  O  O35  1  0.92615701  0.38756110  0.96594172  1
  O  O36  1  0.94918450  0.85480104  0.55349760  1
  O  O37  1  0.44918450  0.14519896  0.44650240  1
  O  O38  1  0.94918450  0.64519896  0.05349760  1
  O  O39  1  0.44918450  0.35480104  0.94650240  1
  O  O40  1  0.29484691  0.62512165  0.59958514  1
  O  O41  1  0.79484691  0.37487835  0.40041486  1
  O  O42  1  0.29484691  0.87487835  0.09958514  1
  O  O43  1  0.79484691  0.12512165  0.90041486  1
  O  O44  1  0.55338803  0.91070120  0.63857891  1
  O  O45  1  0.05338803  0.08929880  0.36142109  1
  O  O46  1  0.55338803  0.58929880  0.13857891  1
  O  O47  1  0.05338803  0.41070120  0.86142109  1
  O  O48  1  0.05856253  0.86115510  0.65803406  1
  O  O49  1  0.55856253  0.13884490  0.34196594  1
  O  O50  1  0.05856253  0.63884490  0.15803406  1
  O  O51  1  0.55856253  0.36115510  0.84196594  1
  O  O52  1  0.72849012  0.62518469  0.69822441  1
  O  O53  1  0.32222254  0.62514881  0.79628169  1
  O  O54  1  0.72849012  0.87481531  0.19822441  1
  O  O55  1  0.22849012  0.12518469  0.80177559  1
  O  O56  1  0.50489294  0.89935512  0.74169242  1
  O  O57  1  0.00489294  0.10064488  0.25830758  1
  O  O58  1  0.50489294  0.60064488  0.24169242  1
  O  O59  1  0.00489294  0.39935512  0.75830758  1
  O  O60  1  0.00519529  0.85077712  0.75776787  1
  O  O61  1  0.50519529  0.14922288  0.24223213  1
  O  O62  1  0.00519529  0.64922288  0.25776787  1
  O  O63  1  0.50519529  0.35077712  0.74223213  1
  O  O64  1  0.43718855  0.36089794  0.53763672  1
  O  O65  1  0.93718855  0.63910206  0.46236328  1
  O  O66  1  0.43718855  0.13910206  0.03763672  1
  O  O67  1  0.93718855  0.86089794  0.96236328  1
  O  O68  1  0.96146594  0.39201085  0.54934271  1
  O  O69  1  0.46146594  0.60798915  0.45065729  1
  O  O70  1  0.96146594  0.10798915  0.04934271  1
  O  O71  1  0.46146594  0.89201085  0.95065729  1
  O  O72  1  0.20384396  0.12441974  0.59865670  1
  O  O73  1  0.70384396  0.87558026  0.40134330  1
  O  O74  1  0.20384396  0.37558026  0.09865670  1
  O  O75  1  0.70384396  0.62441974  0.90134330  1
  O  O76  1  0.54901423  0.33989496  0.63991884  1
  O  O77  1  0.04901423  0.66010504  0.36008116  1
  O  O78  1  0.54901423  0.16010504  0.13991884  1
  O  O79  1  0.04901423  0.83989496  0.86008116  1
  O  O80  1  0.05645428  0.38938765  0.65767835  1
  O  O81  1  0.55645428  0.61061235  0.34232165  1
  O  O82  1  0.05645428  0.11061235  0.15767835  1
  O  O83  1  0.55645428  0.88938765  0.84232165  1
  O  O84  1  0.82222254  0.12514881  0.70371831  1
  O  O85  1  0.32222254  0.87485119  0.29628169  1
  O  O86  1  0.82222254  0.37485119  0.20371831  1
  O  O87  1  0.22849012  0.37481531  0.30177559  1
