# generated using pymatgen
data_Mg(PO3)2
_symmetry_space_group_name_H-M   'P 1'
_cell_length_a   11.93887000
_cell_length_b   8.36951800
_cell_length_c   10.10147746
_cell_angle_alpha   90.00000000
_cell_angle_beta   118.88835747
_cell_angle_gamma   90.00000000
_symmetry_Int_Tables_number   1
_chemical_formula_structural   Mg(PO3)2
_chemical_formula_sum   'Mg8 P16 O48'
_cell_volume   883.76302573
_cell_formula_units_Z   8
loop_
 _symmetry_equiv_pos_site_id
 _symmetry_equiv_pos_as_xyz
  1  'x, y, z'
loop_
 _atom_site_type_symbol
 _atom_site_label
 _atom_site_symmetry_multiplicity
 _atom_site_fract_x
 _atom_site_fract_y
 _atom_site_fract_z
 _atom_site_occupancy
  Mg  Mg0  1  0.50000000  0.54994900  0.25000000  1
  Mg  Mg1  1  0.00000000  0.95005100  0.75000000  1
  Mg  Mg2  1  0.25000000  0.25000000  0.50000000  1
  Mg  Mg3  1  0.25000000  0.75000000  0.00000000  1
  Mg  Mg4  1  0.00000000  0.04994900  0.25000000  1
  Mg  Mg5  1  0.50000000  0.45005100  0.75000000  1
  Mg  Mg6  1  0.75000000  0.75000000  0.50000000  1
  Mg  Mg7  1  0.75000000  0.25000000  0.00000000  1
  P  P8  1  0.00661900  0.73828500  0.47569000  1
  P  P9  1  0.99338100  0.73828500  0.02431000  1
  P  P10  1  0.49338100  0.76171500  0.52431000  1
  P  P11  1  0.50661900  0.76171500  0.97569000  1
  P  P12  1  0.19624500  0.48910300  0.19441200  1
  P  P13  1  0.30375500  0.98910300  0.30558800  1
  P  P14  1  0.30375500  0.01089700  0.80558800  1
  P  P15  1  0.19624500  0.51089700  0.69441200  1
  P  P16  1  0.50661900  0.23828500  0.47569000  1
  P  P17  1  0.49338100  0.23828500  0.02431000  1
  P  P18  1  0.99338100  0.26171500  0.52431000  1
  P  P19  1  0.00661900  0.26171500  0.97569000  1
  P  P20  1  0.69624500  0.98910300  0.19441200  1
  P  P21  1  0.80375500  0.48910300  0.30558800  1
  P  P22  1  0.80375500  0.51089700  0.80558800  1
  P  P23  1  0.69624500  0.01089700  0.69441200  1
  O  O24  1  0.02785050  0.87921250  0.40264600  1
  O  O25  1  0.97214950  0.87921250  0.09735400  1
  O  O26  1  0.47214950  0.62078750  0.59735400  1
  O  O27  1  0.52785050  0.62078750  0.90264600  1
  O  O28  1  0.94975650  0.76091850  0.58073000  1
  O  O29  1  0.55024350  0.26091850  0.91927000  1
  O  O30  1  0.55024350  0.73908150  0.41927000  1
  O  O31  1  0.94975650  0.23908150  0.08073000  1
  O  O32  1  0.14044150  0.64483050  0.56309200  1
  O  O33  1  0.35955850  0.14483050  0.93690800  1
  O  O34  1  0.35955850  0.85516950  0.43690800  1
  O  O35  1  0.14044150  0.35516950  0.06309200  1
  O  O36  1  0.23152800  0.41802000  0.34366300  1
  O  O37  1  0.76847200  0.41802000  0.15633700  1
  O  O38  1  0.26847200  0.08198000  0.65633700  1
  O  O39  1  0.73152800  0.08198000  0.84366300  1
  O  O40  1  0.29738300  0.57657500  0.17231400  1
  O  O41  1  0.20261700  0.07657500  0.32768600  1
  O  O42  1  0.20261700  0.92342500  0.82768600  1
  O  O43  1  0.29738300  0.42342500  0.67231400  1
  O  O44  1  0.07858450  0.60910450  0.15280700  1
  O  O45  1  0.92141550  0.60910450  0.34719300  1
  O  O46  1  0.42141550  0.89089550  0.84719300  1
  O  O47  1  0.57858450  0.89089550  0.65280700  1
  O  O48  1  0.52785050  0.37921250  0.40264600  1
  O  O49  1  0.47214950  0.37921250  0.09735400  1
  O  O50  1  0.97214950  0.12078750  0.59735400  1
  O  O51  1  0.02785050  0.12078750  0.90264600  1
  O  O52  1  0.44975650  0.26091850  0.58073000  1
  O  O53  1  0.05024350  0.76091850  0.91927000  1
  O  O54  1  0.05024350  0.23908150  0.41927000  1
  O  O55  1  0.44975650  0.73908150  0.08073000  1
  O  O56  1  0.64044150  0.14483050  0.56309200  1
  O  O57  1  0.85955850  0.64483050  0.93690800  1
  O  O58  1  0.85955850  0.35516950  0.43690800  1
  O  O59  1  0.64044150  0.85516950  0.06309200  1
  O  O60  1  0.73152800  0.91802000  0.34366300  1
  O  O61  1  0.26847200  0.91802000  0.15633700  1
  O  O62  1  0.76847200  0.58198000  0.65633700  1
  O  O63  1  0.23152800  0.58198000  0.84366300  1
  O  O64  1  0.79738300  0.07657500  0.17231400  1
  O  O65  1  0.70261700  0.57657500  0.32768600  1
  O  O66  1  0.70261700  0.42342500  0.82768600  1
  O  O67  1  0.79738300  0.92342500  0.67231400  1
  O  O68  1  0.57858450  0.10910450  0.15280700  1
  O  O69  1  0.42141550  0.10910450  0.34719300  1
  O  O70  1  0.92141550  0.39089550  0.84719300  1
  O  O71  1  0.07858450  0.39089550  0.65280700  1
