# generated using pymatgen
data_Nd2Ti2O7
_symmetry_space_group_name_H-M   'P 1'
_cell_length_a   7.70291400
_cell_length_b   5.52429400
_cell_length_c   13.29079287
_cell_angle_alpha   90.00000000
_cell_angle_beta   98.43488800
_cell_angle_gamma   90.00000000
_symmetry_Int_Tables_number   1
_chemical_formula_structural   Nd2Ti2O7
_chemical_formula_sum   'Nd8 Ti8 O28'
_cell_volume   559.44764950
_cell_formula_units_Z   4
loop_
 _symmetry_equiv_pos_site_id
 _symmetry_equiv_pos_as_xyz
  1  'x, y, z'
loop_
 _atom_site_type_symbol
 _atom_site_label
 _atom_site_symmetry_multiplicity
 _atom_site_fract_x
 _atom_site_fract_y
 _atom_site_fract_z
 _atom_site_occupancy
  Nd  Nd0  1  0.73059500  0.74661600  0.91458400  1
  Nd  Nd1  1  0.26940500  0.24661600  0.08541600  1
  Nd  Nd2  1  0.21777900  0.76003800  0.87604100  1
  Nd  Nd3  1  0.78222100  0.26003800  0.12395900  1
  Nd  Nd4  1  0.64511500  0.14502100  0.56932300  1
  Nd  Nd5  1  0.35488500  0.64502100  0.43067700  1
  Nd  Nd6  1  0.14898500  0.21762900  0.61791300  1
  Nd  Nd7  1  0.85101500  0.71762900  0.38208700  1
  Ti  Ti8  1  0.97131300  0.24418400  0.87593800  1
  Ti  Ti9  1  0.02868700  0.74418400  0.12406200  1
  Ti  Ti10  1  0.46829700  0.24231700  0.87876400  1
  Ti  Ti11  1  0.53170300  0.74231700  0.12123600  1
  Ti  Ti12  1  0.91439800  0.70660600  0.67393600  1
  Ti  Ti13  1  0.08560200  0.20660600  0.32606400  1
  Ti  Ti14  1  0.42974100  0.71579100  0.67971500  1
  Ti  Ti15  1  0.57025900  0.21579100  0.32028500  1
  O  O16  1  0.54690800  0.48674500  0.02167200  1
  O  O17  1  0.45309200  0.98674500  0.97832800  1
  O  O18  1  0.96472800  0.48788000  0.02364600  1
  O  O19  1  0.03527200  0.98788000  0.97635400  1
  O  O20  1  0.72214500  0.18780400  0.88857500  1
  O  O21  1  0.27785500  0.68780400  0.11142500  1
  O  O22  1  0.22706400  0.34049300  0.90756700  1
  O  O23  1  0.77293600  0.84049300  0.09243300  1
  O  O24  1  0.93029200  0.56783300  0.81944600  1
  O  O25  1  0.06970800  0.06783300  0.18055400  1
  O  O26  1  0.48010300  0.56473200  0.81778800  1
  O  O27  1  0.51989700  0.06473200  0.18221200  1
  O  O28  1  0.00531900  0.05473000  0.76819400  1
  O  O29  1  0.99468100  0.55473000  0.23180600  1
  O  O30  1  0.38088300  0.05121200  0.77105400  1
  O  O31  1  0.61911700  0.55121200  0.22894600  1
  O  O32  1  0.67348500  0.81190100  0.69223700  1
  O  O33  1  0.32651500  0.31190100  0.30776300  1
  O  O34  1  0.17225600  0.64825800  0.69384000  1
  O  O35  1  0.82774400  0.14825800  0.30616000  1
  O  O36  1  0.87178300  0.42192400  0.61309200  1
  O  O37  1  0.63142300  0.43275300  0.42830500  1
  O  O38  1  0.12821700  0.92192400  0.38690800  1
  O  O39  1  0.57662600  0.94750100  0.40541600  1
  O  O40  1  0.91016200  0.91503400  0.55842800  1
  O  O41  1  0.08983800  0.41503400  0.44157200  1
  O  O42  1  0.36857700  0.93275300  0.57169500  1
  O  O43  1  0.42337400  0.44750100  0.59458400  1
