# generated using pymatgen
data_Ca2VN3
_symmetry_space_group_name_H-M   'P 1'
_cell_length_a   5.63845400
_cell_length_b   10.46216200
_cell_length_c   11.64721720
_cell_angle_alpha   90.00000000
_cell_angle_beta   92.07132512
_cell_angle_gamma   90.00000000
_symmetry_Int_Tables_number   1
_chemical_formula_structural   Ca2VN3
_chemical_formula_sum   'Ca16 V8 N24'
_cell_volume   686.62529599
_cell_formula_units_Z   8
loop_
 _symmetry_equiv_pos_site_id
 _symmetry_equiv_pos_as_xyz
  1  'x, y, z'
loop_
 _atom_site_type_symbol
 _atom_site_label
 _atom_site_symmetry_multiplicity
 _atom_site_fract_x
 _atom_site_fract_y
 _atom_site_fract_z
 _atom_site_occupancy
  Ca  Ca0  1  0.22656350  0.61252250  0.92276400  1
  Ca  Ca1  1  0.25683200  0.79709300  0.64697400  1
  Ca  Ca2  1  0.75683200  0.70290700  0.14697400  1
  Ca  Ca3  1  0.24316800  0.70290700  0.35302600  1
  Ca  Ca4  1  0.27343650  0.88747750  0.07723600  1
  Ca  Ca5  1  0.72656350  0.88747750  0.42276400  1
  Ca  Ca6  1  0.77343650  0.61252250  0.57723600  1
  Ca  Ca7  1  0.74316800  0.79709300  0.85302600  1
  Ca  Ca8  1  0.72656350  0.11252250  0.92276400  1
  Ca  Ca9  1  0.75683200  0.29709300  0.64697400  1
  Ca  Ca10  1  0.25683200  0.20290700  0.14697400  1
  Ca  Ca11  1  0.74316800  0.20290700  0.35302600  1
  Ca  Ca12  1  0.77343650  0.38747750  0.07723600  1
  Ca  Ca13  1  0.22656350  0.38747750  0.42276400  1
  Ca  Ca14  1  0.27343650  0.11252250  0.57723600  1
  Ca  Ca15  1  0.24316800  0.29709300  0.85302600  1
  V  V16  1  0.76660000  0.99991600  0.16233300  1
  V  V17  1  0.23340000  0.99991600  0.33766700  1
  V  V18  1  0.73340000  0.50008400  0.83766700  1
  V  V19  1  0.26660000  0.50008400  0.66233300  1
  V  V20  1  0.26660000  0.49991600  0.16233300  1
  V  V21  1  0.73340000  0.49991600  0.33766700  1
  V  V22  1  0.23340000  0.00008400  0.83766700  1
  V  V23  1  0.76660000  0.00008400  0.66233300  1
  N  N24  1  0.00000000  0.91169400  0.25000000  1
  N  N25  1  0.50000000  0.58830600  0.75000000  1
  N  N26  1  0.50000000  0.99431900  0.25000000  1
  N  N27  1  0.00000000  0.50568100  0.75000000  1
  N  N28  1  0.17600700  0.83670000  0.87162900  1
  N  N29  1  0.82399300  0.83670000  0.62837100  1
  N  N30  1  0.32399300  0.66330000  0.12837100  1
  N  N31  1  0.67600700  0.66330000  0.37162900  1
  N  N32  1  0.71485350  0.90727150  0.03764800  1
  N  N33  1  0.21485350  0.59272850  0.53764800  1
  N  N34  1  0.78514650  0.59272850  0.96235200  1
  N  N35  1  0.28514650  0.90727150  0.46235200  1
  N  N36  1  0.50000000  0.41169400  0.25000000  1
  N  N37  1  0.00000000  0.08830600  0.75000000  1
  N  N38  1  0.00000000  0.49431900  0.25000000  1
  N  N39  1  0.50000000  0.00568100  0.75000000  1
  N  N40  1  0.67600700  0.33670000  0.87162900  1
  N  N41  1  0.32399300  0.33670000  0.62837100  1
  N  N42  1  0.82399300  0.16330000  0.12837100  1
  N  N43  1  0.17600700  0.16330000  0.37162900  1
  N  N44  1  0.21485350  0.40727150  0.03764800  1
  N  N45  1  0.71485350  0.09272850  0.53764800  1
  N  N46  1  0.28514650  0.09272850  0.96235200  1
  N  N47  1  0.78514650  0.40727150  0.46235200  1
