# generated using pymatgen
data_BaPr2ZnS5
_symmetry_space_group_name_H-M   'P 1'
_cell_length_a   7.96063800
_cell_length_b   7.96063800
_cell_length_c   13.74541800
_cell_angle_alpha   90.00000000
_cell_angle_beta   90.00000000
_cell_angle_gamma   90.00000000
_symmetry_Int_Tables_number   1
_chemical_formula_structural   BaPr2ZnS5
_chemical_formula_sum   'Ba4 Pr8 Zn4 S20'
_cell_volume   871.07129440
_cell_formula_units_Z   4
loop_
 _symmetry_equiv_pos_site_id
 _symmetry_equiv_pos_as_xyz
  1  'x, y, z'
loop_
 _atom_site_type_symbol
 _atom_site_label
 _atom_site_symmetry_multiplicity
 _atom_site_fract_x
 _atom_site_fract_y
 _atom_site_fract_z
 _atom_site_occupancy
  Ba  Ba0  1  0.00000000  0.00000000  0.25000000  1
  Ba  Ba1  1  0.50000000  0.50000000  0.25000000  1
  Ba  Ba2  1  0.50000000  0.50000000  0.75000000  1
  Ba  Ba3  1  0.00000000  0.00000000  0.75000000  1
  Pr  Pr4  1  0.16223300  0.33776700  0.00000000  1
  Pr  Pr5  1  0.66223300  0.16223300  0.00000000  1
  Pr  Pr6  1  0.33776700  0.83776700  0.00000000  1
  Pr  Pr7  1  0.83776700  0.66223300  0.00000000  1
  Pr  Pr8  1  0.66223300  0.83776700  0.50000000  1
  Pr  Pr9  1  0.16223300  0.66223300  0.50000000  1
  Pr  Pr10  1  0.83776700  0.33776700  0.50000000  1
  Pr  Pr11  1  0.33776700  0.16223300  0.50000000  1
  Zn  Zn12  1  0.00000000  0.50000000  0.25000000  1
  Zn  Zn13  1  0.50000000  0.00000000  0.25000000  1
  Zn  Zn14  1  0.50000000  0.00000000  0.75000000  1
  Zn  Zn15  1  0.00000000  0.50000000  0.75000000  1
  S  S16  1  0.85132350  0.35132350  0.13418050  1
  S  S17  1  0.35132350  0.85132350  0.36581950  1
  S  S18  1  0.64867650  0.14867650  0.36581950  1
  S  S19  1  0.85132350  0.64867650  0.36581950  1
  S  S20  1  0.14867650  0.35132350  0.36581950  1
  S  S21  1  0.64867650  0.85132350  0.13418050  1
  S  S22  1  0.35132350  0.14867650  0.13418050  1
  S  S23  1  0.14867650  0.64867650  0.13418050  1
  S  S24  1  0.50000000  0.50000000  0.00000000  1
  S  S25  1  0.00000000  0.00000000  0.00000000  1
  S  S26  1  0.35132350  0.85132350  0.63418050  1
  S  S27  1  0.85132350  0.35132350  0.86581950  1
  S  S28  1  0.14867650  0.64867650  0.86581950  1
  S  S29  1  0.35132350  0.14867650  0.86581950  1
  S  S30  1  0.64867650  0.85132350  0.86581950  1
  S  S31  1  0.14867650  0.35132350  0.63418050  1
  S  S32  1  0.85132350  0.64867650  0.63418050  1
  S  S33  1  0.64867650  0.14867650  0.63418050  1
  S  S34  1  0.00000000  0.00000000  0.50000000  1
  S  S35  1  0.50000000  0.50000000  0.50000000  1
