# generated using pymatgen
data_SrV10O15
_symmetry_space_group_name_H-M   'P 1'
_cell_length_a   10.51502538
_cell_length_b   11.76941951
_cell_length_c   9.57821477
_cell_angle_alpha   90.00000000
_cell_angle_beta   90.00000000
_cell_angle_gamma   90.00000000
_symmetry_Int_Tables_number   1
_chemical_formula_structural   SrV10O15
_chemical_formula_sum   'Sr4 V40 O60'
_cell_volume   1185.35910311
_cell_formula_units_Z   4
loop_
 _symmetry_equiv_pos_site_id
 _symmetry_equiv_pos_as_xyz
  1  'x, y, z'
loop_
 _atom_site_type_symbol
 _atom_site_label
 _atom_site_symmetry_multiplicity
 _atom_site_fract_x
 _atom_site_fract_y
 _atom_site_fract_z
 _atom_site_occupancy
  Sr  Sr0  1  0.50000000  0.50000000  0.50000000  1
  Sr  Sr1  1  0.00000000  0.50000000  0.00000000  1
  Sr  Sr2  1  0.00000000  0.00000000  0.50000000  1
  Sr  Sr3  1  0.50000000  0.00000000  0.00000000  1
  V  V4  1  0.81905098  0.50000000  0.63030729  1
  V  V5  1  0.68094902  0.50000000  0.13030729  1
  V  V6  1  0.31905098  0.50000000  0.86969271  1
  V  V7  1  0.18094902  0.50000000  0.36969271  1
  V  V8  1  0.41622943  0.12555114  0.35390901  1
  V  V9  1  0.58377057  0.37444886  0.85390901  1
  V  V10  1  0.41622943  0.37444886  0.14609099  1
  V  V11  1  0.58377057  0.12555114  0.64609099  1
  V  V12  1  0.58377057  0.87444886  0.64609099  1
  V  V13  1  0.41622943  0.62555114  0.14609099  1
  V  V14  1  0.58377057  0.62555114  0.85390901  1
  V  V15  1  0.66302556  0.75596318  0.11878504  1
  V  V16  1  0.66302556  0.24403682  0.11878504  1
  V  V17  1  0.33697444  0.25596318  0.61878504  1
  V  V18  1  0.66302556  0.25596318  0.38121496  1
  V  V19  1  0.33697444  0.24403682  0.88121496  1
  V  V20  1  0.33697444  0.75596318  0.88121496  1
  V  V21  1  0.66302556  0.74403682  0.38121496  1
  V  V22  1  0.33697444  0.74403682  0.61878504  1
  V  V23  1  0.41622943  0.87444886  0.35390901  1
  V  V24  1  0.31905098  0.00000000  0.63030729  1
  V  V25  1  0.18094902  0.00000000  0.13030729  1
  V  V26  1  0.81905098  0.00000000  0.86969271  1
  V  V27  1  0.68094902  0.00000000  0.36969271  1
  V  V28  1  0.91622943  0.62555114  0.35390901  1
  V  V29  1  0.08377057  0.87444886  0.85390901  1
  V  V30  1  0.91622943  0.87444886  0.14609099  1
  V  V31  1  0.08377057  0.62555114  0.64609099  1
  V  V32  1  0.08377057  0.37444886  0.64609099  1
  V  V33  1  0.91622943  0.12555114  0.14609099  1
  V  V34  1  0.08377057  0.12555114  0.85390901  1
  V  V35  1  0.16302555  0.25596318  0.11878504  1
  V  V36  1  0.16302555  0.74403682  0.11878504  1
  V  V37  1  0.83697444  0.75596318  0.61878504  1
  V  V38  1  0.16302555  0.75596318  0.38121496  1
  V  V39  1  0.83697444  0.74403682  0.88121496  1
  V  V40  1  0.83697444  0.25596318  0.88121496  1
  V  V41  1  0.16302555  0.24403682  0.38121496  1
  V  V42  1  0.83697444  0.24403682  0.61878504  1
  V  V43  1  0.91622943  0.37444886  0.35390901  1
  O  O44  1  0.00000000  0.50000000  0.50000000  1
  O  O45  1  0.50000000  0.50000000  0.00000000  1
  O  O46  1  0.50000000  0.24071403  0.50000000  1
  O  O47  1  0.50000000  0.25928597  0.00000000  1
  O  O48  1  0.50000000  0.75928597  0.50000000  1
  O  O49  1  0.50000000  0.74071403  0.00000000  1
  O  O50  1  0.64732751  0.50000000  0.73373349  1
  O  O51  1  0.85267249  0.50000000  0.23373349  1
  O  O52  1  0.14732751  0.50000000  0.76626651  1
  O  O53  1  0.35267249  0.50000000  0.26626651  1
  O  O54  1  0.32229515  0.75000000  0.25000000  1
  O  O55  1  0.67770485  0.75000000  0.75000000  1
  O  O56  1  0.67770485  0.25000000  0.75000000  1
  O  O57  1  0.32229515  0.25000000  0.25000000  1
  O  O58  1  0.58896070  0.62342869  0.24341569  1
  O  O59  1  0.41103930  0.87657131  0.74341569  1
  O  O60  1  0.58896070  0.87657131  0.25658431  1
  O  O61  1  0.41103930  0.62342869  0.75658431  1
  O  O62  1  0.41103930  0.37657131  0.75658431  1
  O  O63  1  0.58896070  0.12342868  0.25658431  1
  O  O64  1  0.41103930  0.12342868  0.74341569  1
  O  O65  1  0.58896070  0.37657131  0.24341569  1
  O  O66  1  0.23410556  0.37546390  0.50701496  1
  O  O67  1  0.26589444  0.62453610  0.00701496  1
  O  O68  1  0.73410556  0.62453610  0.99298504  1
  O  O69  1  0.76589444  0.37546390  0.49298504  1
  O  O70  1  0.23410556  0.62453610  0.50701496  1
  O  O71  1  0.73410556  0.37546390  0.99298504  1
  O  O72  1  0.26589444  0.37546390  0.00701496  1
  O  O73  1  0.76589444  0.62453610  0.49298504  1
  O  O74  1  0.50000000  0.00000000  0.50000000  1
  O  O75  1  0.00000000  0.00000000  0.00000000  1
  O  O76  1  0.00000000  0.74071403  0.50000000  1
  O  O77  1  0.00000000  0.75928597  0.00000000  1
  O  O78  1  0.00000000  0.25928597  0.50000000  1
  O  O79  1  0.00000000  0.24071403  0.00000000  1
  O  O80  1  0.14732751  0.00000000  0.73373349  1
  O  O81  1  0.35267249  0.00000000  0.23373349  1
  O  O82  1  0.64732751  0.00000000  0.76626651  1
  O  O83  1  0.85267249  0.00000000  0.26626651  1
  O  O84  1  0.82229515  0.25000000  0.25000000  1
  O  O85  1  0.17770485  0.25000000  0.75000000  1
  O  O86  1  0.17770485  0.75000000  0.75000000  1
  O  O87  1  0.82229515  0.75000000  0.25000000  1
  O  O88  1  0.08896070  0.12342868  0.24341569  1
  O  O89  1  0.91103930  0.37657132  0.74341569  1
  O  O90  1  0.08896070  0.37657132  0.25658431  1
  O  O91  1  0.91103930  0.12342868  0.75658431  1
  O  O92  1  0.91103930  0.87657131  0.75658431  1
  O  O93  1  0.08896070  0.62342868  0.25658431  1
  O  O94  1  0.91103930  0.62342868  0.74341569  1
  O  O95  1  0.08896070  0.87657131  0.24341569  1
  O  O96  1  0.73410556  0.87546390  0.50701496  1
  O  O97  1  0.76589444  0.12453610  0.00701496  1
  O  O98  1  0.23410556  0.12453610  0.99298504  1
  O  O99  1  0.26589444  0.87546390  0.49298504  1
  O  O100  1  0.73410556  0.12453610  0.50701496  1
  O  O101  1  0.23410556  0.87546390  0.99298504  1
  O  O102  1  0.76589444  0.87546390  0.00701496  1
  O  O103  1  0.26589444  0.12453610  0.49298504  1
