# generated using pymatgen
data_Ba2NbN3
_symmetry_space_group_name_H-M   'P 1'
_cell_length_a   6.25267200
_cell_length_b   11.95240600
_cell_length_c   13.38179720
_cell_angle_alpha   90.00000000
_cell_angle_beta   91.30655987
_cell_angle_gamma   90.00000000
_symmetry_Int_Tables_number   1
_chemical_formula_structural   Ba2NbN3
_chemical_formula_sum   'Ba16 Nb8 N24'
_cell_volume   999.82156313
_cell_formula_units_Z   8
loop_
 _symmetry_equiv_pos_site_id
 _symmetry_equiv_pos_as_xyz
  1  'x, y, z'
loop_
 _atom_site_type_symbol
 _atom_site_label
 _atom_site_symmetry_multiplicity
 _atom_site_fract_x
 _atom_site_fract_y
 _atom_site_fract_z
 _atom_site_occupancy
  Ba  Ba0  1  0.74922200  0.69800800  0.85774300  1
  Ba  Ba1  1  0.24922200  0.80199200  0.35774300  1
  Ba  Ba2  1  0.75077800  0.80199200  0.14225700  1
  Ba  Ba3  1  0.25077800  0.69800800  0.64225700  1
  Ba  Ba4  1  0.74084400  0.61316300  0.42278700  1
  Ba  Ba5  1  0.25915600  0.61316300  0.07721300  1
  Ba  Ba6  1  0.75915600  0.88683700  0.57721300  1
  Ba  Ba7  1  0.24084400  0.88683700  0.92278700  1
  Ba  Ba8  1  0.24922200  0.19800800  0.85774300  1
  Ba  Ba9  1  0.74922200  0.30199200  0.35774300  1
  Ba  Ba10  1  0.25077800  0.30199200  0.14225700  1
  Ba  Ba11  1  0.75077800  0.19800800  0.64225700  1
  Ba  Ba12  1  0.24084400  0.11316300  0.42278700  1
  Ba  Ba13  1  0.75915600  0.11316300  0.07721300  1
  Ba  Ba14  1  0.25915600  0.38683700  0.57721300  1
  Ba  Ba15  1  0.74084400  0.38683700  0.92278700  1
  Nb  Nb16  1  0.76104650  0.50286550  0.66588900  1
  Nb  Nb17  1  0.73895350  0.99713450  0.33411100  1
  Nb  Nb18  1  0.23895350  0.50286550  0.83411100  1
  Nb  Nb19  1  0.26104650  0.99713450  0.16588900  1
  Nb  Nb20  1  0.26104650  0.00286550  0.66588900  1
  Nb  Nb21  1  0.23895350  0.49713450  0.33411100  1
  Nb  Nb22  1  0.73895350  0.00286550  0.83411100  1
  Nb  Nb23  1  0.76104650  0.49713450  0.16588900  1
  N  N24  1  0.72237750  0.58966050  0.04903400  1
  N  N25  1  0.27762250  0.58966050  0.45096600  1
  N  N26  1  0.77762250  0.91033950  0.95096600  1
  N  N27  1  0.22237750  0.91033950  0.54903400  1
  N  N28  1  0.50000000  0.50506200  0.25000000  1
  N  N29  1  0.00000000  0.99493800  0.75000000  1
  N  N30  1  0.00000000  0.56413900  0.25000000  1
  N  N31  1  0.18593750  0.65745650  0.87195900  1
  N  N32  1  0.68593750  0.84254350  0.37195900  1
  N  N33  1  0.31406250  0.84254350  0.12804100  1
  N  N34  1  0.81406250  0.65745650  0.62804100  1
  N  N35  1  0.50000000  0.93586100  0.75000000  1
  N  N36  1  0.22237750  0.08966050  0.04903400  1
  N  N37  1  0.77762250  0.08966050  0.45096600  1
  N  N38  1  0.27762250  0.41033950  0.95096600  1
  N  N39  1  0.72237750  0.41033950  0.54903400  1
  N  N40  1  0.00000000  0.00506200  0.25000000  1
  N  N41  1  0.50000000  0.49493800  0.75000000  1
  N  N42  1  0.50000000  0.06413900  0.25000000  1
  N  N43  1  0.68593750  0.15745650  0.87195900  1
  N  N44  1  0.18593750  0.34254350  0.37195900  1
  N  N45  1  0.81406250  0.34254350  0.12804100  1
  N  N46  1  0.31406250  0.15745650  0.62804100  1
  N  N47  1  0.00000000  0.43586100  0.75000000  1
