# generated using pymatgen
data_RbTiP2O7
_symmetry_space_group_name_H-M   'P 1'
_cell_length_a   7.67057200
_cell_length_b   10.43268000
_cell_length_c   8.36003420
_cell_angle_alpha   90.00000000
_cell_angle_beta   105.80891648
_cell_angle_gamma   90.00000000
_symmetry_Int_Tables_number   1
_chemical_formula_structural   RbTiP2O7
_chemical_formula_sum   'Rb4 Ti4 P8 O28'
_cell_volume   643.70374375
_cell_formula_units_Z   4
loop_
 _symmetry_equiv_pos_site_id
 _symmetry_equiv_pos_as_xyz
  1  'x, y, z'
loop_
 _atom_site_type_symbol
 _atom_site_label
 _atom_site_symmetry_multiplicity
 _atom_site_fract_x
 _atom_site_fract_y
 _atom_site_fract_z
 _atom_site_occupancy
  Rb  Rb0  1  0.81070200  0.81717600  0.94458000  1
  Rb  Rb1  1  0.18929800  0.31717600  0.55542000  1
  Rb  Rb2  1  0.18929800  0.18282400  0.05542000  1
  Rb  Rb3  1  0.81070200  0.68282400  0.44458000  1
  Ti  Ti4  1  0.76230100  0.10164500  0.24121500  1
  Ti  Ti5  1  0.23769900  0.60164500  0.25878500  1
  Ti  Ti6  1  0.23769900  0.89835500  0.75878500  1
  Ti  Ti7  1  0.76230100  0.39835500  0.74121500  1
  P  P8  1  0.86833800  0.40252800  0.17165300  1
  P  P9  1  0.13166200  0.90252800  0.32834700  1
  P  P10  1  0.13166200  0.59747200  0.82834700  1
  P  P11  1  0.86833800  0.09747200  0.67165300  1
  P  P12  1  0.56438100  0.36563200  0.31378100  1
  P  P13  1  0.43561900  0.86563200  0.18621900  1
  P  P14  1  0.43561900  0.63436800  0.68621900  1
  P  P15  1  0.56438100  0.13436800  0.81378100  1
  O  O16  1  0.84588500  0.41068700  0.98515200  1
  O  O17  1  0.15411500  0.91068700  0.51484800  1
  O  O18  1  0.15411500  0.58931300  0.01484800  1
  O  O19  1  0.84588500  0.08931300  0.48515200  1
  O  O20  1  0.00243300  0.50055400  0.27096900  1
  O  O21  1  0.99756700  0.00055400  0.22903100  1
  O  O22  1  0.99756700  0.49944600  0.72903100  1
  O  O23  1  0.00243300  0.99944600  0.77096900  1
  O  O24  1  0.91624600  0.26638200  0.23911100  1
  O  O25  1  0.08375400  0.76638200  0.26088900  1
  O  O26  1  0.08375400  0.73361800  0.76088900  1
  O  O27  1  0.91624600  0.23361800  0.73911100  1
  O  O28  1  0.67198600  0.44093500  0.19761100  1
  O  O29  1  0.32801400  0.94093500  0.30238900  1
  O  O30  1  0.32801400  0.55906500  0.80238900  1
  O  O31  1  0.67198600  0.05906500  0.69761100  1
  O  O32  1  0.55466900  0.27668800  0.76681000  1
  O  O33  1  0.44533100  0.77668800  0.73319000  1
  O  O34  1  0.44533100  0.72331200  0.23319000  1
  O  O35  1  0.55466900  0.22331200  0.26681000  1
  O  O36  1  0.67589100  0.10768200  0.99329100  1
  O  O37  1  0.32410900  0.60768200  0.50670900  1
  O  O38  1  0.32410900  0.89231800  0.00670900  1
  O  O39  1  0.67589100  0.39231800  0.49329100  1
  O  O40  1  0.37543900  0.07571700  0.77147600  1
  O  O41  1  0.62456100  0.57571700  0.72852400  1
  O  O42  1  0.62456100  0.92428300  0.22852400  1
  O  O43  1  0.37543900  0.42428300  0.27147600  1
