# generated using pymatgen
data_K2ZrSi2O7
_symmetry_space_group_name_H-M   'P 1'
_cell_length_a   19.54110200
_cell_length_b   11.25771200
_cell_length_c   14.33145659
_cell_angle_alpha   90.00000000
_cell_angle_beta   116.58036468
_cell_angle_gamma   90.00000000
_symmetry_Int_Tables_number   1
_chemical_formula_structural   K2ZrSi2O7
_chemical_formula_sum   'K32 Zr16 Si32 O112'
_cell_volume   2819.52828140
_cell_formula_units_Z   16
loop_
 _symmetry_equiv_pos_site_id
 _symmetry_equiv_pos_as_xyz
  1  'x, y, z'
loop_
 _atom_site_type_symbol
 _atom_site_label
 _atom_site_symmetry_multiplicity
 _atom_site_fract_x
 _atom_site_fract_y
 _atom_site_fract_z
 _atom_site_occupancy
  K  K0  1  0.36391050  0.25371250  0.59022900  1
  K  K1  1  0.36391050  0.74628750  0.59022900  1
  K  K2  1  0.13608950  0.24628750  0.40977100  1
  K  K3  1  0.13608950  0.75371250  0.40977100  1
  K  K4  1  0.13735200  0.25407000  0.91845600  1
  K  K5  1  0.13735200  0.74593000  0.91845600  1
  K  K6  1  0.36264800  0.24593000  0.08154400  1
  K  K7  1  0.36264800  0.75407000  0.08154400  1
  K  K8  1  0.10963100  0.50000000  0.57661500  1
  K  K9  1  0.39036900  0.00000000  0.42338500  1
  K  K10  1  0.38877900  0.50000000  0.92127300  1
  K  K11  1  0.11122100  0.00000000  0.07872700  1
  K  K12  1  0.37856300  0.00000000  0.88920000  1
  K  K13  1  0.12143700  0.50000000  0.11080000  1
  K  K14  1  0.11785200  0.00000000  0.60426900  1
  K  K15  1  0.38214800  0.50000000  0.39573100  1
  K  K16  1  0.86391050  0.75371250  0.59022900  1
  K  K17  1  0.86391050  0.24628750  0.59022900  1
  K  K18  1  0.63608950  0.74628750  0.40977100  1
  K  K19  1  0.63608950  0.25371250  0.40977100  1
  K  K20  1  0.63735200  0.75407000  0.91845600  1
  K  K21  1  0.63735200  0.24593000  0.91845600  1
  K  K22  1  0.86264800  0.74593000  0.08154400  1
  K  K23  1  0.86264800  0.25407000  0.08154400  1
  K  K24  1  0.60963100  0.00000000  0.57661500  1
  K  K25  1  0.89036900  0.50000000  0.42338500  1
  K  K26  1  0.88877900  0.00000000  0.92127300  1
  K  K27  1  0.61122100  0.50000000  0.07872700  1
  K  K28  1  0.87856300  0.50000000  0.88920000  1
  K  K29  1  0.62143700  0.00000000  0.11080000  1
  K  K30  1  0.61785200  0.50000000  0.60426900  1
  K  K31  1  0.88214800  0.00000000  0.39573100  1
  Zr  Zr32  1  0.01150800  0.00000000  0.78164900  1
  Zr  Zr33  1  0.48849200  0.50000000  0.21835100  1
  Zr  Zr34  1  0.48762700  0.00000000  0.71890900  1
  Zr  Zr35  1  0.01237300  0.50000000  0.28109100  1
  Zr  Zr36  1  0.24907050  0.25289150  0.75025100  1
  Zr  Zr37  1  0.24907050  0.74710850  0.75025100  1
  Zr  Zr38  1  0.25092950  0.24710850  0.24974900  1
  Zr  Zr39  1  0.25092950  0.75289150  0.24974900  1
  Zr  Zr40  1  0.51150800  0.50000000  0.78164900  1
  Zr  Zr41  1  0.98849200  0.00000000  0.21835100  1
  Zr  Zr42  1  0.98762700  0.50000000  0.71890900  1
  Zr  Zr43  1  0.51237300  0.00000000  0.28109100  1
  Zr  Zr44  1  0.74907050  0.75289150  0.75025100  1
  Zr  Zr45  1  0.74907050  0.24710850  0.75025100  1
  Zr  Zr46  1  0.75092950  0.74710850  0.24974900  1
  Zr  Zr47  1  0.75092950  0.25289150  0.24974900  1
  Si  Si48  1  0.04039100  0.76123700  0.62080200  1
  Si  Si49  1  0.04039100  0.23876300  0.62080200  1
  Si  Si50  1  0.45960900  0.73876300  0.37919800  1
  Si  Si51  1  0.45960900  0.26123700  0.37919800  1
  Si  Si52  1  0.45839150  0.23872550  0.87956600  1
  Si  Si53  1  0.45839150  0.76127450  0.87956600  1
  Si  Si54  1  0.04160850  0.26127450  0.12043400  1
  Si  Si55  1  0.04160850  0.73872550  0.12043400  1
  Si  Si56  1  0.30034800  0.50000000  0.63287600  1
  Si  Si57  1  0.19965200  0.00000000  0.36712400  1
  Si  Si58  1  0.19860200  0.50000000  0.86781500  1
  Si  Si59  1  0.30139800  0.00000000  0.13218500  1
  Si  Si60  1  0.28392300  0.00000000  0.61101100  1
  Si  Si61  1  0.21607700  0.50000000  0.38898900  1
  Si  Si62  1  0.21471800  0.00000000  0.88919100  1
  Si  Si63  1  0.28528200  0.50000000  0.11080900  1
  Si  Si64  1  0.54039100  0.26123700  0.62080200  1
  Si  Si65  1  0.54039100  0.73876300  0.62080200  1
  Si  Si66  1  0.95960900  0.23876300  0.37919800  1
  Si  Si67  1  0.95960900  0.76123700  0.37919800  1
  Si  Si68  1  0.95839150  0.73872550  0.87956600  1
  Si  Si69  1  0.95839150  0.26127450  0.87956600  1
  Si  Si70  1  0.54160850  0.76127450  0.12043400  1
  Si  Si71  1  0.54160850  0.23872550  0.12043400  1
  Si  Si72  1  0.80034800  0.00000000  0.63287600  1
  Si  Si73  1  0.69965200  0.50000000  0.36712400  1
  Si  Si74  1  0.69860200  0.00000000  0.86781500  1
  Si  Si75  1  0.80139800  0.50000000  0.13218500  1
  Si  Si76  1  0.78392300  0.50000000  0.61101100  1
  Si  Si77  1  0.71607700  0.00000000  0.38898900  1
  Si  Si78  1  0.71471800  0.50000000  0.88919100  1
  Si  Si79  1  0.78528200  0.00000000  0.11080900  1
  O  O80  1  0.13230600  0.00000000  0.89257900  1
  O  O81  1  0.36769400  0.50000000  0.10742100  1
  O  O82  1  0.00105300  0.86374000  0.87969400  1
  O  O83  1  0.00105300  0.13626000  0.87969400  1
  O  O84  1  0.49894700  0.63626000  0.12030600  1
  O  O85  1  0.49894700  0.36374000  0.12030600  1
  O  O86  1  0.46967900  0.86423900  0.80643700  1
  O  O87  1  0.46967900  0.13576100  0.80643700  1
  O  O88  1  0.03032100  0.63576100  0.19356300  1
  O  O89  1  0.03032100  0.36423900  0.19356300  1
  O  O90  1  0.49763100  0.86376700  0.62028000  1
  O  O91  1  0.49763100  0.13623300  0.62028000  1
  O  O92  1  0.00236900  0.63623300  0.37972000  1
  O  O93  1  0.00236900  0.36376700  0.37972000  1
  O  O94  1  0.00000000  0.81924500  0.50000000  1
  O  O95  1  0.00000000  0.18075500  0.50000000  1
  O  O96  1  0.00000000  0.68030900  0.00000000  1
  O  O97  1  0.00000000  0.31969100  0.00000000  1
  O  O98  1  0.10563900  0.50000000  0.80149500  1
  O  O99  1  0.39436100  0.00000000  0.19850500  1
  O  O100  1  0.36697900  0.00000000  0.60940800  1
  O  O101  1  0.13302100  0.50000000  0.39059200  1
  O  O102  1  0.36837000  0.25642100  0.85190700  1
  O  O103  1  0.36837000  0.74357900  0.85190700  1
  O  O104  1  0.13163000  0.24357900  0.14809300  1
  O  O105  1  0.13163000  0.75642100  0.14809300  1
  O  O106  1  0.13047400  0.25709200  0.64967500  1
  O  O107  1  0.13047400  0.74290800  0.64967500  1
  O  O108  1  0.36952600  0.24290800  0.35032500  1
  O  O109  1  0.36952600  0.75709200  0.35032500  1
  O  O110  1  0.22767150  0.12022750  0.83625600  1
  O  O111  1  0.22767150  0.87977250  0.83625600  1
  O  O112  1  0.27232850  0.37977250  0.16374400  1
  O  O113  1  0.27232850  0.62022750  0.16374400  1
  O  O114  1  0.27063050  0.88020950  0.66423900  1
  O  O115  1  0.27063050  0.11979050  0.66423900  1
  O  O116  1  0.22936950  0.61979050  0.33576100  1
  O  O117  1  0.22936950  0.38020950  0.33576100  1
  O  O118  1  0.23774200  0.38027900  0.85018400  1
  O  O119  1  0.23774200  0.61972100  0.85018400  1
  O  O120  1  0.26225800  0.11972100  0.14981600  1
  O  O121  1  0.26225800  0.88027900  0.14981600  1
  O  O122  1  0.26141700  0.61958400  0.65110100  1
  O  O123  1  0.26141700  0.38041600  0.65110100  1
  O  O124  1  0.23858300  0.88041600  0.34889900  1
  O  O125  1  0.23858300  0.11958400  0.34889900  1
  O  O126  1  0.28779100  0.50000000  0.50987800  1
  O  O127  1  0.21220900  0.00000000  0.49012200  1
  O  O128  1  0.21177900  0.50000000  0.99113100  1
  O  O129  1  0.28822100  0.00000000  0.00886900  1
  O  O130  1  0.02818050  0.13529450  0.69255200  1
  O  O131  1  0.02818050  0.86470550  0.69255200  1
  O  O132  1  0.47181950  0.36470550  0.30744800  1
  O  O133  1  0.47181950  0.63529450  0.30744800  1
  O  O134  1  0.39341300  0.50000000  0.69939900  1
  O  O135  1  0.10658700  0.00000000  0.30060100  1
  O  O136  1  0.63230600  0.50000000  0.89257900  1
  O  O137  1  0.86769400  0.00000000  0.10742100  1
  O  O138  1  0.50105300  0.36374000  0.87969400  1
  O  O139  1  0.50105300  0.63626000  0.87969400  1
  O  O140  1  0.99894700  0.13626000  0.12030600  1
  O  O141  1  0.99894700  0.86374000  0.12030600  1
  O  O142  1  0.96967900  0.36423900  0.80643700  1
  O  O143  1  0.96967900  0.63576100  0.80643700  1
  O  O144  1  0.53032100  0.13576100  0.19356300  1
  O  O145  1  0.53032100  0.86423900  0.19356300  1
  O  O146  1  0.99763100  0.36376700  0.62028000  1
  O  O147  1  0.99763100  0.63623300  0.62028000  1
  O  O148  1  0.50236900  0.13623300  0.37972000  1
  O  O149  1  0.50236900  0.86376700  0.37972000  1
  O  O150  1  0.50000000  0.31924500  0.50000000  1
  O  O151  1  0.50000000  0.68075500  0.50000000  1
  O  O152  1  0.50000000  0.18030900  0.00000000  1
  O  O153  1  0.50000000  0.81969100  0.00000000  1
  O  O154  1  0.60563900  0.00000000  0.80149500  1
  O  O155  1  0.89436100  0.50000000  0.19850500  1
  O  O156  1  0.86697900  0.50000000  0.60940800  1
  O  O157  1  0.63302100  0.00000000  0.39059200  1
  O  O158  1  0.86837000  0.75642100  0.85190700  1
  O  O159  1  0.86837000  0.24357900  0.85190700  1
  O  O160  1  0.63163000  0.74357900  0.14809300  1
  O  O161  1  0.63163000  0.25642100  0.14809300  1
  O  O162  1  0.63047400  0.75709200  0.64967500  1
  O  O163  1  0.63047400  0.24290800  0.64967500  1
  O  O164  1  0.86952600  0.74290800  0.35032500  1
  O  O165  1  0.86952600  0.25709200  0.35032500  1
  O  O166  1  0.72767150  0.62022750  0.83625600  1
  O  O167  1  0.72767150  0.37977250  0.83625600  1
  O  O168  1  0.77232850  0.87977250  0.16374400  1
  O  O169  1  0.77232850  0.12022750  0.16374400  1
  O  O170  1  0.77063050  0.38020950  0.66423900  1
  O  O171  1  0.77063050  0.61979050  0.66423900  1
  O  O172  1  0.72936950  0.11979050  0.33576100  1
  O  O173  1  0.72936950  0.88020950  0.33576100  1
  O  O174  1  0.73774200  0.88027900  0.85018400  1
  O  O175  1  0.73774200  0.11972100  0.85018400  1
  O  O176  1  0.76225800  0.61972100  0.14981600  1
  O  O177  1  0.76225800  0.38027900  0.14981600  1
  O  O178  1  0.76141700  0.11958400  0.65110100  1
  O  O179  1  0.76141700  0.88041600  0.65110100  1
  O  O180  1  0.73858300  0.38041600  0.34889900  1
  O  O181  1  0.73858300  0.61958400  0.34889900  1
  O  O182  1  0.78779100  0.00000000  0.50987800  1
  O  O183  1  0.71220900  0.50000000  0.49012200  1
  O  O184  1  0.71177900  0.00000000  0.99113100  1
  O  O185  1  0.78822100  0.50000000  0.00886900  1
  O  O186  1  0.52818050  0.63529450  0.69255200  1
  O  O187  1  0.52818050  0.36470550  0.69255200  1
  O  O188  1  0.97181950  0.86470550  0.30744800  1
  O  O189  1  0.97181950  0.13529450  0.30744800  1
  O  O190  1  0.89341300  0.00000000  0.69939900  1
  O  O191  1  0.60658700  0.50000000  0.30060100  1
