# generated using pymatgen
data_Na2Al2Si3O10
_symmetry_space_group_name_H-M   'P 1'
_cell_length_a   16.35718400
_cell_length_b   6.49778800
_cell_length_c   11.72473151
_cell_angle_alpha   90.00000000
_cell_angle_beta   133.45188711
_cell_angle_gamma   90.00000000
_symmetry_Int_Tables_number   1
_chemical_formula_structural   Na2Al2Si3O10
_chemical_formula_sum   'Na8 Al8 Si12 O40'
_cell_volume   904.65914247
_cell_formula_units_Z   4
loop_
 _symmetry_equiv_pos_site_id
 _symmetry_equiv_pos_as_xyz
  1  'x, y, z'
loop_
 _atom_site_type_symbol
 _atom_site_label
 _atom_site_symmetry_multiplicity
 _atom_site_fract_x
 _atom_site_fract_y
 _atom_site_fract_z
 _atom_site_occupancy
  Na  Na0  1  0.75605000  0.85457900  0.63723400  1
  Na  Na1  1  0.24395000  0.85457900  0.36276600  1
  Na  Na2  1  0.63471750  0.60212250  0.85521500  1
  Na  Na3  1  0.36528250  0.60212250  0.14478500  1
  Na  Na4  1  0.25605000  0.35457900  0.63723400  1
  Na  Na5  1  0.74395000  0.35457900  0.36276600  1
  Na  Na6  1  0.13471750  0.10212250  0.85521500  1
  Na  Na7  1  0.86528250  0.10212250  0.14478500  1
  Al  Al8  1  0.86880350  0.38482850  0.78681500  1
  Al  Al9  1  0.13119650  0.38482850  0.21318500  1
  Al  Al10  1  0.59136200  0.12779500  0.71683300  1
  Al  Al11  1  0.40863800  0.12779500  0.28316700  1
  Al  Al12  1  0.36880350  0.88482850  0.78681500  1
  Al  Al13  1  0.63119650  0.88482850  0.21318500  1
  Al  Al14  1  0.09136200  0.62779500  0.71683300  1
  Al  Al15  1  0.90863800  0.62779500  0.28316700  1
  Si  Si16  1  0.00000000  0.00424100  0.00000000  1
  Si  Si17  1  0.50000000  0.74639700  0.50000000  1
  Si  Si18  1  0.62803600  0.37361400  0.53007100  1
  Si  Si19  1  0.37196400  0.37361400  0.46992900  1
  Si  Si20  1  0.40991150  0.12988150  0.04003600  1
  Si  Si21  1  0.59008850  0.12988150  0.95996400  1
  Si  Si22  1  0.50000000  0.50424100  0.00000000  1
  Si  Si23  1  0.00000000  0.24639700  0.50000000  1
  Si  Si24  1  0.12803600  0.87361400  0.53007100  1
  Si  Si25  1  0.87196400  0.87361400  0.46992900  1
  Si  Si26  1  0.90991150  0.62988150  0.04003600  1
  Si  Si27  1  0.09008850  0.62988150  0.95996400  1
  O  O28  1  0.88729700  0.13120300  0.85555900  1
  O  O29  1  0.11270300  0.13120300  0.14444100  1
  O  O30  1  0.59541100  0.87880600  0.65948800  1
  O  O31  1  0.40458900  0.87880600  0.34051200  1
  O  O32  1  0.74933200  0.39314000  0.57956000  1
  O  O33  1  0.25066800  0.39314000  0.42044000  1
  O  O34  1  0.33043450  0.14271450  0.07868500  1
  O  O35  1  0.66956550  0.14271450  0.92131500  1
  O  O36  1  0.83940650  0.58936550  0.85537400  1
  O  O37  1  0.16059350  0.58936550  0.14462600  1
  O  O38  1  0.54897650  0.20372250  0.39321500  1
  O  O39  1  0.45102350  0.20372250  0.60678500  1
  O  O40  1  0.50044650  0.94604650  0.14961000  1
  O  O41  1  0.49955350  0.94604650  0.85039000  1
  O  O42  1  0.64967600  0.31700100  0.68449200  1
  O  O43  1  0.35032400  0.31700100  0.31550800  1
  O  O44  1  0.46783000  0.36249600  0.08212700  1
  O  O45  1  0.53217000  0.36249600  0.91787300  1
  O  O46  1  0.56542350  0.60536650  0.46556900  1
  O  O47  1  0.43457650  0.60536650  0.53443100  1
  O  O48  1  0.38729700  0.63120300  0.85555900  1
  O  O49  1  0.61270300  0.63120300  0.14444100  1
  O  O50  1  0.09541100  0.37880600  0.65948800  1
  O  O51  1  0.90458900  0.37880600  0.34051200  1
  O  O52  1  0.24933200  0.89314000  0.57956000  1
  O  O53  1  0.75066800  0.89314000  0.42044000  1
  O  O54  1  0.83043450  0.64271450  0.07868500  1
  O  O55  1  0.16956550  0.64271450  0.92131500  1
  O  O56  1  0.33940650  0.08936550  0.85537400  1
  O  O57  1  0.66059350  0.08936550  0.14462600  1
  O  O58  1  0.04897650  0.70372250  0.39321500  1
  O  O59  1  0.95102350  0.70372250  0.60678500  1
  O  O60  1  0.00044650  0.44604650  0.14961000  1
  O  O61  1  0.99955350  0.44604650  0.85039000  1
  O  O62  1  0.14967600  0.81700100  0.68449200  1
  O  O63  1  0.85032400  0.81700100  0.31550800  1
  O  O64  1  0.96783000  0.86249600  0.08212700  1
  O  O65  1  0.03217000  0.86249600  0.91787300  1
  O  O66  1  0.06542350  0.10536650  0.46556900  1
  O  O67  1  0.93457650  0.10536650  0.53443100  1
