# generated using pymatgen
data_Na7Fe3O8
_symmetry_space_group_name_H-M   'P 1'
_cell_length_a   6.00494743
_cell_length_b   8.44498729
_cell_length_c   11.50865775
_cell_angle_alpha   111.45081325
_cell_angle_beta   87.35415840
_cell_angle_gamma   109.49912755
_symmetry_Int_Tables_number   1
_chemical_formula_structural   Na7Fe3O8
_chemical_formula_sum   'Na14 Fe6 O16'
_cell_volume   510.12290591
_cell_formula_units_Z   2
loop_
 _symmetry_equiv_pos_site_id
 _symmetry_equiv_pos_as_xyz
  1  'x, y, z'
loop_
 _atom_site_type_symbol
 _atom_site_label
 _atom_site_symmetry_multiplicity
 _atom_site_fract_x
 _atom_site_fract_y
 _atom_site_fract_z
 _atom_site_occupancy
  Na  Na0  1  0.49995802  0.56086891  0.71903959  1
  Na  Na1  1  0.50004198  0.43913109  0.28096041  1
  Na  Na2  1  0.87356489  0.78181643  0.33610107  1
  Na  Na3  1  0.12643511  0.21818357  0.66389893  1
  Na  Na4  1  0.37550006  0.63976514  0.43384479  1
  Na  Na5  1  0.62449994  0.36023486  0.56615521  1
  Na  Na6  1  0.72104574  0.93157341  0.52775764  1
  Na  Na7  1  0.27895426  0.06842659  0.47224236  1
  Na  Na8  1  0.30414194  0.13420491  0.95229170  1
  Na  Na9  1  0.69585806  0.86579509  0.04770830  1
  Na  Na10  1  0.27095921  0.54731745  0.94987681  1
  Na  Na11  1  0.72904079  0.45268255  0.05012319  1
  Na  Na12  1  0.54165485  0.06280500  0.21965431  1
  Na  Na13  1  0.45834515  0.93719500  0.78034569  1
  Fe  Fe14  1  0.81561405  0.26071403  0.85137465  1
  Fe  Fe15  1  0.04374260  0.68854358  0.63755325  1
  Fe  Fe16  1  0.95625740  0.31145642  0.36244675  1
  Fe  Fe17  1  0.05846183  0.15520964  0.15324592  1
  Fe  Fe18  1  0.94153817  0.84479036  0.84675408  1
  Fe  Fe19  1  0.18438595  0.73928597  0.14862535  1
  O  O20  1  0.06163850  0.46949154  0.77571446  1
  O  O21  1  0.67981693  0.21896234  0.44452483  1
  O  O22  1  0.79378681  0.20457548  0.02986884  1
  O  O23  1  0.20621319  0.79542452  0.97013116  1
  O  O24  1  0.09728410  0.93451802  0.15785249  1
  O  O25  1  0.90271590  0.06548198  0.84214751  1
  O  O26  1  0.76024235  0.65600927  0.53643080  1
  O  O27  1  0.23975765  0.34399073  0.46356920  1
  O  O28  1  0.51143769  0.25079907  0.77265776  1
  O  O29  1  0.48856231  0.74920093  0.22734224  1
  O  O30  1  0.64644376  0.68670812  0.88369279  1
  O  O31  1  0.32018307  0.78103766  0.55547517  1
  O  O32  1  0.35355624  0.31329188  0.11630721  1
  O  O33  1  0.05293606  0.89270032  0.68899125  1
  O  O34  1  0.94706394  0.10729968  0.31100875  1
  O  O35  1  0.93836150  0.53050846  0.22428554  1
