# generated using pymatgen
data_SbO2
_symmetry_space_group_name_H-M   'P 1'
_cell_length_a   12.19905800
_cell_length_b   4.92481400
_cell_length_c   5.51001782
_cell_angle_alpha   90.00000000
_cell_angle_beta   103.58856113
_cell_angle_gamma   90.00000000
_symmetry_Int_Tables_number   1
_chemical_formula_structural   SbO2
_chemical_formula_sum   'Sb8 O16'
_cell_volume   321.76510164
_cell_formula_units_Z   8
loop_
 _symmetry_equiv_pos_site_id
 _symmetry_equiv_pos_as_xyz
  1  'x, y, z'
loop_
 _atom_site_type_symbol
 _atom_site_label
 _atom_site_symmetry_multiplicity
 _atom_site_fract_x
 _atom_site_fract_y
 _atom_site_fract_z
 _atom_site_occupancy
  Sb  Sb0  1  0.00000000  0.71353500  0.25000000  1
  Sb  Sb1  1  0.00000000  0.28646500  0.75000000  1
  Sb  Sb2  1  0.25000000  0.25000000  0.50000000  1
  Sb  Sb3  1  0.25000000  0.75000000  0.00000000  1
  Sb  Sb4  1  0.50000000  0.21353500  0.25000000  1
  Sb  Sb5  1  0.50000000  0.78646500  0.75000000  1
  Sb  Sb6  1  0.75000000  0.75000000  0.50000000  1
  Sb  Sb7  1  0.75000000  0.25000000  0.00000000  1
  O  O8  1  0.40598800  0.08550300  0.53361000  1
  O  O9  1  0.09401200  0.58550300  0.96639000  1
  O  O10  1  0.09401200  0.41449700  0.46639000  1
  O  O11  1  0.40598800  0.91449700  0.03361000  1
  O  O12  1  0.31149900  0.53912100  0.31377400  1
  O  O13  1  0.18850100  0.03912100  0.18622600  1
  O  O14  1  0.18850100  0.96087900  0.68622600  1
  O  O15  1  0.31149900  0.46087900  0.81377400  1
  O  O16  1  0.90598800  0.58550300  0.53361000  1
  O  O17  1  0.59401200  0.08550300  0.96639000  1
  O  O18  1  0.59401200  0.91449700  0.46639000  1
  O  O19  1  0.90598800  0.41449700  0.03361000  1
  O  O20  1  0.81149900  0.03912100  0.31377400  1
  O  O21  1  0.68850100  0.53912100  0.18622600  1
  O  O22  1  0.68850100  0.46087900  0.68622600  1
  O  O23  1  0.81149900  0.96087900  0.81377400  1
