# generated using pymatgen
data_K2Li3B(P2O7)2
_symmetry_space_group_name_H-M   'P 1'
_cell_length_a   14.16911800
_cell_length_b   24.39845200
_cell_length_c   7.00045200
_cell_angle_alpha   90.00000000
_cell_angle_beta   90.00000000
_cell_angle_gamma   90.00000000
_symmetry_Int_Tables_number   1
_chemical_formula_structural   K2Li3B(P2O7)2
_chemical_formula_sum   'K16 Li24 B8 P32 O112'
_cell_volume   2420.08807629
_cell_formula_units_Z   8
loop_
 _symmetry_equiv_pos_site_id
 _symmetry_equiv_pos_as_xyz
  1  'x, y, z'
loop_
 _atom_site_type_symbol
 _atom_site_label
 _atom_site_symmetry_multiplicity
 _atom_site_fract_x
 _atom_site_fract_y
 _atom_site_fract_z
 _atom_site_occupancy
  K  K0  1  0.34198000  0.25000000  0.75000000  1
  K  K1  1  0.65802000  0.25000000  0.25000000  1
  K  K2  1  0.65802000  0.75000000  0.25000000  1
  K  K3  1  0.34198000  0.75000000  0.75000000  1
  K  K4  1  0.60897000  0.00000000  0.69826300  1
  K  K5  1  0.39103000  0.00000000  0.30173700  1
  K  K6  1  0.89103000  0.00000000  0.19826300  1
  K  K7  1  0.10897000  0.00000000  0.80173700  1
  K  K8  1  0.84198000  0.75000000  0.75000000  1
  K  K9  1  0.15802000  0.75000000  0.25000000  1
  K  K10  1  0.15802000  0.25000000  0.25000000  1
  K  K11  1  0.84198000  0.25000000  0.75000000  1
  K  K12  1  0.10897000  0.50000000  0.69826300  1
  K  K13  1  0.89103000  0.50000000  0.30173700  1
  K  K14  1  0.39103000  0.50000000  0.19826300  1
  K  K15  1  0.60897000  0.50000000  0.80173700  1
  Li  Li16  1  0.76415550  0.86549350  0.97417200  1
  Li  Li17  1  0.23584450  0.86549350  0.02582800  1
  Li  Li18  1  0.73584450  0.86549350  0.47417200  1
  Li  Li19  1  0.26415550  0.86549350  0.52582800  1
  Li  Li20  1  0.23584450  0.13450650  0.02582800  1
  Li  Li21  1  0.76415550  0.13450650  0.97417200  1
  Li  Li22  1  0.26415550  0.13450650  0.52582800  1
  Li  Li23  1  0.73584450  0.13450650  0.47417200  1
  Li  Li24  1  0.50000000  0.38215600  0.00000000  1
  Li  Li25  1  0.50000000  0.88215600  0.50000000  1
  Li  Li26  1  0.50000000  0.61784400  0.00000000  1
  Li  Li27  1  0.50000000  0.11784400  0.50000000  1
  Li  Li28  1  0.26415550  0.36549350  0.97417200  1
  Li  Li29  1  0.73584450  0.36549350  0.02582800  1
  Li  Li30  1  0.23584450  0.36549350  0.47417200  1
  Li  Li31  1  0.76415550  0.36549350  0.52582800  1
  Li  Li32  1  0.73584450  0.63450650  0.02582800  1
  Li  Li33  1  0.26415550  0.63450650  0.97417200  1
  Li  Li34  1  0.76415550  0.63450650  0.52582800  1
  Li  Li35  1  0.23584450  0.63450650  0.47417200  1
  Li  Li36  1  0.00000000  0.88215600  0.00000000  1
  Li  Li37  1  0.00000000  0.38215600  0.50000000  1
  Li  Li38  1  0.00000000  0.11784400  0.00000000  1
  Li  Li39  1  0.00000000  0.61784400  0.50000000  1
  B  B40  1  0.50000000  0.38114700  0.50000000  1
  B  B41  1  0.50000000  0.88114700  0.00000000  1
  B  B42  1  0.50000000  0.61885300  0.50000000  1
  B  B43  1  0.50000000  0.11885300  0.00000000  1
  B  B44  1  0.00000000  0.88114700  0.50000000  1
  B  B45  1  0.00000000  0.38114700  0.00000000  1
  B  B46  1  0.00000000  0.11885300  0.50000000  1
  B  B47  1  0.00000000  0.61885300  0.00000000  1
  P  P48  1  0.86178150  0.93811950  0.69706100  1
  P  P49  1  0.13821850  0.93811950  0.30293900  1
  P  P50  1  0.63821850  0.93811950  0.19706100  1
  P  P51  1  0.36178150  0.93811950  0.80293900  1
  P  P52  1  0.13821850  0.06188050  0.30293900  1
  P  P53  1  0.86178150  0.06188050  0.69706100  1
  P  P54  1  0.36178150  0.06188050  0.80293900  1
  P  P55  1  0.63821850  0.06188050  0.19706100  1
  P  P56  1  0.59429950  0.80985750  0.75723600  1
  P  P57  1  0.40570050  0.80985750  0.24276400  1
  P  P58  1  0.40570050  0.30985750  0.25723600  1
  P  P59  1  0.59429950  0.30985750  0.74276400  1
  P  P60  1  0.40570050  0.19014250  0.24276400  1
  P  P61  1  0.59429950  0.19014250  0.75723600  1
  P  P62  1  0.59429950  0.69014250  0.74276400  1
  P  P63  1  0.40570050  0.69014250  0.25723600  1
  P  P64  1  0.36178150  0.43811950  0.69706100  1
  P  P65  1  0.63821850  0.43811950  0.30293900  1
  P  P66  1  0.13821850  0.43811950  0.19706100  1
  P  P67  1  0.86178150  0.43811950  0.80293900  1
  P  P68  1  0.63821850  0.56188050  0.30293900  1
  P  P69  1  0.36178150  0.56188050  0.69706100  1
  P  P70  1  0.86178150  0.56188050  0.80293900  1
  P  P71  1  0.13821850  0.56188050  0.19706100  1
  P  P72  1  0.09429950  0.30985750  0.75723600  1
  P  P73  1  0.90570050  0.30985750  0.24276400  1
  P  P74  1  0.90570050  0.80985750  0.25723600  1
  P  P75  1  0.09429950  0.80985750  0.74276400  1
  P  P76  1  0.90570050  0.69014250  0.24276400  1
  P  P77  1  0.09429950  0.69014250  0.75723600  1
  P  P78  1  0.09429950  0.19014250  0.74276400  1
  P  P79  1  0.90570050  0.19014250  0.25723600  1
  O  O80  1  0.92402700  0.94057000  0.87002300  1
  O  O81  1  0.07597300  0.94057000  0.12997700  1
  O  O82  1  0.57597300  0.94057000  0.37002300  1
  O  O83  1  0.42402700  0.94057000  0.62997700  1
  O  O84  1  0.07597300  0.05943000  0.12997700  1
  O  O85  1  0.92402700  0.05943000  0.87002300  1
  O  O86  1  0.42402700  0.05943000  0.62997700  1
  O  O87  1  0.57597300  0.05943000  0.37002300  1
  O  O88  1  0.91562700  0.91701500  0.51325400  1
  O  O89  1  0.08437300  0.91701500  0.48674600  1
  O  O90  1  0.58437300  0.91701500  0.01325400  1
  O  O91  1  0.41562700  0.91701500  0.98674600  1
  O  O92  1  0.08437300  0.08298500  0.48674600  1
  O  O93  1  0.91562700  0.08298500  0.51325400  1
  O  O94  1  0.41562700  0.08298500  0.98674600  1
  O  O95  1  0.58437300  0.08298500  0.01325400  1
  O  O96  1  0.83127400  0.00000000  0.62920200  1
  O  O97  1  0.16872600  0.00000000  0.37079800  1
  O  O98  1  0.66872600  0.00000000  0.12920200  1
  O  O99  1  0.33127400  0.00000000  0.87079800  1
  O  O100  1  0.76912800  0.90731700  0.71650100  1
  O  O101  1  0.23087200  0.90731700  0.28349900  1
  O  O102  1  0.73087200  0.90731700  0.21650100  1
  O  O103  1  0.26912800  0.90731700  0.78349900  1
  O  O104  1  0.23087200  0.09268300  0.28349900  1
  O  O105  1  0.76912800  0.09268300  0.71650100  1
  O  O106  1  0.26912800  0.09268300  0.78349900  1
  O  O107  1  0.73087200  0.09268300  0.21650100  1
  O  O108  1  0.67490000  0.80649700  0.89761800  1
  O  O109  1  0.32510000  0.80649700  0.10238200  1
  O  O110  1  0.32510000  0.30649700  0.39761800  1
  O  O111  1  0.67490000  0.30649700  0.60238200  1
  O  O112  1  0.32510000  0.19350300  0.10238200  1
  O  O113  1  0.67490000  0.19350300  0.89761800  1
  O  O114  1  0.67490000  0.69350300  0.60238200  1
  O  O115  1  0.32510000  0.69350300  0.39761800  1
  O  O116  1  0.54181100  0.75000000  0.75000000  1
  O  O117  1  0.45818900  0.75000000  0.25000000  1
  O  O118  1  0.45818900  0.25000000  0.25000000  1
  O  O119  1  0.54181100  0.25000000  0.75000000  1
  O  O120  1  0.50876350  0.84679850  0.82690600  1
  O  O121  1  0.49123650  0.84679850  0.17309400  1
  O  O122  1  0.49123650  0.34679850  0.32690600  1
  O  O123  1  0.50876350  0.34679850  0.67309400  1
  O  O124  1  0.49123650  0.15320150  0.17309400  1
  O  O125  1  0.50876350  0.15320150  0.82690600  1
  O  O126  1  0.50876350  0.65320150  0.67309400  1
  O  O127  1  0.49123650  0.65320150  0.32690600  1
  O  O128  1  0.61609850  0.82707150  0.55390900  1
  O  O129  1  0.38390150  0.82707150  0.44609100  1
  O  O130  1  0.38390150  0.32707150  0.05390900  1
  O  O131  1  0.61609850  0.32707150  0.94609100  1
  O  O132  1  0.38390150  0.17292850  0.44609100  1
  O  O133  1  0.61609850  0.17292850  0.55390900  1
  O  O134  1  0.61609850  0.67292850  0.94609100  1
  O  O135  1  0.38390150  0.67292850  0.05390900  1
  O  O136  1  0.42402700  0.44057000  0.87002300  1
  O  O137  1  0.57597300  0.44057000  0.12997700  1
  O  O138  1  0.07597300  0.44057000  0.37002300  1
  O  O139  1  0.92402700  0.44057000  0.62997700  1
  O  O140  1  0.57597300  0.55943000  0.12997700  1
  O  O141  1  0.42402700  0.55943000  0.87002300  1
  O  O142  1  0.92402700  0.55943000  0.62997700  1
  O  O143  1  0.07597300  0.55943000  0.37002300  1
  O  O144  1  0.41562700  0.41701500  0.51325400  1
  O  O145  1  0.58437300  0.41701500  0.48674600  1
  O  O146  1  0.08437300  0.41701500  0.01325400  1
  O  O147  1  0.91562700  0.41701500  0.98674600  1
  O  O148  1  0.58437300  0.58298500  0.48674600  1
  O  O149  1  0.41562700  0.58298500  0.51325400  1
  O  O150  1  0.91562700  0.58298500  0.98674600  1
  O  O151  1  0.08437300  0.58298500  0.01325400  1
  O  O152  1  0.33127400  0.50000000  0.62920200  1
  O  O153  1  0.66872600  0.50000000  0.37079800  1
  O  O154  1  0.16872600  0.50000000  0.12920200  1
  O  O155  1  0.83127400  0.50000000  0.87079800  1
  O  O156  1  0.26912800  0.40731700  0.71650100  1
  O  O157  1  0.73087200  0.40731700  0.28349900  1
  O  O158  1  0.23087200  0.40731700  0.21650100  1
  O  O159  1  0.76912800  0.40731700  0.78349900  1
  O  O160  1  0.73087200  0.59268300  0.28349900  1
  O  O161  1  0.26912800  0.59268300  0.71650100  1
  O  O162  1  0.76912800  0.59268300  0.78349900  1
  O  O163  1  0.23087200  0.59268300  0.21650100  1
  O  O164  1  0.17490000  0.30649700  0.89761800  1
  O  O165  1  0.82510000  0.30649700  0.10238200  1
  O  O166  1  0.82510000  0.80649700  0.39761800  1
  O  O167  1  0.17490000  0.80649700  0.60238200  1
  O  O168  1  0.82510000  0.69350300  0.10238200  1
  O  O169  1  0.17490000  0.69350300  0.89761800  1
  O  O170  1  0.17490000  0.19350300  0.60238200  1
  O  O171  1  0.82510000  0.19350300  0.39761800  1
  O  O172  1  0.04181100  0.25000000  0.75000000  1
  O  O173  1  0.95818900  0.25000000  0.25000000  1
  O  O174  1  0.95818900  0.75000000  0.25000000  1
  O  O175  1  0.04181100  0.75000000  0.75000000  1
  O  O176  1  0.00876350  0.34679850  0.82690600  1
  O  O177  1  0.99123650  0.34679850  0.17309400  1
  O  O178  1  0.99123650  0.84679850  0.32690600  1
  O  O179  1  0.00876350  0.84679850  0.67309400  1
  O  O180  1  0.99123650  0.65320150  0.17309400  1
  O  O181  1  0.00876350  0.65320150  0.82690600  1
  O  O182  1  0.00876350  0.15320150  0.67309400  1
  O  O183  1  0.99123650  0.15320150  0.32690600  1
  O  O184  1  0.11609850  0.32707150  0.55390900  1
  O  O185  1  0.88390150  0.32707150  0.44609100  1
  O  O186  1  0.88390150  0.82707150  0.05390900  1
  O  O187  1  0.11609850  0.82707150  0.94609100  1
  O  O188  1  0.88390150  0.67292850  0.44609100  1
  O  O189  1  0.11609850  0.67292850  0.55390900  1
  O  O190  1  0.11609850  0.17292850  0.94609100  1
  O  O191  1  0.88390150  0.17292850  0.05390900  1
