# generated using pymatgen
data_NaVCdO4
_symmetry_space_group_name_H-M   'P 1'
_cell_length_a   5.94926800
_cell_length_b   9.31093600
_cell_length_c   7.13405300
_cell_angle_alpha   90.00000000
_cell_angle_beta   90.00000000
_cell_angle_gamma   90.00000000
_symmetry_Int_Tables_number   1
_chemical_formula_structural   NaVCdO4
_chemical_formula_sum   'Na4 V4 Cd4 O16'
_cell_volume   395.17840699
_cell_formula_units_Z   4
loop_
 _symmetry_equiv_pos_site_id
 _symmetry_equiv_pos_as_xyz
  1  'x, y, z'
loop_
 _atom_site_type_symbol
 _atom_site_label
 _atom_site_symmetry_multiplicity
 _atom_site_fract_x
 _atom_site_fract_y
 _atom_site_fract_z
 _atom_site_occupancy
  Na  Na0  1  0.50000000  0.18094900  0.75000000  1
  Na  Na1  1  0.50000000  0.81905100  0.25000000  1
  Na  Na2  1  0.00000000  0.68094900  0.75000000  1
  Na  Na3  1  0.00000000  0.31905100  0.25000000  1
  V  V4  1  0.50000000  0.15057000  0.25000000  1
  V  V5  1  0.50000000  0.84943000  0.75000000  1
  V  V6  1  0.00000000  0.65057000  0.25000000  1
  V  V7  1  0.00000000  0.34943000  0.75000000  1
  Cd  Cd8  1  0.00000000  0.00000000  0.00000000  1
  Cd  Cd9  1  0.00000000  0.00000000  0.50000000  1
  Cd  Cd10  1  0.50000000  0.50000000  0.00000000  1
  Cd  Cd11  1  0.50000000  0.50000000  0.50000000  1
  O  O12  1  0.74166050  0.96215550  0.75000000  1
  O  O13  1  0.25833950  0.03784450  0.25000000  1
  O  O14  1  0.74166050  0.03784450  0.25000000  1
  O  O15  1  0.25833950  0.96215550  0.75000000  1
  O  O16  1  0.50000000  0.25866200  0.05512500  1
  O  O17  1  0.50000000  0.74133800  0.55512500  1
  O  O18  1  0.50000000  0.25866200  0.44487500  1
  O  O19  1  0.50000000  0.74133800  0.94487500  1
  O  O20  1  0.24166050  0.46215550  0.75000000  1
  O  O21  1  0.75833950  0.53784450  0.25000000  1
  O  O22  1  0.24166050  0.53784450  0.25000000  1
  O  O23  1  0.75833950  0.46215550  0.75000000  1
  O  O24  1  0.00000000  0.75866200  0.05512500  1
  O  O25  1  0.00000000  0.24133800  0.55512500  1
  O  O26  1  0.00000000  0.75866200  0.44487500  1
  O  O27  1  0.00000000  0.24133800  0.94487500  1
