# generated using pymatgen
data_Na2MgAlF7
_symmetry_space_group_name_H-M   'P 1'
_cell_length_a   7.15909400
_cell_length_b   7.44724400
_cell_length_c   10.13953600
_cell_angle_alpha   90.00000000
_cell_angle_beta   90.00000000
_cell_angle_gamma   90.00000000
_symmetry_Int_Tables_number   1
_chemical_formula_structural   Na2MgAlF7
_chemical_formula_sum   'Na8 Mg4 Al4 F28'
_cell_volume   540.59463275
_cell_formula_units_Z   4
loop_
 _symmetry_equiv_pos_site_id
 _symmetry_equiv_pos_as_xyz
  1  'x, y, z'
loop_
 _atom_site_type_symbol
 _atom_site_label
 _atom_site_symmetry_multiplicity
 _atom_site_fract_x
 _atom_site_fract_y
 _atom_site_fract_z
 _atom_site_occupancy
  Na  Na0  1  0.66407900  0.22288600  0.25000000  1
  Na  Na1  1  0.66407900  0.77711400  0.75000000  1
  Na  Na2  1  0.92014600  0.00000000  0.00000000  1
  Na  Na3  1  0.92014600  0.00000000  0.50000000  1
  Na  Na4  1  0.16407900  0.72288600  0.75000000  1
  Na  Na5  1  0.16407900  0.27711400  0.25000000  1
  Na  Na6  1  0.42014600  0.50000000  0.50000000  1
  Na  Na7  1  0.42014600  0.50000000  0.00000000  1
  Mg  Mg8  1  0.15970700  0.75186100  0.25000000  1
  Mg  Mg9  1  0.15970700  0.24813900  0.75000000  1
  Mg  Mg10  1  0.65970700  0.25186100  0.75000000  1
  Mg  Mg11  1  0.65970700  0.74813900  0.25000000  1
  Al  Al12  1  0.40979700  0.00000000  0.00000000  1
  Al  Al13  1  0.40979700  0.00000000  0.50000000  1
  Al  Al14  1  0.90979700  0.50000000  0.50000000  1
  Al  Al15  1  0.90979700  0.50000000  0.00000000  1
  F  F16  1  0.59434100  0.93078300  0.38704100  1
  F  F17  1  0.59434100  0.06921700  0.61295900  1
  F  F18  1  0.59434100  0.06921700  0.88704100  1
  F  F19  1  0.59434100  0.93078300  0.11295900  1
  F  F20  1  0.22587100  0.92900600  0.38850700  1
  F  F21  1  0.22587100  0.07099400  0.61149300  1
  F  F22  1  0.22587100  0.07099400  0.88850700  1
  F  F23  1  0.22587100  0.92900600  0.11149300  1
  F  F24  1  0.90898200  0.13743700  0.75000000  1
  F  F25  1  0.90898200  0.86256300  0.25000000  1
  F  F26  1  0.91088150  0.71969150  0.58618750  1
  F  F27  1  0.91088150  0.28030850  0.41381250  1
  F  F28  1  0.41088150  0.78030850  0.58618750  1
  F  F29  1  0.41088150  0.21969150  0.41381250  1
  F  F30  1  0.09434100  0.43078300  0.88704100  1
  F  F31  1  0.09434100  0.56921700  0.11295900  1
  F  F32  1  0.09434100  0.56921700  0.38704100  1
  F  F33  1  0.09434100  0.43078300  0.61295900  1
  F  F34  1  0.72587100  0.42900600  0.88850700  1
  F  F35  1  0.72587100  0.57099400  0.11149300  1
  F  F36  1  0.72587100  0.57099400  0.38850700  1
  F  F37  1  0.72587100  0.42900600  0.61149300  1
  F  F38  1  0.40898200  0.63743700  0.25000000  1
  F  F39  1  0.40898200  0.36256300  0.75000000  1
  F  F40  1  0.41088150  0.21969150  0.08618750  1
  F  F41  1  0.41088150  0.78030850  0.91381250  1
  F  F42  1  0.91088150  0.28030850  0.08618750  1
  F  F43  1  0.91088150  0.71969150  0.91381250  1
