# generated using pymatgen
data_AgO
_symmetry_space_group_name_H-M   'P 1'
_cell_length_a   6.95346400
_cell_length_b   6.95346400
_cell_length_c   9.40079600
_cell_angle_alpha   90.00000000
_cell_angle_beta   90.00000000
_cell_angle_gamma   90.00000000
_symmetry_Int_Tables_number   1
_chemical_formula_structural   AgO
_chemical_formula_sum   'Ag16 O16'
_cell_volume   454.53470616
_cell_formula_units_Z   16
loop_
 _symmetry_equiv_pos_site_id
 _symmetry_equiv_pos_as_xyz
  1  'x, y, z'
loop_
 _atom_site_type_symbol
 _atom_site_label
 _atom_site_symmetry_multiplicity
 _atom_site_fract_x
 _atom_site_fract_y
 _atom_site_fract_z
 _atom_site_occupancy
  Ag  Ag0  1  0.50000000  0.25000000  0.12500000  1
  Ag  Ag1  1  0.25000000  0.50000000  0.87500000  1
  Ag  Ag2  1  0.25000000  0.00000000  0.37500000  1
  Ag  Ag3  1  0.00000000  0.25000000  0.62500000  1
  Ag  Ag4  1  0.00000000  0.75000000  0.12500000  1
  Ag  Ag5  1  0.25000000  0.50000000  0.37500000  1
  Ag  Ag6  1  0.75000000  0.50000000  0.37500000  1
  Ag  Ag7  1  0.00000000  0.25000000  0.12500000  1
  Ag  Ag8  1  0.00000000  0.75000000  0.62500000  1
  Ag  Ag9  1  0.75000000  0.00000000  0.37500000  1
  Ag  Ag10  1  0.75000000  0.50000000  0.87500000  1
  Ag  Ag11  1  0.50000000  0.75000000  0.12500000  1
  Ag  Ag12  1  0.50000000  0.25000000  0.62500000  1
  Ag  Ag13  1  0.75000000  0.00000000  0.87500000  1
  Ag  Ag14  1  0.25000000  0.00000000  0.87500000  1
  Ag  Ag15  1  0.50000000  0.75000000  0.62500000  1
  O  O16  1  0.58494050  0.25676450  0.41345850  1
  O  O17  1  0.24323550  0.58494050  0.16345850  1
  O  O18  1  0.25676450  0.91505950  0.66345850  1
  O  O19  1  0.41505950  0.74323550  0.41345850  1
  O  O20  1  0.41505950  0.24323550  0.83654150  1
  O  O21  1  0.75676450  0.91505950  0.08654150  1
  O  O22  1  0.24323550  0.08494050  0.08654150  1
  O  O23  1  0.08494050  0.25676450  0.33654150  1
  O  O24  1  0.08494050  0.75676450  0.91345850  1
  O  O25  1  0.74323550  0.08494050  0.66345850  1
  O  O26  1  0.75676450  0.41505950  0.16345850  1
  O  O27  1  0.91505950  0.24323550  0.91345850  1
  O  O28  1  0.91505950  0.74323550  0.33654150  1
  O  O29  1  0.25676450  0.41505950  0.58654150  1
  O  O30  1  0.74323550  0.58494050  0.58654150  1
  O  O31  1  0.58494050  0.75676450  0.83654150  1
