# generated using pymatgen
data_DyTa7O19
_symmetry_space_group_name_H-M   'P 1'
_cell_length_a   6.26952755
_cell_length_b   6.26952755
_cell_length_c   20.07634200
_cell_angle_alpha   90.00000000
_cell_angle_beta   90.00000000
_cell_angle_gamma   120.00000000
_symmetry_Int_Tables_number   1
_chemical_formula_structural   DyTa7O19
_chemical_formula_sum   'Dy2 Ta14 O38'
_cell_volume   683.41553617
_cell_formula_units_Z   2
loop_
 _symmetry_equiv_pos_site_id
 _symmetry_equiv_pos_as_xyz
  1  'x, y, z'
loop_
 _atom_site_type_symbol
 _atom_site_label
 _atom_site_symmetry_multiplicity
 _atom_site_fract_x
 _atom_site_fract_y
 _atom_site_fract_z
 _atom_site_occupancy
  Dy  Dy0  1  0.00000000  0.00000000  0.50000000  1
  Dy  Dy1  1  0.00000000  0.00000000  0.00000000  1
  Ta  Ta2  1  0.30741400  0.97386100  0.65549400  1
  Ta  Ta3  1  0.02613900  0.69258600  0.34450600  1
  Ta  Ta4  1  0.02613900  0.33355300  0.65549400  1
  Ta  Ta5  1  0.66644700  0.69258600  0.65549400  1
  Ta  Ta6  1  0.02613900  0.33355300  0.84450600  1
  Ta  Ta7  1  0.66644700  0.69258600  0.84450600  1
  Ta  Ta8  1  0.30741400  0.97386100  0.84450600  1
  Ta  Ta9  1  0.66644700  0.97386100  0.15549400  1
  Ta  Ta10  1  0.30741400  0.33355300  0.15549400  1
  Ta  Ta11  1  0.30741400  0.33355300  0.34450600  1
  Ta  Ta12  1  0.66644700  0.97386100  0.34450600  1
  Ta  Ta13  1  0.02613900  0.69258600  0.15549400  1
  Ta  Ta14  1  0.33333333  0.66666667  0.50000000  1
  Ta  Ta15  1  0.33333333  0.66666667  0.00000000  1
  O  O16  1  0.00000000  0.00000000  0.63134400  1
  O  O17  1  0.00000000  0.00000000  0.86865600  1
  O  O18  1  0.00000000  0.00000000  0.36865600  1
  O  O19  1  0.00000000  0.00000000  0.13134400  1
  O  O20  1  0.33333333  0.66666667  0.66580400  1
  O  O21  1  0.33333333  0.66666667  0.83419600  1
  O  O22  1  0.33333333  0.66666667  0.33419600  1
  O  O23  1  0.33333333  0.66666667  0.16580400  1
  O  O24  1  0.42145000  0.33355400  0.65295900  1
  O  O25  1  0.66644600  0.57855000  0.34704100  1
  O  O26  1  0.66644600  0.08789600  0.65295900  1
  O  O27  1  0.91210400  0.57855000  0.65295900  1
  O  O28  1  0.66644600  0.08789600  0.84704100  1
  O  O29  1  0.91210400  0.57855000  0.84704100  1
  O  O30  1  0.42145000  0.33355400  0.84704100  1
  O  O31  1  0.91210400  0.33355400  0.15295900  1
  O  O32  1  0.04325000  0.75122800  0.25000000  1
  O  O33  1  0.70797800  0.95675000  0.25000000  1
  O  O34  1  0.24877200  0.29202200  0.25000000  1
  O  O35  1  0.24877200  0.95675000  0.75000000  1
  O  O36  1  0.70797800  0.75122800  0.75000000  1
  O  O37  1  0.04325000  0.29202200  0.75000000  1
  O  O38  1  0.09665200  0.71938900  0.05568700  1
  O  O39  1  0.62273700  0.90334800  0.44431300  1
  O  O40  1  0.28061100  0.37726300  0.44431300  1
  O  O41  1  0.28061100  0.37726300  0.05568700  1
  O  O42  1  0.62273700  0.90334800  0.05568700  1
  O  O43  1  0.28061100  0.90334800  0.94431300  1
  O  O44  1  0.62273700  0.71938900  0.94431300  1
  O  O45  1  0.09665200  0.37726300  0.94431300  1
  O  O46  1  0.62273700  0.71938900  0.55568700  1
  O  O47  1  0.09665200  0.37726300  0.55568700  1
  O  O48  1  0.09665200  0.71938900  0.44431300  1
  O  O49  1  0.28061100  0.90334800  0.55568700  1
  O  O50  1  0.66644600  0.57855000  0.15295900  1
  O  O51  1  0.91210400  0.33355400  0.34704100  1
  O  O52  1  0.42145000  0.08789600  0.34704100  1
  O  O53  1  0.42145000  0.08789600  0.15295900  1
