# generated using pymatgen
data_Tb(BO2)3
_symmetry_space_group_name_H-M   'P 1'
_cell_length_a   6.15761600
_cell_length_b   7.82968000
_cell_length_c   8.41021200
_cell_angle_alpha   90.00000000
_cell_angle_beta   90.00000000
_cell_angle_gamma   90.00000000
_symmetry_Int_Tables_number   1
_chemical_formula_structural   Tb(BO2)3
_chemical_formula_sum   'Tb4 B12 O24'
_cell_volume   405.47451049
_cell_formula_units_Z   4
loop_
 _symmetry_equiv_pos_site_id
 _symmetry_equiv_pos_as_xyz
  1  'x, y, z'
loop_
 _atom_site_type_symbol
 _atom_site_label
 _atom_site_symmetry_multiplicity
 _atom_site_fract_x
 _atom_site_fract_y
 _atom_site_fract_z
 _atom_site_occupancy
  Tb  Tb0  1  0.50000000  0.75000000  0.50000000  1
  Tb  Tb1  1  0.50000000  0.25000000  0.50000000  1
  Tb  Tb2  1  0.00000000  0.25000000  0.00000000  1
  Tb  Tb3  1  0.00000000  0.75000000  0.00000000  1
  B  B4  1  0.00000000  0.25000000  0.50000000  1
  B  B5  1  0.00000000  0.75000000  0.50000000  1
  B  B6  1  0.61866100  0.00000000  0.18241500  1
  B  B7  1  0.88133900  0.00000000  0.68241500  1
  B  B8  1  0.38133900  0.00000000  0.81758500  1
  B  B9  1  0.11866100  0.00000000  0.31758500  1
  B  B10  1  0.50000000  0.75000000  0.00000000  1
  B  B11  1  0.50000000  0.25000000  0.00000000  1
  B  B12  1  0.11866100  0.50000000  0.68241500  1
  B  B13  1  0.38133900  0.50000000  0.18241500  1
  B  B14  1  0.88133900  0.50000000  0.31758500  1
  B  B15  1  0.61866100  0.50000000  0.81758500  1
  O  O16  1  0.84768500  0.34827000  0.39610500  1
  O  O17  1  0.56424300  0.00000000  0.33733100  1
  O  O18  1  0.93575700  0.00000000  0.83733100  1
  O  O19  1  0.43575700  0.00000000  0.66266900  1
  O  O20  1  0.84768500  0.15173000  0.60389500  1
  O  O21  1  0.15231500  0.34827000  0.60389500  1
  O  O22  1  0.15231500  0.84827000  0.39610500  1
  O  O23  1  0.84768500  0.65173000  0.39610500  1
  O  O24  1  0.15231500  0.65173000  0.60389500  1
  O  O25  1  0.84768500  0.84827000  0.60389500  1
  O  O26  1  0.06424300  0.00000000  0.16266900  1
  O  O27  1  0.15231500  0.15173000  0.39610500  1
  O  O28  1  0.34768500  0.84827000  0.89610500  1
  O  O29  1  0.06424300  0.50000000  0.83733100  1
  O  O30  1  0.43575700  0.50000000  0.33733100  1
  O  O31  1  0.93575700  0.50000000  0.16266900  1
  O  O32  1  0.34768500  0.65173000  0.10389500  1
  O  O33  1  0.65231500  0.84827000  0.10389500  1
  O  O34  1  0.65231500  0.34827000  0.89610500  1
  O  O35  1  0.34768500  0.15173000  0.89610500  1
  O  O36  1  0.65231500  0.15173000  0.10389500  1
  O  O37  1  0.34768500  0.34827000  0.10389500  1
  O  O38  1  0.56424300  0.50000000  0.66266900  1
  O  O39  1  0.65231500  0.65173000  0.89610500  1
