# generated using pymatgen
data_H2CO3
_symmetry_space_group_name_H-M   'P 1'
_cell_length_a   6.71213600
_cell_length_b   6.72324400
_cell_length_c   6.58336500
_cell_angle_alpha   90.00000000
_cell_angle_beta   90.00000000
_cell_angle_gamma   90.00000000
_symmetry_Int_Tables_number   1
_chemical_formula_structural   H2CO3
_chemical_formula_sum   'H8 C4 O12'
_cell_volume   297.08967229
_cell_formula_units_Z   4
loop_
 _symmetry_equiv_pos_site_id
 _symmetry_equiv_pos_as_xyz
  1  'x, y, z'
loop_
 _atom_site_type_symbol
 _atom_site_label
 _atom_site_symmetry_multiplicity
 _atom_site_fract_x
 _atom_site_fract_y
 _atom_site_fract_z
 _atom_site_occupancy
  H  H0  1  0.66669800  0.00000000  0.54170900  1
  H  H1  1  0.66669800  0.00000000  0.95829100  1
  H  H2  1  0.33330200  0.00000000  0.04170900  1
  H  H3  1  0.33330200  0.00000000  0.45829100  1
  H  H4  1  0.16669800  0.50000000  0.54170900  1
  H  H5  1  0.16669800  0.50000000  0.95829100  1
  H  H6  1  0.83330200  0.50000000  0.04170900  1
  H  H7  1  0.83330200  0.50000000  0.45829100  1
  C  C8  1  0.64757100  0.00000000  0.25000000  1
  C  C9  1  0.35242900  0.00000000  0.75000000  1
  C  C10  1  0.14757100  0.50000000  0.25000000  1
  C  C11  1  0.85242900  0.50000000  0.75000000  1
  O  O12  1  0.45904900  0.00000000  0.25000000  1
  O  O13  1  0.54095100  0.00000000  0.75000000  1
  O  O14  1  0.75546600  0.00000000  0.41616100  1
  O  O15  1  0.75546600  0.00000000  0.08383900  1
  O  O16  1  0.24453400  0.00000000  0.91616100  1
  O  O17  1  0.24453400  0.00000000  0.58383900  1
  O  O18  1  0.95904900  0.50000000  0.25000000  1
  O  O19  1  0.04095100  0.50000000  0.75000000  1
  O  O20  1  0.25546600  0.50000000  0.41616100  1
  O  O21  1  0.25546600  0.50000000  0.08383900  1
  O  O22  1  0.74453400  0.50000000  0.91616100  1
  O  O23  1  0.74453400  0.50000000  0.58383900  1
