# generated using pymatgen
data_BaSm2NiO5
_symmetry_space_group_name_H-M   'P 1'
_cell_length_a   3.83947272
_cell_length_b   5.92142213
_cell_length_c   11.68375048
_cell_angle_alpha   90.00000000
_cell_angle_beta   90.00000000
_cell_angle_gamma   90.00000000
_symmetry_Int_Tables_number   1
_chemical_formula_structural   BaSm2NiO5
_chemical_formula_sum   'Ba2 Sm4 Ni2 O10'
_cell_volume   265.63168821
_cell_formula_units_Z   2
loop_
 _symmetry_equiv_pos_site_id
 _symmetry_equiv_pos_as_xyz
  1  'x, y, z'
loop_
 _atom_site_type_symbol
 _atom_site_label
 _atom_site_symmetry_multiplicity
 _atom_site_fract_x
 _atom_site_fract_y
 _atom_site_fract_z
 _atom_site_occupancy
  Ba  Ba0  1  0.00000000  0.50000000  0.00000000  1
  Ba  Ba1  1  0.50000000  0.00000000  0.50000000  1
  Sm  Sm2  1  0.50000000  0.50000000  0.29726687  1
  Sm  Sm3  1  0.00000000  0.00000000  0.20273313  1
  Sm  Sm4  1  0.00000000  0.00000000  0.79726687  1
  Sm  Sm5  1  0.50000000  0.50000000  0.70273313  1
  Ni  Ni6  1  0.00000000  0.50000000  0.50000000  1
  Ni  Ni7  1  0.50000000  0.00000000  0.00000000  1
  O  O8  1  0.50000000  0.50000000  0.50000000  1
  O  O9  1  0.00000000  0.74110691  0.35320820  1
  O  O10  1  0.50000000  0.75889309  0.14679180  1
  O  O11  1  0.50000000  0.24110691  0.14679180  1
  O  O12  1  0.00000000  0.25889309  0.35320820  1
  O  O13  1  0.00000000  0.00000000  0.00000000  1
  O  O14  1  0.50000000  0.24110691  0.85320820  1
  O  O15  1  0.00000000  0.25889309  0.64679180  1
  O  O16  1  0.00000000  0.74110691  0.64679180  1
  O  O17  1  0.50000000  0.75889309  0.85320820  1
