# generated using pymatgen
data_CrPO4
_symmetry_space_group_name_H-M   'P 1'
_cell_length_a   6.40605800
_cell_length_b   10.59027600
_cell_length_c   13.17492600
_cell_angle_alpha   90.00000000
_cell_angle_beta   90.00000000
_cell_angle_gamma   90.00000000
_symmetry_Int_Tables_number   1
_chemical_formula_structural   CrPO4
_chemical_formula_sum   'Cr12 P12 O48'
_cell_volume   893.81230589
_cell_formula_units_Z   12
loop_
 _symmetry_equiv_pos_site_id
 _symmetry_equiv_pos_as_xyz
  1  'x, y, z'
loop_
 _atom_site_type_symbol
 _atom_site_label
 _atom_site_symmetry_multiplicity
 _atom_site_fract_x
 _atom_site_fract_y
 _atom_site_fract_z
 _atom_site_occupancy
  Cr  Cr0  1  0.75000000  0.25000000  0.86675600  1
  Cr  Cr1  1  0.25000000  0.25000000  0.13324400  1
  Cr  Cr2  1  0.25000000  0.75000000  0.13324400  1
  Cr  Cr3  1  0.75000000  0.75000000  0.86675600  1
  Cr  Cr4  1  0.00000000  0.50000000  0.00000000  1
  Cr  Cr5  1  0.50000000  0.00000000  0.00000000  1
  Cr  Cr6  1  0.25000000  0.75000000  0.36675600  1
  Cr  Cr7  1  0.75000000  0.75000000  0.63324400  1
  Cr  Cr8  1  0.75000000  0.25000000  0.63324400  1
  Cr  Cr9  1  0.25000000  0.25000000  0.36675600  1
  Cr  Cr10  1  0.50000000  0.00000000  0.50000000  1
  Cr  Cr11  1  0.00000000  0.50000000  0.50000000  1
  P  P12  1  0.75000000  0.25000000  0.07357400  1
  P  P13  1  0.25000000  0.25000000  0.92642600  1
  P  P14  1  0.25000000  0.75000000  0.92642600  1
  P  P15  1  0.75000000  0.75000000  0.07357400  1
  P  P16  1  0.91365700  0.50000000  0.75000000  1
  P  P17  1  0.08634300  0.50000000  0.25000000  1
  P  P18  1  0.25000000  0.75000000  0.57357400  1
  P  P19  1  0.75000000  0.75000000  0.42642600  1
  P  P20  1  0.75000000  0.25000000  0.42642600  1
  P  P21  1  0.25000000  0.25000000  0.57357400  1
  P  P22  1  0.41365700  0.00000000  0.25000000  1
  P  P23  1  0.58634300  0.00000000  0.75000000  1
  O  O24  1  0.03804500  0.50000000  0.84866300  1
  O  O25  1  0.03804500  0.50000000  0.65133700  1
  O  O26  1  0.96195500  0.50000000  0.15133700  1
  O  O27  1  0.96195500  0.50000000  0.34866300  1
  O  O28  1  0.05705350  0.22419850  0.86405950  1
  O  O29  1  0.55705350  0.27580150  0.13594050  1
  O  O30  1  0.94294650  0.22419850  0.13594050  1
  O  O31  1  0.44294650  0.27580150  0.86405950  1
  O  O32  1  0.94294650  0.77580150  0.13594050  1
  O  O33  1  0.44294650  0.72419850  0.86405950  1
  O  O34  1  0.05705350  0.77580150  0.86405950  1
  O  O35  1  0.55705350  0.72419850  0.13594050  1
  O  O36  1  0.22927100  0.37740500  0.25000000  1
  O  O37  1  0.22927100  0.62259500  0.25000000  1
  O  O38  1  0.77072900  0.37740500  0.75000000  1
  O  O39  1  0.77072900  0.62259500  0.75000000  1
  O  O40  1  0.71596150  0.86088450  0.99157350  1
  O  O41  1  0.21596150  0.63911550  0.00842650  1
  O  O42  1  0.28403850  0.86088450  0.00842650  1
  O  O43  1  0.78403850  0.63911550  0.99157350  1
  O  O44  1  0.28403850  0.13911550  0.00842650  1
  O  O45  1  0.78403850  0.36088450  0.99157350  1
  O  O46  1  0.71596150  0.13911550  0.99157350  1
  O  O47  1  0.21596150  0.36088450  0.00842650  1
  O  O48  1  0.53804500  0.00000000  0.34866300  1
  O  O49  1  0.53804500  0.00000000  0.15133700  1
  O  O50  1  0.46195500  0.00000000  0.65133700  1
  O  O51  1  0.46195500  0.00000000  0.84866300  1
  O  O52  1  0.55705350  0.72419850  0.36405950  1
  O  O53  1  0.05705350  0.77580150  0.63594050  1
  O  O54  1  0.44294650  0.72419850  0.63594050  1
  O  O55  1  0.94294650  0.77580150  0.36405950  1
  O  O56  1  0.44294650  0.27580150  0.63594050  1
  O  O57  1  0.94294650  0.22419850  0.36405950  1
  O  O58  1  0.55705350  0.27580150  0.36405950  1
  O  O59  1  0.05705350  0.22419850  0.63594050  1
  O  O60  1  0.72927100  0.87740500  0.75000000  1
  O  O61  1  0.72927100  0.12259500  0.75000000  1
  O  O62  1  0.27072900  0.87740500  0.25000000  1
  O  O63  1  0.27072900  0.12259500  0.25000000  1
  O  O64  1  0.21596150  0.36088450  0.49157350  1
  O  O65  1  0.71596150  0.13911550  0.50842650  1
  O  O66  1  0.78403850  0.36088450  0.50842650  1
  O  O67  1  0.28403850  0.13911550  0.49157350  1
  O  O68  1  0.78403850  0.63911550  0.50842650  1
  O  O69  1  0.28403850  0.86088450  0.49157350  1
  O  O70  1  0.21596150  0.63911550  0.49157350  1
  O  O71  1  0.71596150  0.86088450  0.50842650  1
