# generated using pymatgen
data_CF4
_symmetry_space_group_name_H-M   'P 1'
_cell_length_a   8.72245800
_cell_length_b   4.47087200
_cell_length_c   8.70358294
_cell_angle_alpha   90.00000000
_cell_angle_beta   119.81256282
_cell_angle_gamma   90.00000000
_symmetry_Int_Tables_number   1
_chemical_formula_structural   CF4
_chemical_formula_sum   'C4 F16'
_cell_volume   294.49437382
_cell_formula_units_Z   4
loop_
 _symmetry_equiv_pos_site_id
 _symmetry_equiv_pos_as_xyz
  1  'x, y, z'
loop_
 _atom_site_type_symbol
 _atom_site_label
 _atom_site_symmetry_multiplicity
 _atom_site_fract_x
 _atom_site_fract_y
 _atom_site_fract_z
 _atom_site_occupancy
  C  C0  1  0.50000000  0.07391600  0.25000000  1
  C  C1  1  0.50000000  0.92608400  0.75000000  1
  C  C2  1  0.00000000  0.57391600  0.25000000  1
  C  C3  1  0.00000000  0.42608400  0.75000000  1
  F  F4  1  0.64114350  0.90050050  0.29141200  1
  F  F5  1  0.35885650  0.90050050  0.20858800  1
  F  F6  1  0.35885650  0.09949950  0.70858800  1
  F  F7  1  0.64114350  0.09949950  0.79141200  1
  F  F8  1  0.46665050  0.75238350  0.61070500  1
  F  F9  1  0.53334950  0.75238350  0.88929500  1
  F  F10  1  0.53334950  0.24761650  0.38929500  1
  F  F11  1  0.46665050  0.24761650  0.11070500  1
  F  F12  1  0.14114350  0.40050050  0.29141200  1
  F  F13  1  0.85885650  0.40050050  0.20858800  1
  F  F14  1  0.85885650  0.59949950  0.70858800  1
  F  F15  1  0.14114350  0.59949950  0.79141200  1
  F  F16  1  0.96665050  0.25238350  0.61070500  1
  F  F17  1  0.03334950  0.25238350  0.88929500  1
  F  F18  1  0.03334950  0.74761650  0.38929500  1
  F  F19  1  0.96665050  0.74761650  0.11070500  1
