# generated using pymatgen
data_BaLaAlO4
_symmetry_space_group_name_H-M   'P 1'
_cell_length_a   5.88119600
_cell_length_b   7.34188200
_cell_length_c   9.92758000
_cell_angle_alpha   90.00000000
_cell_angle_beta   90.00000000
_cell_angle_gamma   90.00000000
_symmetry_Int_Tables_number   1
_chemical_formula_structural   BaLaAlO4
_chemical_formula_sum   'Ba4 La4 Al4 O16'
_cell_volume   428.66344392
_cell_formula_units_Z   4
loop_
 _symmetry_equiv_pos_site_id
 _symmetry_equiv_pos_as_xyz
  1  'x, y, z'
loop_
 _atom_site_type_symbol
 _atom_site_label
 _atom_site_symmetry_multiplicity
 _atom_site_fract_x
 _atom_site_fract_y
 _atom_site_fract_z
 _atom_site_occupancy
  Ba  Ba0  1  0.01345100  0.08266800  0.91947500  1
  Ba  Ba1  1  0.48654900  0.91733200  0.41947500  1
  Ba  Ba2  1  0.51345100  0.41733200  0.08052500  1
  Ba  Ba3  1  0.98654900  0.58266800  0.58052500  1
  La  La4  1  0.51288600  0.25368000  0.69811700  1
  La  La5  1  0.48711400  0.75368000  0.80188300  1
  La  La6  1  0.98711400  0.74632000  0.19811700  1
  La  La7  1  0.01288600  0.24632000  0.30188300  1
  Al  Al8  1  0.01884900  0.52645600  0.91625000  1
  Al  Al9  1  0.51884900  0.97354400  0.08375000  1
  Al  Al10  1  0.98115100  0.02645600  0.58375000  1
  Al  Al11  1  0.48115100  0.47354400  0.41625000  1
  O  O12  1  0.75909100  0.49064700  0.82679000  1
  O  O13  1  0.25909100  0.00935300  0.17321000  1
  O  O14  1  0.24090900  0.99064700  0.67321000  1
  O  O15  1  0.74090900  0.50935300  0.32679000  1
  O  O16  1  0.12842100  0.74580300  0.95199600  1
  O  O17  1  0.62842100  0.75419700  0.04800400  1
  O  O18  1  0.87157900  0.24580300  0.54800400  1
  O  O19  1  0.37157900  0.25419700  0.45199600  1
  O  O20  1  0.23998600  0.43399700  0.81342600  1
  O  O21  1  0.73998600  0.06600300  0.18657400  1
  O  O22  1  0.76001400  0.93399700  0.68657400  1
  O  O23  1  0.26001400  0.56600300  0.31342600  1
  O  O24  1  0.49409400  0.58731900  0.57530300  1
  O  O25  1  0.99409400  0.91268100  0.42469700  1
  O  O26  1  0.50590600  0.08731900  0.92469700  1
  O  O27  1  0.00590600  0.41268100  0.07530300  1
