# generated using pymatgen
data_Na4Ni7(PO4)6
_symmetry_space_group_name_H-M   'P 1'
_cell_length_a   10.71724200
_cell_length_b   14.13275000
_cell_length_c   6.49689054
_cell_angle_alpha   90.00000000
_cell_angle_beta   104.82324185
_cell_angle_gamma   90.00000000
_symmetry_Int_Tables_number   1
_chemical_formula_structural   Na4Ni7(PO4)6
_chemical_formula_sum   'Na8 Ni14 P12 O48'
_cell_volume   951.29634365
_cell_formula_units_Z   2
loop_
 _symmetry_equiv_pos_site_id
 _symmetry_equiv_pos_as_xyz
  1  'x, y, z'
loop_
 _atom_site_type_symbol
 _atom_site_label
 _atom_site_symmetry_multiplicity
 _atom_site_fract_x
 _atom_site_fract_y
 _atom_site_fract_z
 _atom_site_occupancy
  Na  Na0  1  0.07042200  0.00000000  0.52202300  1
  Na  Na1  1  0.72286100  0.00000000  0.46324900  1
  Na  Na2  1  0.38788200  0.87534100  0.46083800  1
  Na  Na3  1  0.38788200  0.12465900  0.46083800  1
  Na  Na4  1  0.57042200  0.50000000  0.52202300  1
  Na  Na5  1  0.22286100  0.50000000  0.46324900  1
  Na  Na6  1  0.88788200  0.37534100  0.46083800  1
  Na  Na7  1  0.88788200  0.62465900  0.46083800  1
  Ni  Ni8  1  0.32921050  0.31265450  0.18203300  1
  Ni  Ni9  1  0.32921050  0.68734550  0.18203300  1
  Ni  Ni10  1  0.66955550  0.30650550  0.81785500  1
  Ni  Ni11  1  0.66955550  0.69349450  0.81785500  1
  Ni  Ni12  1  0.49882000  0.12592400  0.99868900  1
  Ni  Ni13  1  0.49882000  0.87407600  0.99868900  1
  Ni  Ni14  1  0.99918400  0.00000000  0.00042300  1
  Ni  Ni15  1  0.82921050  0.81265450  0.18203300  1
  Ni  Ni16  1  0.82921050  0.18734550  0.18203300  1
  Ni  Ni17  1  0.16955550  0.80650550  0.81785500  1
  Ni  Ni18  1  0.16955550  0.19349450  0.81785500  1
  Ni  Ni19  1  0.99882000  0.62592400  0.99868900  1
  Ni  Ni20  1  0.99882000  0.37407600  0.99868900  1
  Ni  Ni21  1  0.49918400  0.50000000  0.00042300  1
  P  P22  1  0.30845500  0.00000000  0.03563300  1
  P  P23  1  0.68566200  0.00000000  0.95778500  1
  P  P24  1  0.40549800  0.31156400  0.71992300  1
  P  P25  1  0.40549800  0.68843600  0.71992300  1
  P  P26  1  0.59240850  0.30791250  0.28287500  1
  P  P27  1  0.59240850  0.69208750  0.28287500  1
  P  P28  1  0.80845500  0.50000000  0.03563300  1
  P  P29  1  0.18566200  0.50000000  0.95778500  1
  P  P30  1  0.90549800  0.81156400  0.71992300  1
  P  P31  1  0.90549800  0.18843600  0.71992300  1
  P  P32  1  0.09240850  0.80791250  0.28287500  1
  P  P33  1  0.09240850  0.19208750  0.28287500  1
  O  O34  1  0.44379100  0.00000000  0.20301600  1
  O  O35  1  0.54713800  0.00000000  0.80284700  1
  O  O36  1  0.19940700  0.00000000  0.14592900  1
  O  O37  1  0.79553400  0.00000000  0.84977100  1
  O  O38  1  0.68803650  0.08814250  0.10777000  1
  O  O39  1  0.68803650  0.91185750  0.10777000  1
  O  O40  1  0.30859750  0.08973750  0.89304100  1
  O  O41  1  0.30859750  0.91026250  0.89304100  1
  O  O42  1  0.17011500  0.83041600  0.51011300  1
  O  O43  1  0.17011500  0.16958400  0.51011300  1
  O  O44  1  0.83039650  0.83115750  0.49111600  1
  O  O45  1  0.83039650  0.16884250  0.49111600  1
  O  O46  1  0.68920000  0.29303200  0.14353400  1
  O  O47  1  0.68920000  0.70696800  0.14353400  1
  O  O48  1  0.31067250  0.29680750  0.86169000  1
  O  O49  1  0.31067250  0.70319250  0.86169000  1
  O  O50  1  0.49526900  0.39276800  0.21269400  1
  O  O51  1  0.49539800  0.77978200  0.74899700  1
  O  O52  1  0.49539800  0.22021800  0.74899700  1
  O  O53  1  0.49900450  0.78075550  0.25160900  1
  O  O54  1  0.49900450  0.21924450  0.25160900  1
  O  O55  1  0.50685850  0.60637550  0.79018600  1
  O  O56  1  0.50685850  0.39362450  0.79018600  1
  O  O57  1  0.49526900  0.60723200  0.21269400  1
  O  O58  1  0.94379100  0.50000000  0.20301600  1
  O  O59  1  0.04713800  0.50000000  0.80284700  1
  O  O60  1  0.69940700  0.50000000  0.14592900  1
  O  O61  1  0.29553400  0.50000000  0.84977100  1
  O  O62  1  0.18803650  0.58814250  0.10777000  1
  O  O63  1  0.18803650  0.41185750  0.10777000  1
  O  O64  1  0.80859750  0.58973750  0.89304100  1
  O  O65  1  0.80859750  0.41026250  0.89304100  1
  O  O66  1  0.67011500  0.33041600  0.51011300  1
  O  O67  1  0.67011500  0.66958400  0.51011300  1
  O  O68  1  0.33039650  0.33115750  0.49111600  1
  O  O69  1  0.33039650  0.66884250  0.49111600  1
  O  O70  1  0.18920000  0.79303200  0.14353400  1
  O  O71  1  0.18920000  0.20696800  0.14353400  1
  O  O72  1  0.81067250  0.79680750  0.86169000  1
  O  O73  1  0.81067250  0.20319250  0.86169000  1
  O  O74  1  0.99526900  0.89276800  0.21269400  1
  O  O75  1  0.99539800  0.27978200  0.74899700  1
  O  O76  1  0.99539800  0.72021800  0.74899700  1
  O  O77  1  0.99900450  0.28075550  0.25160900  1
  O  O78  1  0.99900450  0.71924450  0.25160900  1
  O  O79  1  0.00685850  0.10637550  0.79018600  1
  O  O80  1  0.00685850  0.89362450  0.79018600  1
  O  O81  1  0.99526900  0.10723200  0.21269400  1
