# generated using pymatgen
data_LiZnPS4
_symmetry_space_group_name_H-M   'P 1'
_cell_length_a   5.82026000
_cell_length_b   5.82026000
_cell_length_c   9.09154000
_cell_angle_alpha   90.00000000
_cell_angle_beta   90.00000000
_cell_angle_gamma   90.00000000
_symmetry_Int_Tables_number   1
_chemical_formula_structural   LiZnPS4
_chemical_formula_sum   'Li2 Zn2 P2 S8'
_cell_volume   307.97979475
_cell_formula_units_Z   2
loop_
 _symmetry_equiv_pos_site_id
 _symmetry_equiv_pos_as_xyz
  1  'x, y, z'
loop_
 _atom_site_type_symbol
 _atom_site_label
 _atom_site_symmetry_multiplicity
 _atom_site_fract_x
 _atom_site_fract_y
 _atom_site_fract_z
 _atom_site_occupancy
  Li  Li0  1  0.50000000  0.50000000  0.00000000  1
  Li  Li1  1  0.00000000  0.00000000  0.50000000  1
  Zn  Zn2  1  0.00000000  0.00000000  0.00000000  1
  Zn  Zn3  1  0.50000000  0.50000000  0.50000000  1
  P  P4  1  0.50000000  0.00000000  0.25000000  1
  P  P5  1  0.00000000  0.50000000  0.75000000  1
  S  S6  1  0.72269450  0.79125750  0.13483850  1
  S  S7  1  0.70874250  0.22269450  0.36516150  1
  S  S8  1  0.29125750  0.77730550  0.36516150  1
  S  S9  1  0.27730550  0.20874250  0.13483850  1
  S  S10  1  0.22269450  0.29125750  0.63483850  1
  S  S11  1  0.20874250  0.72269450  0.86516150  1
  S  S12  1  0.79125750  0.27730550  0.86516150  1
  S  S13  1  0.77730550  0.70874250  0.63483850  1
