# generated using pymatgen
data_LuVO4
_symmetry_space_group_name_H-M   'P 1'
_cell_length_a   7.06937800
_cell_length_b   7.06937800
_cell_length_c   6.27974400
_cell_angle_alpha   90.00000000
_cell_angle_beta   90.00000000
_cell_angle_gamma   90.00000000
_symmetry_Int_Tables_number   1
_chemical_formula_structural   LuVO4
_chemical_formula_sum   'Lu4 V4 O16'
_cell_volume   313.83714744
_cell_formula_units_Z   4
loop_
 _symmetry_equiv_pos_site_id
 _symmetry_equiv_pos_as_xyz
  1  'x, y, z'
loop_
 _atom_site_type_symbol
 _atom_site_label
 _atom_site_symmetry_multiplicity
 _atom_site_fract_x
 _atom_site_fract_y
 _atom_site_fract_z
 _atom_site_occupancy
  Lu  Lu0  1  0.50000000  0.00000000  0.25000000  1
  Lu  Lu1  1  0.50000000  0.50000000  0.50000000  1
  Lu  Lu2  1  0.00000000  0.50000000  0.75000000  1
  Lu  Lu3  1  0.00000000  0.00000000  0.00000000  1
  V  V4  1  0.00000000  0.00000000  0.50000000  1
  V  V5  1  0.50000000  0.00000000  0.75000000  1
  V  V6  1  0.50000000  0.50000000  0.00000000  1
  V  V7  1  0.00000000  0.50000000  0.25000000  1
  O  O8  1  0.50000000  0.18795900  0.57153800  1
  O  O9  1  0.81204100  0.00000000  0.32153800  1
  O  O10  1  0.18795900  0.00000000  0.32153800  1
  O  O11  1  0.00000000  0.31204100  0.07153800  1
  O  O12  1  0.68795900  0.00000000  0.92846200  1
  O  O13  1  0.00000000  0.81204100  0.67846200  1
  O  O14  1  0.00000000  0.18795900  0.67846200  1
  O  O15  1  0.81204100  0.50000000  0.42846200  1
  O  O16  1  0.00000000  0.68795900  0.07153800  1
  O  O17  1  0.31204100  0.50000000  0.82153800  1
  O  O18  1  0.68795900  0.50000000  0.82153800  1
  O  O19  1  0.50000000  0.81204100  0.57153800  1
  O  O20  1  0.18795900  0.50000000  0.42846200  1
  O  O21  1  0.50000000  0.31204100  0.17846200  1
  O  O22  1  0.50000000  0.68795900  0.17846200  1
  O  O23  1  0.31204100  0.00000000  0.92846200  1
