# generated using pymatgen
data_LiFeP2O7
_symmetry_space_group_name_H-M   'P 1'
_cell_length_a   4.90289100
_cell_length_b   8.23655200
_cell_length_c   7.03305240
_cell_angle_alpha   90.00000000
_cell_angle_beta   108.84998524
_cell_angle_gamma   90.00000000
_symmetry_Int_Tables_number   1
_chemical_formula_structural   LiFeP2O7
_chemical_formula_sum   'Li2 Fe2 P4 O14'
_cell_volume   268.78279746
_cell_formula_units_Z   2
loop_
 _symmetry_equiv_pos_site_id
 _symmetry_equiv_pos_as_xyz
  1  'x, y, z'
loop_
 _atom_site_type_symbol
 _atom_site_label
 _atom_site_symmetry_multiplicity
 _atom_site_fract_x
 _atom_site_fract_y
 _atom_site_fract_z
 _atom_site_occupancy
  Li  Li0  1  0.17699500  0.13853800  0.66584900  1
  Li  Li1  1  0.82300500  0.63853800  0.33415100  1
  Fe  Fe2  1  0.78339500  0.99796500  0.26637300  1
  Fe  Fe3  1  0.21660500  0.49796500  0.73362700  1
  P  P4  1  0.21479500  0.21318000  0.08382200  1
  P  P5  1  0.78520500  0.71318000  0.91617800  1
  P  P6  1  0.39899100  0.81733900  0.52361200  1
  P  P7  1  0.60100900  0.31733900  0.47638800  1
  O  O8  1  0.40182600  0.34534000  0.24516500  1
  O  O9  1  0.94845400  0.17040600  0.13897700  1
  O  O10  1  0.05154600  0.67040600  0.86102300  1
  O  O11  1  0.13947000  0.30195200  0.88172900  1
  O  O12  1  0.18564500  0.95922900  0.48270300  1
  O  O13  1  0.24602700  0.65295200  0.51248600  1
  O  O14  1  0.40258000  0.31864200  0.60529700  1
  O  O15  1  0.81435500  0.45922900  0.51729700  1
  O  O16  1  0.59817400  0.84534000  0.75483500  1
  O  O17  1  0.59755700  0.56429700  0.91577000  1
  O  O18  1  0.40244300  0.06429700  0.08423000  1
  O  O19  1  0.59742000  0.81864200  0.39470300  1
  O  O20  1  0.75397300  0.15295200  0.48751400  1
  O  O21  1  0.86053000  0.80195200  0.11827100  1
