# generated using pymatgen
data_Lu2O3
_symmetry_space_group_name_H-M   'P 1'
_cell_length_a   10.36475000
_cell_length_b   10.36475000
_cell_length_c   10.36475000
_cell_angle_alpha   90.00000000
_cell_angle_beta   90.00000000
_cell_angle_gamma   90.00000000
_symmetry_Int_Tables_number   1
_chemical_formula_structural   Lu2O3
_chemical_formula_sum   'Lu32 O48'
_cell_volume   1113.46480415
_cell_formula_units_Z   16
loop_
 _symmetry_equiv_pos_site_id
 _symmetry_equiv_pos_as_xyz
  1  'x, y, z'
loop_
 _atom_site_type_symbol
 _atom_site_label
 _atom_site_symmetry_multiplicity
 _atom_site_fract_x
 _atom_site_fract_y
 _atom_site_fract_z
 _atom_site_occupancy
  Lu  Lu0  1  0.00000000  0.25000000  0.46651100  1
  Lu  Lu1  1  0.03348900  0.00000000  0.75000000  1
  Lu  Lu2  1  0.75000000  0.03348900  0.00000000  1
  Lu  Lu3  1  0.46651100  0.00000000  0.25000000  1
  Lu  Lu4  1  0.25000000  0.46651100  0.00000000  1
  Lu  Lu5  1  0.00000000  0.75000000  0.03348900  1
  Lu  Lu6  1  0.50000000  0.25000000  0.03348900  1
  Lu  Lu7  1  0.46651100  0.50000000  0.75000000  1
  Lu  Lu8  1  0.75000000  0.46651100  0.50000000  1
  Lu  Lu9  1  0.03348900  0.50000000  0.25000000  1
  Lu  Lu10  1  0.25000000  0.03348900  0.50000000  1
  Lu  Lu11  1  0.50000000  0.75000000  0.46651100  1
  Lu  Lu12  1  0.75000000  0.25000000  0.25000000  1
  Lu  Lu13  1  0.25000000  0.25000000  0.75000000  1
  Lu  Lu14  1  0.25000000  0.75000000  0.25000000  1
  Lu  Lu15  1  0.25000000  0.25000000  0.25000000  1
  Lu  Lu16  1  0.50000000  0.75000000  0.96651100  1
  Lu  Lu17  1  0.53348900  0.50000000  0.25000000  1
  Lu  Lu18  1  0.25000000  0.53348900  0.50000000  1
  Lu  Lu19  1  0.96651100  0.50000000  0.75000000  1
  Lu  Lu20  1  0.75000000  0.96651100  0.50000000  1
  Lu  Lu21  1  0.50000000  0.25000000  0.53348900  1
  Lu  Lu22  1  0.00000000  0.75000000  0.53348900  1
  Lu  Lu23  1  0.96651100  0.00000000  0.25000000  1
  Lu  Lu24  1  0.25000000  0.96651100  0.00000000  1
  Lu  Lu25  1  0.53348900  0.00000000  0.75000000  1
  Lu  Lu26  1  0.75000000  0.53348900  0.00000000  1
  Lu  Lu27  1  0.00000000  0.25000000  0.96651100  1
  Lu  Lu28  1  0.25000000  0.75000000  0.75000000  1
  Lu  Lu29  1  0.75000000  0.75000000  0.25000000  1
  Lu  Lu30  1  0.75000000  0.25000000  0.75000000  1
  Lu  Lu31  1  0.75000000  0.75000000  0.75000000  1
  O  O32  1  0.15248350  0.88013250  0.60872050  1
  O  O33  1  0.34751650  0.88013250  0.39127950  1
  O  O34  1  0.15248350  0.11986750  0.89127950  1
  O  O35  1  0.11986750  0.10872050  0.34751650  1
  O  O36  1  0.10872050  0.34751650  0.11986750  1
  O  O37  1  0.60872050  0.15248350  0.88013250  1
  O  O38  1  0.88013250  0.39127950  0.34751650  1
  O  O39  1  0.89127950  0.15248350  0.11986750  1
  O  O40  1  0.88013250  0.60872050  0.15248350  1
  O  O41  1  0.39127950  0.34751650  0.88013250  1
  O  O42  1  0.11986750  0.89127950  0.15248350  1
  O  O43  1  0.34751650  0.11986750  0.10872050  1
  O  O44  1  0.34751650  0.61986750  0.89127950  1
  O  O45  1  0.15248350  0.61986750  0.10872050  1
  O  O46  1  0.34751650  0.38013250  0.60872050  1
  O  O47  1  0.38013250  0.39127950  0.15248350  1
  O  O48  1  0.15248350  0.38013250  0.39127950  1
  O  O49  1  0.38013250  0.60872050  0.34751650  1
  O  O50  1  0.10872050  0.15248350  0.61986750  1
  O  O51  1  0.61986750  0.89127950  0.34751650  1
  O  O52  1  0.60872050  0.34751650  0.38013250  1
  O  O53  1  0.61986750  0.10872050  0.15248350  1
  O  O54  1  0.89127950  0.34751650  0.61986750  1
  O  O55  1  0.39127950  0.15248350  0.38013250  1
  O  O56  1  0.65248350  0.38013250  0.10872050  1
  O  O57  1  0.84751650  0.38013250  0.89127950  1
  O  O58  1  0.65248350  0.61986750  0.39127950  1
  O  O59  1  0.61986750  0.60872050  0.84751650  1
  O  O60  1  0.60872050  0.84751650  0.61986750  1
  O  O61  1  0.10872050  0.65248350  0.38013250  1
  O  O62  1  0.38013250  0.89127950  0.84751650  1
  O  O63  1  0.39127950  0.65248350  0.61986750  1
  O  O64  1  0.38013250  0.10872050  0.65248350  1
  O  O65  1  0.89127950  0.84751650  0.38013250  1
  O  O66  1  0.61986750  0.39127950  0.65248350  1
  O  O67  1  0.84751650  0.61986750  0.60872050  1
  O  O68  1  0.84751650  0.11986750  0.39127950  1
  O  O69  1  0.65248350  0.11986750  0.60872050  1
  O  O70  1  0.84751650  0.88013250  0.10872050  1
  O  O71  1  0.88013250  0.89127950  0.65248350  1
  O  O72  1  0.65248350  0.88013250  0.89127950  1
  O  O73  1  0.88013250  0.10872050  0.84751650  1
  O  O74  1  0.60872050  0.65248350  0.11986750  1
  O  O75  1  0.11986750  0.39127950  0.84751650  1
  O  O76  1  0.10872050  0.84751650  0.88013250  1
  O  O77  1  0.11986750  0.60872050  0.65248350  1
  O  O78  1  0.39127950  0.84751650  0.11986750  1
  O  O79  1  0.89127950  0.65248350  0.88013250  1
