# generated using pymatgen
data_NaEr(PO3)4
_symmetry_space_group_name_H-M   'P 1'
_cell_length_a   7.25063700
_cell_length_b   13.20063300
_cell_length_c   12.11043404
_cell_angle_alpha   90.00000000
_cell_angle_beta   126.25860978
_cell_angle_gamma   90.00000000
_symmetry_Int_Tables_number   1
_chemical_formula_structural   NaEr(PO3)4
_chemical_formula_sum   'Na4 Er4 P16 O48'
_cell_volume   934.66786272
_cell_formula_units_Z   4
loop_
 _symmetry_equiv_pos_site_id
 _symmetry_equiv_pos_as_xyz
  1  'x, y, z'
loop_
 _atom_site_type_symbol
 _atom_site_label
 _atom_site_symmetry_multiplicity
 _atom_site_fract_x
 _atom_site_fract_y
 _atom_site_fract_z
 _atom_site_occupancy
  Na  Na0  1  0.56090700  0.77645800  0.06050100  1
  Na  Na1  1  0.56090700  0.72354200  0.56050100  1
  Na  Na2  1  0.43909300  0.22354200  0.93949900  1
  Na  Na3  1  0.43909300  0.27645800  0.43949900  1
  Er  Er4  1  0.03322100  0.27786700  0.52168500  1
  Er  Er5  1  0.96677900  0.77786700  0.97831500  1
  Er  Er6  1  0.96677900  0.72213300  0.47831500  1
  Er  Er7  1  0.03322100  0.22213300  0.02168500  1
  P  P8  1  0.39109900  0.88498600  0.76445800  1
  P  P9  1  0.49529300  0.60398500  0.74475700  1
  P  P10  1  0.49529300  0.89601500  0.24475700  1
  P  P11  1  0.50470700  0.39601500  0.25524300  1
  P  P12  1  0.60890100  0.38498600  0.73554200  1
  P  P13  1  0.50470700  0.10398500  0.75524300  1
  P  P14  1  0.39109900  0.61501400  0.26445800  1
  P  P15  1  0.60890100  0.11501400  0.23554200  1
  P  P16  1  0.84547700  0.37282100  0.19881400  1
  P  P17  1  0.94033900  0.90668300  0.70706800  1
  P  P18  1  0.94033900  0.59331700  0.20706800  1
  P  P19  1  0.05966100  0.09331700  0.29293200  1
  P  P20  1  0.15452300  0.87282100  0.30118600  1
  P  P21  1  0.15452300  0.62717900  0.80118600  1
  P  P22  1  0.84547700  0.12717900  0.69881400  1
  P  P23  1  0.05966100  0.40668300  0.79293200  1
  O  O24  1  0.39549100  0.34934500  0.60322200  1
  O  O25  1  0.60450900  0.84934500  0.89677800  1
  O  O26  1  0.60450900  0.65065500  0.39677800  1
  O  O27  1  0.39549100  0.15065500  0.10322200  1
  O  O28  1  0.14882400  0.33629000  0.91182500  1
  O  O29  1  0.85117600  0.83629000  0.58817500  1
  O  O30  1  0.85117600  0.66371000  0.08817500  1
  O  O31  1  0.14882400  0.16371000  0.41182500  1
  O  O32  1  0.29171000  0.16637100  0.69854100  1
  O  O33  1  0.70829000  0.66637100  0.80145900  1
  O  O34  1  0.70829000  0.83362900  0.30145900  1
  O  O35  1  0.29171000  0.33362900  0.19854100  1
  O  O36  1  0.69107300  0.11497700  0.90611600  1
  O  O37  1  0.30892700  0.61497700  0.59388400  1
  O  O38  1  0.30892700  0.88502300  0.09388400  1
  O  O39  1  0.69107300  0.38502300  0.40611600  1
  O  O40  1  0.12169500  0.38526900  0.69686200  1
  O  O41  1  0.83297200  0.20735300  0.60675300  1
  O  O42  1  0.87830500  0.88526900  0.80313800  1
  O  O43  1  0.12169500  0.11473100  0.19686200  1
  O  O44  1  0.02089800  0.13420100  0.85082800  1
  O  O45  1  0.97910200  0.63420100  0.64917200  1
  O  O46  1  0.97910200  0.86579900  0.14917200  1
  O  O47  1  0.02089800  0.36579900  0.35082800  1
  O  O48  1  0.85746000  0.48106100  0.14203000  1
  O  O49  1  0.14254000  0.98106100  0.35797000  1
  O  O50  1  0.14254000  0.51893900  0.85797000  1
  O  O51  1  0.85746000  0.01893900  0.64203000  1
  O  O52  1  0.56945600  0.01200500  0.28792700  1
  O  O53  1  0.43054400  0.51200500  0.21207300  1
  O  O54  1  0.43054400  0.98799500  0.71207300  1
  O  O55  1  0.56945600  0.48799500  0.78792700  1
  O  O56  1  0.59240800  0.37396300  0.16284600  1
  O  O57  1  0.40759200  0.87396300  0.33715400  1
  O  O58  1  0.40759200  0.62603700  0.83715400  1
  O  O59  1  0.59240800  0.12603700  0.66284600  1
  O  O60  1  0.78425200  0.08183500  0.20113700  1
  O  O61  1  0.21574800  0.58183500  0.29886300  1
  O  O62  1  0.21574800  0.91816500  0.79886300  1
  O  O63  1  0.78425200  0.41816500  0.70113700  1
  O  O64  1  0.72372500  0.18589300  0.35494100  1
  O  O65  1  0.27627500  0.68589300  0.14505900  1
  O  O66  1  0.27627500  0.81410700  0.64505900  1
  O  O67  1  0.72372500  0.31410700  0.85494100  1
  O  O68  1  0.83297200  0.29264700  0.10675300  1
  O  O69  1  0.16702800  0.79264700  0.39324700  1
  O  O70  1  0.16702800  0.70735300  0.89324700  1
  O  O71  1  0.87830500  0.61473100  0.30313800  1
