# generated using pymatgen
data_BaNd2ZnS5
_symmetry_space_group_name_H-M   'P 1'
_cell_length_a   7.91503000
_cell_length_b   7.91503000
_cell_length_c   13.72029400
_cell_angle_alpha   90.00000000
_cell_angle_beta   90.00000000
_cell_angle_gamma   90.00000000
_symmetry_Int_Tables_number   1
_chemical_formula_structural   BaNd2ZnS5
_chemical_formula_sum   'Ba4 Nd8 Zn4 S20'
_cell_volume   859.54486106
_cell_formula_units_Z   4
loop_
 _symmetry_equiv_pos_site_id
 _symmetry_equiv_pos_as_xyz
  1  'x, y, z'
loop_
 _atom_site_type_symbol
 _atom_site_label
 _atom_site_symmetry_multiplicity
 _atom_site_fract_x
 _atom_site_fract_y
 _atom_site_fract_z
 _atom_site_occupancy
  Ba  Ba0  1  0.50000000  0.50000000  0.25000000  1
  Ba  Ba1  1  0.00000000  0.00000000  0.25000000  1
  Ba  Ba2  1  0.00000000  0.00000000  0.75000000  1
  Ba  Ba3  1  0.50000000  0.50000000  0.75000000  1
  Nd  Nd4  1  0.66208300  0.83791700  0.00000000  1
  Nd  Nd5  1  0.16208300  0.66208300  0.00000000  1
  Nd  Nd6  1  0.83791700  0.33791700  0.00000000  1
  Nd  Nd7  1  0.33791700  0.16208300  0.00000000  1
  Nd  Nd8  1  0.16208300  0.33791700  0.50000000  1
  Nd  Nd9  1  0.66208300  0.16208300  0.50000000  1
  Nd  Nd10  1  0.33791700  0.83791700  0.50000000  1
  Nd  Nd11  1  0.83791700  0.66208300  0.50000000  1
  Zn  Zn12  1  0.50000000  0.00000000  0.25000000  1
  Zn  Zn13  1  0.00000000  0.50000000  0.25000000  1
  Zn  Zn14  1  0.00000000  0.50000000  0.75000000  1
  Zn  Zn15  1  0.50000000  0.00000000  0.75000000  1
  S  S16  1  0.35133950  0.85133950  0.13334750  1
  S  S17  1  0.85133950  0.35133950  0.36665250  1
  S  S18  1  0.14866050  0.64866050  0.36665250  1
  S  S19  1  0.35133950  0.14866050  0.36665250  1
  S  S20  1  0.64866050  0.85133950  0.36665250  1
  S  S21  1  0.14866050  0.35133950  0.13334750  1
  S  S22  1  0.85133950  0.64866050  0.13334750  1
  S  S23  1  0.64866050  0.14866050  0.13334750  1
  S  S24  1  0.00000000  0.00000000  0.00000000  1
  S  S25  1  0.50000000  0.50000000  0.00000000  1
  S  S26  1  0.85133950  0.35133950  0.63334750  1
  S  S27  1  0.35133950  0.85133950  0.86665250  1
  S  S28  1  0.64866050  0.14866050  0.86665250  1
  S  S29  1  0.85133950  0.64866050  0.86665250  1
  S  S30  1  0.14866050  0.35133950  0.86665250  1
  S  S31  1  0.64866050  0.85133950  0.63334750  1
  S  S32  1  0.35133950  0.14866050  0.63334750  1
  S  S33  1  0.14866050  0.64866050  0.63334750  1
  S  S34  1  0.50000000  0.50000000  0.50000000  1
  S  S35  1  0.00000000  0.00000000  0.50000000  1
