# generated using pymatgen
data_Zr3Tl2OF12
_symmetry_space_group_name_H-M   'P 1'
_cell_length_a   7.86489204
_cell_length_b   7.86489204
_cell_length_c   30.49693603
_cell_angle_alpha   90.00000000
_cell_angle_beta   90.00000000
_cell_angle_gamma   120.00000000
_symmetry_Int_Tables_number   1
_chemical_formula_structural   Zr3Tl2OF12
_chemical_formula_sum   'Zr18 Tl12 O6 F72'
_cell_volume   1633.70023413
_cell_formula_units_Z   6
loop_
 _symmetry_equiv_pos_site_id
 _symmetry_equiv_pos_as_xyz
  1  'x, y, z'
loop_
 _atom_site_type_symbol
 _atom_site_label
 _atom_site_symmetry_multiplicity
 _atom_site_fract_x
 _atom_site_fract_y
 _atom_site_fract_z
 _atom_site_occupancy
  Zr  Zr0  1  0.96897267  0.48448633  0.06015033  1
  Zr  Zr1  1  0.51551367  0.03102733  0.06015033  1
  Zr  Zr2  1  0.51551367  0.48448633  0.06015033  1
  Zr  Zr3  1  0.15115300  0.84884700  0.27318300  1
  Zr  Zr4  1  0.69769400  0.84884700  0.27318300  1
  Zr  Zr5  1  0.15115300  0.30230600  0.27318300  1
  Zr  Zr6  1  0.63563933  0.81781967  0.39348367  1
  Zr  Zr7  1  0.18218033  0.36436067  0.39348367  1
  Zr  Zr8  1  0.18218033  0.81781967  0.39348367  1
  Zr  Zr9  1  0.81781967  0.18218033  0.60651633  1
  Zr  Zr10  1  0.36436067  0.18218033  0.60651633  1
  Zr  Zr11  1  0.81781967  0.63563933  0.60651633  1
  Zr  Zr12  1  0.30230600  0.15115300  0.72681700  1
  Zr  Zr13  1  0.84884700  0.69769400  0.72681700  1
  Zr  Zr14  1  0.84884700  0.15115300  0.72681700  1
  Zr  Zr15  1  0.48448633  0.51551367  0.93984967  1
  Zr  Zr16  1  0.03102733  0.51551367  0.93984967  1
  Zr  Zr17  1  0.48448633  0.96897267  0.93984967  1
  Tl  Tl18  1  0.00000000  0.00000000  0.14003700  1
  Tl  Tl19  1  0.66666667  0.33333333  0.19329633  1
  Tl  Tl20  1  0.33333333  0.66666667  0.16666667  1
  Tl  Tl21  1  0.00000000  0.00000000  0.00000000  1
  Tl  Tl22  1  0.66666667  0.33333333  0.47337033  1
  Tl  Tl23  1  0.33333333  0.66666667  0.52662967  1
  Tl  Tl24  1  1.00000000  1.00000000  0.50000000  1
  Tl  Tl25  1  0.66666667  0.33333333  0.33333333  1
  Tl  Tl26  1  0.33333333  0.66666667  0.80670367  1
  Tl  Tl27  1  0.00000000  0.00000000  0.85996300  1
  Tl  Tl28  1  0.66666667  0.33333333  0.83333333  1
  Tl  Tl29  1  0.33333333  0.66666667  0.66666667  1
  O  O30  1  0.00000000  0.00000000  0.28685100  1
  O  O31  1  0.66666667  0.33333333  0.04648233  1
  O  O32  1  0.66666667  0.33333333  0.62018433  1
  O  O33  1  0.33333333  0.66666667  0.37981567  1
  O  O34  1  0.33333333  0.66666667  0.95351767  1
  O  O35  1  0.00000000  0.00000000  0.71314900  1
  F  F36  1  0.55693867  0.77846933  0.07131533  1
  F  F37  1  0.22153067  0.44306133  0.07131533  1
  F  F38  1  0.22153067  0.77846933  0.07131533  1
  F  F39  1  0.44513600  0.55486400  0.26201800  1
  F  F40  1  0.10972800  0.55486400  0.26201800  1
  F  F41  1  0.44513600  0.89027200  0.26201800  1
  F  F42  1  0.33689600  0.16844800  0.25893400  1
  F  F43  1  0.83155200  0.66310400  0.25893400  1
  F  F44  1  0.00000000  0.64736800  0.00000000  1
  F  F45  1  0.35263200  0.35263200  0.00000000  1
  F  F46  1  0.64736800  0.00000000  0.00000000  1
  F  F47  1  0.00000000  0.35263200  0.00000000  1
  F  F48  1  0.64736800  0.64736800  0.00000000  1
  F  F49  1  0.35263200  0.00000000  0.00000000  1
  F  F50  1  0.52176000  0.04352000  0.12658100  1
  F  F51  1  0.95648000  0.47824000  0.12658100  1
  F  F52  1  0.52176000  0.47824000  0.12658100  1
  F  F53  1  0.14490667  0.85509333  0.20675233  1
  F  F54  1  0.14490667  0.28981333  0.20675233  1
  F  F55  1  0.71018667  0.85509333  0.20675233  1
  F  F56  1  0.83511467  0.67022933  0.07439933  1
  F  F57  1  0.32977067  0.16488533  0.07439933  1
  F  F58  1  0.83511467  0.16488533  0.07439933  1
  F  F59  1  0.83155200  0.16844800  0.25893400  1
  F  F60  1  0.22360533  0.11180267  0.40464867  1
  F  F61  1  0.88819733  0.77639467  0.40464867  1
  F  F62  1  0.88819733  0.11180267  0.40464867  1
  F  F63  1  0.11180267  0.88819733  0.59535133  1
  F  F64  1  0.77639467  0.88819733  0.59535133  1
  F  F65  1  0.11180267  0.22360533  0.59535133  1
  F  F66  1  0.00356267  0.50178133  0.59226733  1
  F  F67  1  0.49821867  0.99643733  0.59226733  1
  F  F68  1  0.66666667  0.98070133  0.33333333  1
  F  F69  1  0.01929867  0.68596533  0.33333333  1
  F  F70  1  0.31403467  0.33333333  0.33333333  1
  F  F71  1  0.66666667  0.68596533  0.33333333  1
  F  F72  1  0.31403467  0.98070133  0.33333333  1
  F  F73  1  0.01929867  0.33333333  0.33333333  1
  F  F74  1  0.18842667  0.37685333  0.45991433  1
  F  F75  1  0.62314667  0.81157333  0.45991433  1
  F  F76  1  0.18842667  0.81157333  0.45991433  1
  F  F77  1  0.81157333  0.18842667  0.54008567  1
  F  F78  1  0.81157333  0.62314667  0.54008567  1
  F  F79  1  0.37685333  0.18842667  0.54008567  1
  F  F80  1  0.50178133  0.00356267  0.40773267  1
  F  F81  1  0.99643733  0.49821867  0.40773267  1
  F  F82  1  0.50178133  0.49821867  0.40773267  1
  F  F83  1  0.49821867  0.50178133  0.59226733  1
  F  F84  1  0.89027200  0.44513600  0.73798200  1
  F  F85  1  0.55486400  0.10972800  0.73798200  1
  F  F86  1  0.55486400  0.44513600  0.73798200  1
  F  F87  1  0.77846933  0.22153067  0.92868467  1
  F  F88  1  0.44306133  0.22153067  0.92868467  1
  F  F89  1  0.77846933  0.55693867  0.92868467  1
  F  F90  1  0.67022933  0.83511467  0.92560067  1
  F  F91  1  0.16488533  0.32977067  0.92560067  1
  F  F92  1  0.33333333  0.31403467  0.66666667  1
  F  F93  1  0.68596533  0.01929867  0.66666667  1
  F  F94  1  0.98070133  0.66666667  0.66666667  1
  F  F95  1  0.33333333  0.01929867  0.66666667  1
  F  F96  1  0.98070133  0.31403467  0.66666667  1
  F  F97  1  0.68596533  0.66666667  0.66666667  1
  F  F98  1  0.85509333  0.71018667  0.79324767  1
  F  F99  1  0.28981333  0.14490667  0.79324767  1
  F  F100  1  0.85509333  0.14490667  0.79324767  1
  F  F101  1  0.47824000  0.52176000  0.87341900  1
  F  F102  1  0.47824000  0.95648000  0.87341900  1
  F  F103  1  0.04352000  0.52176000  0.87341900  1
  F  F104  1  0.16844800  0.33689600  0.74106600  1
  F  F105  1  0.66310400  0.83155200  0.74106600  1
  F  F106  1  0.16844800  0.83155200  0.74106600  1
  F  F107  1  0.16488533  0.83511467  0.92560067  1
