# generated using pymatgen
data_La3NbO7
_symmetry_space_group_name_H-M   'P 1'
_cell_length_a   7.63946800
_cell_length_b   11.20688400
_cell_length_c   7.85493700
_cell_angle_alpha   90.00000000
_cell_angle_beta   90.00000000
_cell_angle_gamma   90.00000000
_symmetry_Int_Tables_number   1
_chemical_formula_structural   La3NbO7
_chemical_formula_sum   'La12 Nb4 O28'
_cell_volume   672.49753826
_cell_formula_units_Z   4
loop_
 _symmetry_equiv_pos_site_id
 _symmetry_equiv_pos_as_xyz
  1  'x, y, z'
loop_
 _atom_site_type_symbol
 _atom_site_label
 _atom_site_symmetry_multiplicity
 _atom_site_fract_x
 _atom_site_fract_y
 _atom_site_fract_z
 _atom_site_occupancy
  La  La0  1  0.70491200  0.22707300  0.75000000  1
  La  La1  1  0.29508800  0.77292700  0.25000000  1
  La  La2  1  0.00000000  0.00000000  0.50000000  1
  La  La3  1  0.00000000  0.00000000  0.00000000  1
  La  La4  1  0.29508800  0.22707300  0.25000000  1
  La  La5  1  0.70491200  0.77292700  0.75000000  1
  La  La6  1  0.20491200  0.72707300  0.75000000  1
  La  La7  1  0.79508800  0.27292700  0.25000000  1
  La  La8  1  0.50000000  0.50000000  0.50000000  1
  La  La9  1  0.50000000  0.50000000  0.00000000  1
  La  La10  1  0.79508800  0.72707300  0.25000000  1
  La  La11  1  0.20491200  0.27292700  0.75000000  1
  Nb  Nb12  1  0.50000000  0.00000000  0.00000000  1
  Nb  Nb13  1  0.50000000  0.00000000  0.50000000  1
  Nb  Nb14  1  0.00000000  0.50000000  0.00000000  1
  Nb  Nb15  1  0.00000000  0.50000000  0.50000000  1
  O  O16  1  0.56327600  0.00000000  0.75000000  1
  O  O17  1  0.43672400  0.00000000  0.25000000  1
  O  O18  1  0.47701550  0.36960950  0.75000000  1
  O  O19  1  0.52298450  0.63039050  0.25000000  1
  O  O20  1  0.47701550  0.63039050  0.75000000  1
  O  O21  1  0.52298450  0.36960950  0.25000000  1
  O  O22  1  0.31248850  0.12548650  0.96788800  1
  O  O23  1  0.68751150  0.87451350  0.46788800  1
  O  O24  1  0.31248850  0.87451350  0.96788800  1
  O  O25  1  0.68751150  0.12548650  0.46788800  1
  O  O26  1  0.31248850  0.12548650  0.53211200  1
  O  O27  1  0.68751150  0.87451350  0.03211200  1
  O  O28  1  0.68751150  0.12548650  0.03211200  1
  O  O29  1  0.31248850  0.87451350  0.53211200  1
  O  O30  1  0.06327600  0.50000000  0.75000000  1
  O  O31  1  0.93672400  0.50000000  0.25000000  1
  O  O32  1  0.97701550  0.86960950  0.75000000  1
  O  O33  1  0.02298450  0.13039050  0.25000000  1
  O  O34  1  0.97701550  0.13039050  0.75000000  1
  O  O35  1  0.02298450  0.86960950  0.25000000  1
  O  O36  1  0.81248850  0.62548650  0.96788800  1
  O  O37  1  0.18751150  0.37451350  0.46788800  1
  O  O38  1  0.81248850  0.37451350  0.96788800  1
  O  O39  1  0.18751150  0.62548650  0.46788800  1
  O  O40  1  0.81248850  0.62548650  0.53211200  1
  O  O41  1  0.18751150  0.37451350  0.03211200  1
  O  O42  1  0.18751150  0.62548650  0.03211200  1
  O  O43  1  0.81248850  0.37451350  0.53211200  1
