# generated using pymatgen
data_LiCaAl3N4
_symmetry_space_group_name_H-M   'P 1'
_cell_length_a   11.23912800
_cell_length_b   11.23912800
_cell_length_c   12.93712000
_cell_angle_alpha   90.00000000
_cell_angle_beta   90.00000000
_cell_angle_gamma   90.00000000
_symmetry_Int_Tables_number   1
_chemical_formula_structural   LiCaAl3N4
_chemical_formula_sum   'Li16 Ca16 Al48 N64'
_cell_volume   1634.19110088
_cell_formula_units_Z   16
loop_
 _symmetry_equiv_pos_site_id
 _symmetry_equiv_pos_as_xyz
  1  'x, y, z'
loop_
 _atom_site_type_symbol
 _atom_site_label
 _atom_site_symmetry_multiplicity
 _atom_site_fract_x
 _atom_site_fract_y
 _atom_site_fract_z
 _atom_site_occupancy
  Li  Li0  1  0.48484600  0.85444400  0.44099800  1
  Li  Li1  1  0.51515400  0.14555600  0.44099800  1
  Li  Li2  1  0.14555600  0.98484600  0.69099800  1
  Li  Li3  1  0.35444400  0.51515400  0.19099800  1
  Li  Li4  1  0.01515400  0.14555600  0.30900200  1
  Li  Li5  1  0.48484600  0.35444400  0.80900200  1
  Li  Li6  1  0.35444400  0.01515400  0.05900200  1
  Li  Li7  1  0.64555600  0.98484600  0.05900200  1
  Li  Li8  1  0.98484600  0.35444400  0.94099800  1
  Li  Li9  1  0.01515400  0.64555600  0.94099800  1
  Li  Li10  1  0.64555600  0.48484600  0.19099800  1
  Li  Li11  1  0.85444400  0.01515400  0.69099800  1
  Li  Li12  1  0.51515400  0.64555600  0.80900200  1
  Li  Li13  1  0.98484600  0.85444400  0.30900200  1
  Li  Li14  1  0.85444400  0.51515400  0.55900200  1
  Li  Li15  1  0.14555600  0.48484600  0.55900200  1
  Ca  Ca16  1  0.25489750  0.76713850  0.56086550  1
  Ca  Ca17  1  0.24510250  0.73286150  0.06086550  1
  Ca  Ca18  1  0.23286150  0.75489750  0.81086550  1
  Ca  Ca19  1  0.26713850  0.74510250  0.31086550  1
  Ca  Ca20  1  0.24510250  0.23286150  0.18913450  1
  Ca  Ca21  1  0.25489750  0.26713850  0.68913450  1
  Ca  Ca22  1  0.26713850  0.24510250  0.93913450  1
  Ca  Ca23  1  0.23286150  0.25489750  0.43913450  1
  Ca  Ca24  1  0.75489750  0.26713850  0.06086550  1
  Ca  Ca25  1  0.74510250  0.23286150  0.56086550  1
  Ca  Ca26  1  0.73286150  0.25489750  0.31086550  1
  Ca  Ca27  1  0.76713850  0.24510250  0.81086550  1
  Ca  Ca28  1  0.74510250  0.73286150  0.68913450  1
  Ca  Ca29  1  0.75489750  0.76713850  0.18913450  1
  Ca  Ca30  1  0.76713850  0.74510250  0.43913450  1
  Ca  Ca31  1  0.73286150  0.75489750  0.93913450  1
  Al  Al32  1  0.32987550  0.53355250  0.68359750  1
  Al  Al33  1  0.17012450  0.96644750  0.18359750  1
  Al  Al34  1  0.96644750  0.32987550  0.43359750  1
  Al  Al35  1  0.53355250  0.17012450  0.93359750  1
  Al  Al36  1  0.17012450  0.46644750  0.06640250  1
  Al  Al37  1  0.32987550  0.03355250  0.56640250  1
  Al  Al38  1  0.03355250  0.17012450  0.81640250  1
  Al  Al39  1  0.46644750  0.32987550  0.31640250  1
  Al  Al40  1  0.34001450  0.52098950  0.93426450  1
  Al  Al41  1  0.15998550  0.97901050  0.43426450  1
  Al  Al42  1  0.47901050  0.84001450  0.18426450  1
  Al  Al43  1  0.52098950  0.15998550  0.18426450  1
  Al  Al44  1  0.65998550  0.97901050  0.31573550  1
  Al  Al45  1  0.34001450  0.02098950  0.31573550  1
  Al  Al46  1  0.02098950  0.15998550  0.56573550  1
  Al  Al47  1  0.47901050  0.34001450  0.06573550  1
  Al  Al48  1  0.33572500  0.52215100  0.44122500  1
  Al  Al49  1  0.66427500  0.47784900  0.44122500  1
  Al  Al50  1  0.97784900  0.33572500  0.19122500  1
  Al  Al51  1  0.02215100  0.66427500  0.19122500  1
  Al  Al52  1  0.16427500  0.47784900  0.30877500  1
  Al  Al53  1  0.83572500  0.52215100  0.30877500  1
  Al  Al54  1  0.02215100  0.16427500  0.05877500  1
  Al  Al55  1  0.97784900  0.83572500  0.05877500  1
  Al  Al56  1  0.82987550  0.03355250  0.18359750  1
  Al  Al57  1  0.67012450  0.46644750  0.68359750  1
  Al  Al58  1  0.46644750  0.82987550  0.93359750  1
  Al  Al59  1  0.03355250  0.67012450  0.43359750  1
  Al  Al60  1  0.67012450  0.96644750  0.56640250  1
  Al  Al61  1  0.82987550  0.53355250  0.06640250  1
  Al  Al62  1  0.53355250  0.67012450  0.31640250  1
  Al  Al63  1  0.96644750  0.82987550  0.81640250  1
  Al  Al64  1  0.84001450  0.02098950  0.43426450  1
  Al  Al65  1  0.65998550  0.47901050  0.93426450  1
  Al  Al66  1  0.97901050  0.34001450  0.68426450  1
  Al  Al67  1  0.02098950  0.65998550  0.68426450  1
  Al  Al68  1  0.15998550  0.47901050  0.81573550  1
  Al  Al69  1  0.84001450  0.52098950  0.81573550  1
  Al  Al70  1  0.52098950  0.65998550  0.06573550  1
  Al  Al71  1  0.97901050  0.84001450  0.56573550  1
  Al  Al72  1  0.83572500  0.02215100  0.94122500  1
  Al  Al73  1  0.16427500  0.97784900  0.94122500  1
  Al  Al74  1  0.47784900  0.83572500  0.69122500  1
  Al  Al75  1  0.52215100  0.16427500  0.69122500  1
  Al  Al76  1  0.66427500  0.97784900  0.80877500  1
  Al  Al77  1  0.33572500  0.02215100  0.80877500  1
  Al  Al78  1  0.52215100  0.66427500  0.55877500  1
  Al  Al79  1  0.47784900  0.33572500  0.55877500  1
  N  N80  1  0.32966150  0.93991150  0.44366750  1
  N  N81  1  0.17033850  0.56008850  0.94366750  1
  N  N82  1  0.56008850  0.32966150  0.19366750  1
  N  N83  1  0.93991150  0.17033850  0.69366750  1
  N  N84  1  0.17033850  0.06008850  0.30633250  1
  N  N85  1  0.32966150  0.43991150  0.80633250  1
  N  N86  1  0.43991150  0.17033850  0.05633250  1
  N  N87  1  0.06008850  0.32966150  0.55633250  1
  N  N88  1  0.43473500  0.65700400  0.43399200  1
  N  N89  1  0.56526500  0.34299600  0.43399200  1
  N  N90  1  0.84299600  0.43473500  0.18399200  1
  N  N91  1  0.15700400  0.56526500  0.18399200  1
  N  N92  1  0.06526500  0.34299600  0.31600800  1
  N  N93  1  0.93473500  0.65700400  0.31600800  1
  N  N94  1  0.15700400  0.06526500  0.06600800  1
  N  N95  1  0.84299600  0.93473500  0.06600800  1
  N  N96  1  0.91564250  0.17576050  0.17409350  1
  N  N97  1  0.08435750  0.82423950  0.17409350  1
  N  N98  1  0.82423950  0.41564250  0.42409350  1
  N  N99  1  0.67576050  0.08435750  0.92409350  1
  N  N100  1  0.08435750  0.32423950  0.07590650  1
  N  N101  1  0.41564250  0.17576050  0.57590650  1
  N  N102  1  0.67576050  0.58435750  0.32590650  1
  N  N103  1  0.32423950  0.41564250  0.32590650  1
  N  N104  1  0.92092250  0.16342550  0.44734250  1
  N  N105  1  0.57907750  0.33657450  0.94734250  1
  N  N106  1  0.33657450  0.92092250  0.19734250  1
  N  N107  1  0.66342550  0.07907750  0.19734250  1
  N  N108  1  0.57907750  0.83657450  0.30265750  1
  N  N109  1  0.42092250  0.16342550  0.30265750  1
  N  N110  1  0.16342550  0.07907750  0.55265750  1
  N  N111  1  0.33657450  0.42092250  0.05265750  1
  N  N112  1  0.82966150  0.43991150  0.94366750  1
  N  N113  1  0.67033850  0.06008850  0.44366750  1
  N  N114  1  0.06008850  0.82966150  0.69366750  1
  N  N115  1  0.43991150  0.67033850  0.19366750  1
  N  N116  1  0.67033850  0.56008850  0.80633250  1
  N  N117  1  0.82966150  0.93991150  0.30633250  1
  N  N118  1  0.93991150  0.67033850  0.55633250  1
  N  N119  1  0.56008850  0.82966150  0.05633250  1
  N  N120  1  0.93473500  0.15700400  0.93399200  1
  N  N121  1  0.06526500  0.84299600  0.93399200  1
  N  N122  1  0.34299600  0.93473500  0.68399200  1
  N  N123  1  0.65700400  0.06526500  0.68399200  1
  N  N124  1  0.56526500  0.84299600  0.81600800  1
  N  N125  1  0.43473500  0.15700400  0.81600800  1
  N  N126  1  0.65700400  0.56526500  0.56600800  1
  N  N127  1  0.34299600  0.43473500  0.56600800  1
  N  N128  1  0.41564250  0.67576050  0.67409350  1
  N  N129  1  0.58435750  0.32423950  0.67409350  1
  N  N130  1  0.32423950  0.91564250  0.92409350  1
  N  N131  1  0.17576050  0.58435750  0.42409350  1
  N  N132  1  0.58435750  0.82423950  0.57590650  1
  N  N133  1  0.91564250  0.67576050  0.07590650  1
  N  N134  1  0.17576050  0.08435750  0.82590650  1
  N  N135  1  0.82423950  0.91564250  0.82590650  1
  N  N136  1  0.42092250  0.66342550  0.94734250  1
  N  N137  1  0.07907750  0.83657450  0.44734250  1
  N  N138  1  0.83657450  0.42092250  0.69734250  1
  N  N139  1  0.16342550  0.57907750  0.69734250  1
  N  N140  1  0.07907750  0.33657450  0.80265750  1
  N  N141  1  0.92092250  0.66342550  0.80265750  1
  N  N142  1  0.66342550  0.57907750  0.05265750  1
  N  N143  1  0.83657450  0.92092250  0.55265750  1
