# generated using pymatgen
data_BaC2(SN)2
_symmetry_space_group_name_H-M   'P 1'
_cell_length_a   10.77389400
_cell_length_b   6.81794400
_cell_length_c   8.74295010
_cell_angle_alpha   90.00000000
_cell_angle_beta   92.00696027
_cell_angle_gamma   90.00000000
_symmetry_Int_Tables_number   1
_chemical_formula_structural   BaC2(SN)2
_chemical_formula_sum   'Ba4 C8 S8 N8'
_cell_volume   641.82649518
_cell_formula_units_Z   4
loop_
 _symmetry_equiv_pos_site_id
 _symmetry_equiv_pos_as_xyz
  1  'x, y, z'
loop_
 _atom_site_type_symbol
 _atom_site_label
 _atom_site_symmetry_multiplicity
 _atom_site_fract_x
 _atom_site_fract_y
 _atom_site_fract_z
 _atom_site_occupancy
  Ba  Ba0  1  0.50000000  0.60127300  0.25000000  1
  Ba  Ba1  1  0.50000000  0.39872700  0.75000000  1
  Ba  Ba2  1  0.00000000  0.10127300  0.25000000  1
  Ba  Ba3  1  0.00000000  0.89872700  0.75000000  1
  C  C4  1  0.62203750  0.85846250  0.60502900  1
  C  C5  1  0.62203750  0.14153750  0.10502900  1
  C  C6  1  0.37796250  0.14153750  0.39497100  1
  C  C7  1  0.37796250  0.85846250  0.89497100  1
  C  C8  1  0.12203750  0.35846250  0.60502900  1
  C  C9  1  0.12203750  0.64153750  0.10502900  1
  C  C10  1  0.87796250  0.64153750  0.39497100  1
  C  C11  1  0.87796250  0.35846250  0.89497100  1
  S  S12  1  0.29826750  0.95629950  0.32757700  1
  S  S13  1  0.70173250  0.95629950  0.17242300  1
  S  S14  1  0.70173250  0.04370050  0.67242300  1
  S  S15  1  0.29826750  0.04370050  0.82757700  1
  S  S16  1  0.79826750  0.45629950  0.32757700  1
  S  S17  1  0.20173250  0.45629950  0.17242300  1
  S  S18  1  0.20173250  0.54370050  0.67242300  1
  S  S19  1  0.79826750  0.54370050  0.82757700  1
  N  N20  1  0.56439100  0.72131300  0.55682200  1
  N  N21  1  0.56439100  0.27868700  0.05682200  1
  N  N22  1  0.43560900  0.72131300  0.94317800  1
  N  N23  1  0.43560900  0.27868700  0.44317800  1
  N  N24  1  0.06439100  0.22131300  0.55682200  1
  N  N25  1  0.06439100  0.77868700  0.05682200  1
  N  N26  1  0.93560900  0.22131300  0.94317800  1
  N  N27  1  0.93560900  0.77868700  0.44317800  1
