# generated using pymatgen
data_Li6CoO4
_symmetry_space_group_name_H-M   'P 1'
_cell_length_a   6.59381500
_cell_length_b   6.59381500
_cell_length_c   4.69809800
_cell_angle_alpha   90.00000000
_cell_angle_beta   90.00000000
_cell_angle_gamma   90.00000000
_symmetry_Int_Tables_number   1
_chemical_formula_structural   Li6CoO4
_chemical_formula_sum   'Li12 Co2 O8'
_cell_volume   204.26576649
_cell_formula_units_Z   2
loop_
 _symmetry_equiv_pos_site_id
 _symmetry_equiv_pos_as_xyz
  1  'x, y, z'
loop_
 _atom_site_type_symbol
 _atom_site_label
 _atom_site_symmetry_multiplicity
 _atom_site_fract_x
 _atom_site_fract_y
 _atom_site_fract_z
 _atom_site_occupancy
  Li  Li0  1  0.00000000  0.50000000  0.45125600  1
  Li  Li1  1  0.00000000  0.50000000  0.95125600  1
  Li  Li2  1  0.50000000  0.00000000  0.04874400  1
  Li  Li3  1  0.50000000  0.00000000  0.54874400  1
  Li  Li4  1  0.71776300  0.71776300  0.00000000  1
  Li  Li5  1  0.78223700  0.21776300  0.50000000  1
  Li  Li6  1  0.78223700  0.78223700  0.50000000  1
  Li  Li7  1  0.28223700  0.71776300  0.00000000  1
  Li  Li8  1  0.21776300  0.78223700  0.50000000  1
  Li  Li9  1  0.28223700  0.28223700  0.00000000  1
  Li  Li10  1  0.21776300  0.21776300  0.50000000  1
  Li  Li11  1  0.71776300  0.28223700  0.00000000  1
  Co  Co12  1  0.00000000  0.00000000  0.00000000  1
  Co  Co13  1  0.50000000  0.50000000  0.50000000  1
  O  O14  1  0.76331600  0.50000000  0.71347000  1
  O  O15  1  0.50000000  0.76331600  0.28653000  1
  O  O16  1  0.26331600  0.00000000  0.78653000  1
  O  O17  1  0.50000000  0.23668400  0.28653000  1
  O  O18  1  0.00000000  0.26331600  0.21347000  1
  O  O19  1  0.23668400  0.50000000  0.71347000  1
  O  O20  1  0.73668400  0.00000000  0.78653000  1
  O  O21  1  0.00000000  0.73668400  0.21347000  1
