# generated using pymatgen
data_K2Pd(NO2)4
_symmetry_space_group_name_H-M   'P 1'
_cell_length_a   7.91632900
_cell_length_b   12.93821800
_cell_length_c   9.71498067
_cell_angle_alpha   90.00000000
_cell_angle_beta   97.43144560
_cell_angle_gamma   90.00000000
_symmetry_Int_Tables_number   1
_chemical_formula_structural   K2Pd(NO2)4
_chemical_formula_sum   'K8 Pd4 N16 O32'
_cell_volume   986.68130872
_cell_formula_units_Z   4
loop_
 _symmetry_equiv_pos_site_id
 _symmetry_equiv_pos_as_xyz
  1  'x, y, z'
loop_
 _atom_site_type_symbol
 _atom_site_label
 _atom_site_symmetry_multiplicity
 _atom_site_fract_x
 _atom_site_fract_y
 _atom_site_fract_z
 _atom_site_occupancy
  K  K0  1  0.64967700  0.81695700  0.65840800  1
  K  K1  1  0.85032300  0.31695700  0.34159200  1
  K  K2  1  0.35032300  0.18304300  0.34159200  1
  K  K3  1  0.14967700  0.68304300  0.65840800  1
  K  K4  1  0.91567400  0.65692600  0.18908100  1
  K  K5  1  0.58432600  0.15692600  0.81091900  1
  K  K6  1  0.08432600  0.34307400  0.81091900  1
  K  K7  1  0.41567400  0.84307400  0.18908100  1
  Pd  Pd8  1  0.50000000  0.50000000  0.50000000  1
  Pd  Pd9  1  0.00000000  0.00000000  0.50000000  1
  Pd  Pd10  1  0.00000000  0.00000000  0.00000000  1
  Pd  Pd11  1  0.50000000  0.50000000  0.00000000  1
  N  N12  1  0.75443100  0.52144600  0.58062700  1
  N  N13  1  0.51237100  0.63675800  0.39465700  1
  N  N14  1  0.98762900  0.13675800  0.60534300  1
  N  N15  1  0.48762900  0.36324200  0.60534300  1
  N  N16  1  0.01237100  0.86324200  0.39465700  1
  N  N17  1  0.74556900  0.02144600  0.41937300  1
  N  N18  1  0.24556900  0.47855400  0.41937300  1
  N  N19  1  0.25443100  0.97855400  0.58062700  1
  N  N20  1  0.76468500  0.93327400  0.00737600  1
  N  N21  1  0.73531500  0.43327400  0.99262400  1
  N  N22  1  0.23531500  0.06672600  0.99262400  1
  N  N23  1  0.26468500  0.56672600  0.00737600  1
  N  N24  1  0.43086700  0.37280800  0.10801400  1
  N  N25  1  0.06913300  0.87280800  0.89198600  1
  N  N26  1  0.56913300  0.62719200  0.89198600  1
  N  N27  1  0.93086700  0.12719200  0.10801400  1
  O  O28  1  0.30278000  0.89203600  0.62771800  1
  O  O29  1  0.19722000  0.39203600  0.37228200  1
  O  O30  1  0.69722000  0.10796400  0.37228200  1
  O  O31  1  0.80278000  0.60796400  0.62771800  1
  O  O32  1  0.93325000  0.78646800  0.43264900  1
  O  O33  1  0.56675000  0.28646800  0.56735100  1
  O  O34  1  0.06675000  0.21353200  0.56735100  1
  O  O35  1  0.59943500  0.64481300  0.29678700  1
  O  O36  1  0.43325000  0.71353200  0.43264900  1
  O  O37  1  0.09943500  0.85518700  0.29678700  1
  O  O38  1  0.40056500  0.35518700  0.70321300  1
  O  O39  1  0.90056500  0.14481300  0.70321300  1
  O  O40  1  0.29815500  0.32379700  0.06628200  1
  O  O41  1  0.20184500  0.82379700  0.93371800  1
  O  O42  1  0.70184500  0.67620300  0.93371800  1
  O  O43  1  0.79815500  0.17620300  0.06628200  1
  O  O44  1  0.52288400  0.34468700  0.21629500  1
  O  O45  1  0.97711600  0.84468700  0.78370500  1
  O  O46  1  0.47711600  0.65531300  0.78370500  1
  O  O47  1  0.02288400  0.15531300  0.21629500  1
  O  O48  1  0.14759500  0.54992000  0.91034700  1
  O  O49  1  0.35240500  0.04992000  0.08965300  1
  O  O50  1  0.85240500  0.45008000  0.08965300  1
  O  O51  1  0.64759500  0.95008000  0.91034700  1
  O  O52  1  0.23988300  0.62345800  0.10677100  1
  O  O53  1  0.26011700  0.12345800  0.89322900  1
  O  O54  1  0.76011700  0.37654200  0.89322900  1
  O  O55  1  0.73988300  0.87654200  0.10677100  1
  O  O56  1  0.35843000  0.05138800  0.58062500  1
  O  O57  1  0.14157000  0.55138800  0.41937500  1
  O  O58  1  0.64157000  0.94861200  0.41937500  1
  O  O59  1  0.85843000  0.44861200  0.58062500  1
