# generated using pymatgen
data_UF5
_symmetry_space_group_name_H-M   'P 1'
_cell_length_a   11.55351400
_cell_length_b   11.55351400
_cell_length_c   5.37664400
_cell_angle_alpha   90.00000000
_cell_angle_beta   90.00000000
_cell_angle_gamma   90.00000000
_symmetry_Int_Tables_number   1
_chemical_formula_structural   UF5
_chemical_formula_sum   'U8 F40'
_cell_volume   717.69425808
_cell_formula_units_Z   8
loop_
 _symmetry_equiv_pos_site_id
 _symmetry_equiv_pos_as_xyz
  1  'x, y, z'
loop_
 _atom_site_type_symbol
 _atom_site_label
 _atom_site_symmetry_multiplicity
 _atom_site_fract_x
 _atom_site_fract_y
 _atom_site_fract_z
 _atom_site_occupancy
  U  U0  1  0.91032000  0.25000000  0.87500000  1
  U  U1  1  0.25000000  0.08968000  0.12500000  1
  U  U2  1  0.75000000  0.91032000  0.12500000  1
  U  U3  1  0.08968000  0.75000000  0.87500000  1
  U  U4  1  0.41032000  0.75000000  0.37500000  1
  U  U5  1  0.75000000  0.58968000  0.62500000  1
  U  U6  1  0.25000000  0.41032000  0.62500000  1
  U  U7  1  0.58968000  0.25000000  0.37500000  1
  F  F8  1  0.92383050  0.85474850  0.99826850  1
  F  F9  1  0.07616950  0.14525150  0.99826850  1
  F  F10  1  0.14525150  0.92383050  0.00173150  1
  F  F11  1  0.85474850  0.07616950  0.00173150  1
  F  F12  1  0.03966700  0.66974100  0.19050800  1
  F  F13  1  0.66974100  0.96033300  0.80949200  1
  F  F14  1  0.33025900  0.03966700  0.80949200  1
  F  F15  1  0.96033300  0.33025900  0.19050800  1
  F  F16  1  0.96033300  0.16974100  0.55949200  1
  F  F17  1  0.03966700  0.83025900  0.55949200  1
  F  F18  1  0.16974100  0.03966700  0.44050800  1
  F  F19  1  0.83025900  0.96033300  0.44050800  1
  F  F20  1  0.22592800  0.25000000  0.37500000  1
  F  F21  1  0.25000000  0.77407200  0.62500000  1
  F  F22  1  0.75000000  0.22592800  0.62500000  1
  F  F23  1  0.77407200  0.75000000  0.37500000  1
  F  F24  1  0.64525150  0.07616950  0.24826850  1
  F  F25  1  0.07616950  0.35474850  0.75173150  1
  F  F26  1  0.92383050  0.64525150  0.75173150  1
  F  F27  1  0.35474850  0.92383050  0.24826850  1
  F  F28  1  0.42383050  0.35474850  0.49826850  1
  F  F29  1  0.57616950  0.64525150  0.49826850  1
  F  F30  1  0.64525150  0.42383050  0.50173150  1
  F  F31  1  0.35474850  0.57616950  0.50173150  1
  F  F32  1  0.53966700  0.16974100  0.69050800  1
  F  F33  1  0.16974100  0.46033300  0.30949200  1
  F  F34  1  0.83025900  0.53966700  0.30949200  1
  F  F35  1  0.46033300  0.83025900  0.69050800  1
  F  F36  1  0.46033300  0.66974100  0.05949200  1
  F  F37  1  0.53966700  0.33025900  0.05949200  1
  F  F38  1  0.66974100  0.53966700  0.94050800  1
  F  F39  1  0.33025900  0.46033300  0.94050800  1
  F  F40  1  0.72592800  0.75000000  0.87500000  1
  F  F41  1  0.75000000  0.27407200  0.12500000  1
  F  F42  1  0.25000000  0.72592800  0.12500000  1
  F  F43  1  0.27407200  0.25000000  0.87500000  1
  F  F44  1  0.14525150  0.57616950  0.74826850  1
  F  F45  1  0.57616950  0.85474850  0.25173150  1
  F  F46  1  0.42383050  0.14525150  0.25173150  1
  F  F47  1  0.85474850  0.42383050  0.74826850  1
