# generated using pymatgen
data_MgSeO4
_symmetry_space_group_name_H-M   'P 1'
_cell_length_a   5.50350400
_cell_length_b   8.34933600
_cell_length_c   6.67071300
_cell_angle_alpha   90.00000000
_cell_angle_beta   90.00000000
_cell_angle_gamma   90.00000000
_symmetry_Int_Tables_number   1
_chemical_formula_structural   MgSeO4
_chemical_formula_sum   'Mg4 Se4 O16'
_cell_volume   306.52329195
_cell_formula_units_Z   4
loop_
 _symmetry_equiv_pos_site_id
 _symmetry_equiv_pos_as_xyz
  1  'x, y, z'
loop_
 _atom_site_type_symbol
 _atom_site_label
 _atom_site_symmetry_multiplicity
 _atom_site_fract_x
 _atom_site_fract_y
 _atom_site_fract_z
 _atom_site_occupancy
  Mg  Mg0  1  0.00000000  0.00000000  0.00000000  1
  Mg  Mg1  1  0.00000000  0.00000000  0.50000000  1
  Mg  Mg2  1  0.50000000  0.50000000  0.00000000  1
  Mg  Mg3  1  0.50000000  0.50000000  0.50000000  1
  Se  Se4  1  0.50000000  0.15064400  0.75000000  1
  Se  Se5  1  0.50000000  0.84935600  0.25000000  1
  Se  Se6  1  0.00000000  0.65064400  0.75000000  1
  Se  Se7  1  0.00000000  0.34935600  0.25000000  1
  O  O8  1  0.25130350  0.03046750  0.75000000  1
  O  O9  1  0.74869650  0.96953250  0.25000000  1
  O  O10  1  0.25130350  0.96953250  0.25000000  1
  O  O11  1  0.74869650  0.03046750  0.75000000  1
  O  O12  1  0.50000000  0.25751900  0.95786600  1
  O  O13  1  0.50000000  0.74248100  0.45786600  1
  O  O14  1  0.50000000  0.74248100  0.04213400  1
  O  O15  1  0.50000000  0.25751900  0.54213400  1
  O  O16  1  0.75130350  0.53046750  0.75000000  1
  O  O17  1  0.24869650  0.46953250  0.25000000  1
  O  O18  1  0.75130350  0.46953250  0.25000000  1
  O  O19  1  0.24869650  0.53046750  0.75000000  1
  O  O20  1  0.00000000  0.75751900  0.95786600  1
  O  O21  1  0.00000000  0.24248100  0.45786600  1
  O  O22  1  0.00000000  0.24248100  0.04213400  1
  O  O23  1  0.00000000  0.75751900  0.54213400  1
