# generated using pymatgen
data_Ca2CoSi2O7
_symmetry_space_group_name_H-M   'P 1'
_cell_length_a   7.90945800
_cell_length_b   7.90945800
_cell_length_c   5.06340500
_cell_angle_alpha   90.00000000
_cell_angle_beta   90.00000000
_cell_angle_gamma   90.00000000
_symmetry_Int_Tables_number   1
_chemical_formula_structural   Ca2CoSi2O7
_chemical_formula_sum   'Ca4 Co2 Si4 O14'
_cell_volume   316.76421601
_cell_formula_units_Z   2
loop_
 _symmetry_equiv_pos_site_id
 _symmetry_equiv_pos_as_xyz
  1  'x, y, z'
loop_
 _atom_site_type_symbol
 _atom_site_label
 _atom_site_symmetry_multiplicity
 _atom_site_fract_x
 _atom_site_fract_y
 _atom_site_fract_z
 _atom_site_occupancy
  Ca  Ca0  1  0.17007750  0.32992250  0.49942200  1
  Ca  Ca1  1  0.82992250  0.67007750  0.49942200  1
  Ca  Ca2  1  0.67007750  0.17007750  0.50057800  1
  Ca  Ca3  1  0.32992250  0.82992250  0.50057800  1
  Co  Co4  1  0.50000000  0.50000000  0.00000000  1
  Co  Co5  1  0.00000000  0.00000000  0.00000000  1
  Si  Si6  1  0.85914000  0.35914000  0.93216600  1
  Si  Si7  1  0.64086000  0.85914000  0.06783400  1
  Si  Si8  1  0.35914000  0.14086000  0.06783400  1
  Si  Si9  1  0.14086000  0.64086000  0.93216600  1
  O  O10  1  0.50000000  0.00000000  0.18398200  1
  O  O11  1  0.00000000  0.50000000  0.81601800  1
  O  O12  1  0.85691250  0.35691250  0.25075800  1
  O  O13  1  0.64308750  0.85691250  0.74924200  1
  O  O14  1  0.35691250  0.14308750  0.74924200  1
  O  O15  1  0.14308750  0.64308750  0.25075800  1
  O  O16  1  0.68595500  0.41773200  0.77748800  1
  O  O17  1  0.31404500  0.58226800  0.77748800  1
  O  O18  1  0.41773200  0.31404500  0.22251200  1
  O  O19  1  0.58226800  0.68595500  0.22251200  1
  O  O20  1  0.91773200  0.18595500  0.77748800  1
  O  O21  1  0.81404500  0.91773200  0.22251200  1
  O  O22  1  0.18595500  0.08226800  0.22251200  1
  O  O23  1  0.08226800  0.81404500  0.77748800  1
