# generated using pymatgen
data_Ba2CaSi4(BO7)2
_symmetry_space_group_name_H-M   'P 1'
_cell_length_a   11.05570400
_cell_length_b   11.05570400
_cell_length_c   10.40977200
_cell_angle_alpha   90.00000000
_cell_angle_beta   90.00000000
_cell_angle_gamma   90.00000000
_symmetry_Int_Tables_number   1
_chemical_formula_structural   Ba2CaSi4(BO7)2
_chemical_formula_sum   'Ba8 Ca4 Si16 B8 O56'
_cell_volume   1272.37176352
_cell_formula_units_Z   4
loop_
 _symmetry_equiv_pos_site_id
 _symmetry_equiv_pos_as_xyz
  1  'x, y, z'
loop_
 _atom_site_type_symbol
 _atom_site_label
 _atom_site_symmetry_multiplicity
 _atom_site_fract_x
 _atom_site_fract_y
 _atom_site_fract_z
 _atom_site_occupancy
  Ba  Ba0  1  0.70486700  0.29513300  0.49893300  1
  Ba  Ba1  1  0.29513300  0.70486700  0.49893300  1
  Ba  Ba2  1  0.20486700  0.20486700  0.00106700  1
  Ba  Ba3  1  0.29513300  0.29513300  0.50106700  1
  Ba  Ba4  1  0.20486700  0.79513300  0.99893300  1
  Ba  Ba5  1  0.79513300  0.20486700  0.99893300  1
  Ba  Ba6  1  0.70486700  0.70486700  0.50106700  1
  Ba  Ba7  1  0.79513300  0.79513300  0.00106700  1
  Ca  Ca8  1  0.00000000  0.00000000  0.24462400  1
  Ca  Ca9  1  0.00000000  0.00000000  0.75537600  1
  Ca  Ca10  1  0.50000000  0.50000000  0.74462400  1
  Ca  Ca11  1  0.50000000  0.50000000  0.25537600  1
  Si  Si12  1  0.51449300  0.79879700  0.23623000  1
  Si  Si13  1  0.48550700  0.20120300  0.23623000  1
  Si  Si14  1  0.01449300  0.70120300  0.26377000  1
  Si  Si15  1  0.98550700  0.29879700  0.26377000  1
  Si  Si16  1  0.70120300  0.01449300  0.26377000  1
  Si  Si17  1  0.29879700  0.98550700  0.26377000  1
  Si  Si18  1  0.20120300  0.48550700  0.23623000  1
  Si  Si19  1  0.79879700  0.51449300  0.23623000  1
  Si  Si20  1  0.01449300  0.29879700  0.73623000  1
  Si  Si21  1  0.98550700  0.70120300  0.73623000  1
  Si  Si22  1  0.51449300  0.20120300  0.76377000  1
  Si  Si23  1  0.48550700  0.79879700  0.76377000  1
  Si  Si24  1  0.20120300  0.51449300  0.76377000  1
  Si  Si25  1  0.79879700  0.48550700  0.76377000  1
  Si  Si26  1  0.70120300  0.98550700  0.73623000  1
  Si  Si27  1  0.29879700  0.01449300  0.73623000  1
  B  B28  1  0.00000000  0.16698400  0.50000000  1
  B  B29  1  0.50000000  0.33301600  0.00000000  1
  B  B30  1  0.33301600  0.50000000  0.00000000  1
  B  B31  1  0.16698400  0.00000000  0.50000000  1
  B  B32  1  0.50000000  0.66698400  0.00000000  1
  B  B33  1  0.00000000  0.83301600  0.50000000  1
  B  B34  1  0.83301600  0.00000000  0.50000000  1
  B  B35  1  0.66698400  0.50000000  0.00000000  1
  O  O36  1  0.90612800  0.09387200  0.56579600  1
  O  O37  1  0.09387200  0.90612800  0.56579600  1
  O  O38  1  0.40612800  0.40612800  0.93420400  1
  O  O39  1  0.09387200  0.09387200  0.43420400  1
  O  O40  1  0.06002950  0.24641950  0.59751150  1
  O  O41  1  0.43997050  0.25358050  0.09751150  1
  O  O42  1  0.56002950  0.25358050  0.90248850  1
  O  O43  1  0.93997050  0.24641950  0.40248850  1
  O  O44  1  0.25358050  0.56002950  0.90248850  1
  O  O45  1  0.24641950  0.93997050  0.40248850  1
  O  O46  1  0.25358050  0.43997050  0.09751150  1
  O  O47  1  0.24641950  0.06002950  0.59751150  1
  O  O48  1  0.49718300  0.69702900  0.34534400  1
  O  O49  1  0.50281700  0.30297100  0.34534400  1
  O  O50  1  0.99718300  0.80297100  0.15465600  1
  O  O51  1  0.00281700  0.19702900  0.15465600  1
  O  O52  1  0.80297100  0.99718300  0.15465600  1
  O  O53  1  0.19702900  0.00281700  0.15465600  1
  O  O54  1  0.30297100  0.50281700  0.34534400  1
  O  O55  1  0.69702900  0.49718300  0.34534400  1
  O  O56  1  0.62340900  0.88911500  0.28840100  1
  O  O57  1  0.37659100  0.11088500  0.28840100  1
  O  O58  1  0.12340900  0.61088500  0.21159900  1
  O  O59  1  0.87659100  0.38911500  0.21159900  1
  O  O60  1  0.61088500  0.12340900  0.21159900  1
  O  O61  1  0.38911500  0.87659100  0.21159900  1
  O  O62  1  0.11088500  0.37659100  0.28840100  1
  O  O63  1  0.88911500  0.62340900  0.28840100  1
  O  O64  1  0.40612800  0.59387200  0.06579600  1
  O  O65  1  0.59387200  0.40612800  0.06579600  1
  O  O66  1  0.90612800  0.90612800  0.43420400  1
  O  O67  1  0.59387200  0.59387200  0.93420400  1
  O  O68  1  0.56002950  0.74641950  0.09751150  1
  O  O69  1  0.93997050  0.75358050  0.59751150  1
  O  O70  1  0.06002950  0.75358050  0.40248850  1
  O  O71  1  0.43997050  0.74641950  0.90248850  1
  O  O72  1  0.75358050  0.06002950  0.40248850  1
  O  O73  1  0.74641950  0.43997050  0.90248850  1
  O  O74  1  0.75358050  0.93997050  0.59751150  1
  O  O75  1  0.74641950  0.56002950  0.09751150  1
  O  O76  1  0.99718300  0.19702900  0.84534400  1
  O  O77  1  0.00281700  0.80297100  0.84534400  1
  O  O78  1  0.49718300  0.30297100  0.65465600  1
  O  O79  1  0.50281700  0.69702900  0.65465600  1
  O  O80  1  0.30297100  0.49718300  0.65465600  1
  O  O81  1  0.69702900  0.50281700  0.65465600  1
  O  O82  1  0.80297100  0.00281700  0.84534400  1
  O  O83  1  0.19702900  0.99718300  0.84534400  1
  O  O84  1  0.12340900  0.38911500  0.78840100  1
  O  O85  1  0.87659100  0.61088500  0.78840100  1
  O  O86  1  0.62340900  0.11088500  0.71159900  1
  O  O87  1  0.37659100  0.88911500  0.71159900  1
  O  O88  1  0.11088500  0.62340900  0.71159900  1
  O  O89  1  0.88911500  0.37659100  0.71159900  1
  O  O90  1  0.61088500  0.87659100  0.78840100  1
  O  O91  1  0.38911500  0.12340900  0.78840100  1
