# generated using pymatgen
data_VAgHgO4
_symmetry_space_group_name_H-M   'P 1'
_cell_length_a   10.59456000
_cell_length_b   5.58377600
_cell_length_c   7.25409092
_cell_angle_alpha   90.00000000
_cell_angle_beta   99.07342002
_cell_angle_gamma   90.00000000
_symmetry_Int_Tables_number   1
_chemical_formula_structural   VAgHgO4
_chemical_formula_sum   'V4 Ag4 Hg4 O16'
_cell_volume   423.76523554
_cell_formula_units_Z   4
loop_
 _symmetry_equiv_pos_site_id
 _symmetry_equiv_pos_as_xyz
  1  'x, y, z'
loop_
 _atom_site_type_symbol
 _atom_site_label
 _atom_site_symmetry_multiplicity
 _atom_site_fract_x
 _atom_site_fract_y
 _atom_site_fract_z
 _atom_site_occupancy
  V  V0  1  0.68679050  0.99656950  0.23005200  1
  V  V1  1  0.81320950  0.49656950  0.76994800  1
  V  V2  1  0.18679050  0.49656950  0.23005200  1
  V  V3  1  0.31320950  0.99656950  0.76994800  1
  Ag  Ag4  1  0.63803850  0.01007750  0.72145800  1
  Ag  Ag5  1  0.86196150  0.51007750  0.27854200  1
  Ag  Ag6  1  0.13803850  0.51007750  0.72145800  1
  Ag  Ag7  1  0.36196150  0.01007750  0.27854200  1
  Hg  Hg8  1  0.00000000  0.99110800  0.00000000  1
  Hg  Hg9  1  0.00000000  0.02712900  0.50000000  1
  Hg  Hg10  1  0.50000000  0.49110800  0.00000000  1
  Hg  Hg11  1  0.50000000  0.52712900  0.50000000  1
  O  O12  1  0.63373750  0.14628950  0.02500900  1
  O  O13  1  0.86626250  0.64628950  0.97499100  1
  O  O14  1  0.88129200  0.61752100  0.59224000  1
  O  O15  1  0.61870800  0.11752100  0.40776000  1
  O  O16  1  0.86088850  0.05345250  0.26759200  1
  O  O17  1  0.63911150  0.55345250  0.73240800  1
  O  O18  1  0.85711000  0.19217200  0.78810900  1
  O  O19  1  0.64289000  0.69217200  0.21189100  1
  O  O20  1  0.13373750  0.64628950  0.02500900  1
  O  O21  1  0.36626250  0.14628950  0.97499100  1
  O  O22  1  0.38129200  0.11752100  0.59224000  1
  O  O23  1  0.11870800  0.61752100  0.40776000  1
  O  O24  1  0.36088850  0.55345250  0.26759200  1
  O  O25  1  0.13911150  0.05345250  0.73240800  1
  O  O26  1  0.35711000  0.69217200  0.78810900  1
  O  O27  1  0.14289000  0.19217200  0.21189100  1
