# generated using pymatgen
data_B6O
_symmetry_space_group_name_H-M   'P 1'
_cell_length_a   5.39351824
_cell_length_b   5.39351824
_cell_length_c   12.31890360
_cell_angle_alpha   90.00000000
_cell_angle_beta   90.00000000
_cell_angle_gamma   120.00000000
_symmetry_Int_Tables_number   1
_chemical_formula_structural   B6O
_chemical_formula_sum   'B36 O6'
_cell_volume   310.34660070
_cell_formula_units_Z   6
loop_
 _symmetry_equiv_pos_site_id
 _symmetry_equiv_pos_as_xyz
  1  'x, y, z'
loop_
 _atom_site_type_symbol
 _atom_site_label
 _atom_site_symmetry_multiplicity
 _atom_site_fract_x
 _atom_site_fract_y
 _atom_site_fract_z
 _atom_site_occupancy
  B  B0  1  0.01659467  0.50829733  0.30712633  1
  B  B1  1  0.49170267  0.98340533  0.30712633  1
  B  B2  1  0.49170267  0.50829733  0.30712633  1
  B  B3  1  0.17496400  0.82503600  0.02620700  1
  B  B4  1  0.65007200  0.82503600  0.02620700  1
  B  B5  1  0.17496400  0.34992800  0.02620700  1
  B  B6  1  0.11276000  0.55638000  0.55407700  1
  B  B7  1  0.44362000  0.88724000  0.55407700  1
  B  B8  1  0.44362000  0.55638000  0.55407700  1
  B  B9  1  0.22304667  0.77695333  0.77925633  1
  B  B10  1  0.55390667  0.77695333  0.77925633  1
  B  B11  1  0.22304667  0.44609333  0.77925633  1
  B  B12  1  0.68326133  0.84163067  0.64045967  1
  B  B13  1  0.15836933  0.31673867  0.64045967  1
  B  B14  1  0.15836933  0.84163067  0.64045967  1
  B  B15  1  0.84163067  0.15836933  0.35954033  1
  B  B16  1  0.31673867  0.15836933  0.35954033  1
  B  B17  1  0.84163067  0.68326133  0.35954033  1
  B  B18  1  0.77942667  0.88971333  0.88741033  1
  B  B19  1  0.11028667  0.22057333  0.88741033  1
  B  B20  1  0.11028667  0.88971333  0.88741033  1
  B  B21  1  0.88971333  0.11028667  0.11258967  1
  B  B22  1  0.22057333  0.11028667  0.11258967  1
  B  B23  1  0.88971333  0.77942667  0.11258967  1
  B  B24  1  0.34992800  0.17496400  0.97379300  1
  B  B25  1  0.82503600  0.65007200  0.97379300  1
  B  B26  1  0.82503600  0.17496400  0.97379300  1
  B  B27  1  0.50829733  0.49170267  0.69287367  1
  B  B28  1  0.98340533  0.49170267  0.69287367  1
  B  B29  1  0.50829733  0.01659467  0.69287367  1
  B  B30  1  0.44609333  0.22304667  0.22074367  1
  B  B31  1  0.77695333  0.55390667  0.22074367  1
  B  B32  1  0.77695333  0.22304667  0.22074367  1
  B  B33  1  0.55638000  0.44362000  0.44592300  1
  B  B34  1  0.88724000  0.44362000  0.44592300  1
  B  B35  1  0.55638000  0.11276000  0.44592300  1
  O  O36  1  0.33333333  0.66666667  0.04439967  1
  O  O37  1  0.33333333  0.66666667  0.28893367  1
  O  O38  1  0.00000000  0.00000000  0.37773300  1
  O  O39  1  0.00000000  0.00000000  0.62226700  1
  O  O40  1  0.66666667  0.33333333  0.71106633  1
  O  O41  1  0.66666667  0.33333333  0.95560033  1
