# generated using pymatgen
data_Ca5Al6O14
_symmetry_space_group_name_H-M   'P 1'
_cell_length_a   11.08860800
_cell_length_b   11.38025400
_cell_length_c   10.39685000
_cell_angle_alpha   90.00000000
_cell_angle_beta   90.00000000
_cell_angle_gamma   90.00000000
_symmetry_Int_Tables_number   1
_chemical_formula_structural   Ca5Al6O14
_chemical_formula_sum   'Ca20 Al24 O56'
_cell_volume   1311.99072348
_cell_formula_units_Z   4
loop_
 _symmetry_equiv_pos_site_id
 _symmetry_equiv_pos_as_xyz
  1  'x, y, z'
loop_
 _atom_site_type_symbol
 _atom_site_label
 _atom_site_symmetry_multiplicity
 _atom_site_fract_x
 _atom_site_fract_y
 _atom_site_fract_z
 _atom_site_occupancy
  Ca  Ca0  1  0.47476400  0.00000000  0.74206700  1
  Ca  Ca1  1  0.52523600  0.00000000  0.24206700  1
  Ca  Ca2  1  0.81741300  0.85802400  0.19909000  1
  Ca  Ca3  1  0.18258700  0.14197600  0.69909000  1
  Ca  Ca4  1  0.18258700  0.85802400  0.69909000  1
  Ca  Ca5  1  0.81741300  0.14197600  0.19909000  1
  Ca  Ca6  1  0.60582750  0.65845750  0.24965900  1
  Ca  Ca7  1  0.39417250  0.34154250  0.74965900  1
  Ca  Ca8  1  0.39417250  0.65845750  0.74965900  1
  Ca  Ca9  1  0.60582750  0.34154250  0.24965900  1
  Ca  Ca10  1  0.97476400  0.50000000  0.74206700  1
  Ca  Ca11  1  0.02523600  0.50000000  0.24206700  1
  Ca  Ca12  1  0.31741300  0.35802400  0.19909000  1
  Ca  Ca13  1  0.68258700  0.64197600  0.69909000  1
  Ca  Ca14  1  0.68258700  0.35802400  0.69909000  1
  Ca  Ca15  1  0.31741300  0.64197600  0.19909000  1
  Ca  Ca16  1  0.10582750  0.15845750  0.24965900  1
  Ca  Ca17  1  0.89417250  0.84154250  0.74965900  1
  Ca  Ca18  1  0.89417250  0.15845750  0.74965900  1
  Ca  Ca19  1  0.10582750  0.84154250  0.24965900  1
  Al  Al20  1  0.40177250  0.24481550  0.47594400  1
  Al  Al21  1  0.59822750  0.75518450  0.97594400  1
  Al  Al22  1  0.59822750  0.24481550  0.97594400  1
  Al  Al23  1  0.40177250  0.75518450  0.47594400  1
  Al  Al24  1  0.00068100  0.00000000  0.96252900  1
  Al  Al25  1  0.99931900  0.00000000  0.46252900  1
  Al  Al26  1  0.70086000  0.00000000  0.94077200  1
  Al  Al27  1  0.29914000  0.00000000  0.44077200  1
  Al  Al28  1  0.64572400  0.85663800  0.50847200  1
  Al  Al29  1  0.35427600  0.14336200  0.00847200  1
  Al  Al30  1  0.35427600  0.85663800  0.00847200  1
  Al  Al31  1  0.64572400  0.14336200  0.50847200  1
  Al  Al32  1  0.90177250  0.74481550  0.47594400  1
  Al  Al33  1  0.09822750  0.25518450  0.97594400  1
  Al  Al34  1  0.09822750  0.74481550  0.97594400  1
  Al  Al35  1  0.90177250  0.25518450  0.47594400  1
  Al  Al36  1  0.50068100  0.50000000  0.96252900  1
  Al  Al37  1  0.49931900  0.50000000  0.46252900  1
  Al  Al38  1  0.20086000  0.50000000  0.94077200  1
  Al  Al39  1  0.79914000  0.50000000  0.44077200  1
  Al  Al40  1  0.14572400  0.35663800  0.50847200  1
  Al  Al41  1  0.85427600  0.64336200  0.00847200  1
  Al  Al42  1  0.85427600  0.35663800  0.00847200  1
  Al  Al43  1  0.14572400  0.64336200  0.50847200  1
  O  O44  1  0.69974500  0.00000000  0.10969500  1
  O  O45  1  0.30025500  0.00000000  0.60969500  1
  O  O46  1  0.36912750  0.12588550  0.37308200  1
  O  O47  1  0.63087250  0.87411450  0.87308200  1
  O  O48  1  0.63087250  0.12588550  0.87308200  1
  O  O49  1  0.36912750  0.87411450  0.37308200  1
  O  O50  1  0.99303500  0.00000000  0.13126000  1
  O  O51  1  0.00696500  0.00000000  0.63126000  1
  O  O52  1  0.64903700  0.84028300  0.33972400  1
  O  O53  1  0.35096300  0.15971700  0.83972400  1
  O  O54  1  0.35096300  0.84028300  0.83972400  1
  O  O55  1  0.64903700  0.15971700  0.33972400  1
  O  O56  1  0.85391700  0.00000000  0.88780100  1
  O  O57  1  0.14608300  0.00000000  0.38780100  1
  O  O58  1  0.43587250  0.37301450  0.38448700  1
  O  O59  1  0.56412750  0.62698550  0.88448700  1
  O  O60  1  0.56412750  0.37301450  0.88448700  1
  O  O61  1  0.43587250  0.62698550  0.38448700  1
  O  O62  1  0.52548950  0.77314550  0.58442300  1
  O  O63  1  0.47451050  0.22685450  0.08442300  1
  O  O64  1  0.47451050  0.77314550  0.08442300  1
  O  O65  1  0.52548950  0.22685450  0.58442300  1
  O  O66  1  0.77691700  0.21410600  0.57609600  1
  O  O67  1  0.22308300  0.78589400  0.07609600  1
  O  O68  1  0.22308300  0.21410600  0.07609600  1
  O  O69  1  0.77691700  0.78589400  0.57609600  1
  O  O70  1  0.62557800  0.00000000  0.56682400  1
  O  O71  1  0.37442200  0.00000000  0.06682400  1
  O  O72  1  0.19974500  0.50000000  0.10969500  1
  O  O73  1  0.80025500  0.50000000  0.60969500  1
  O  O74  1  0.86912750  0.62588550  0.37308200  1
  O  O75  1  0.13087250  0.37411450  0.87308200  1
  O  O76  1  0.13087250  0.62588550  0.87308200  1
  O  O77  1  0.86912750  0.37411450  0.37308200  1
  O  O78  1  0.49303500  0.50000000  0.13126000  1
  O  O79  1  0.50696500  0.50000000  0.63126000  1
  O  O80  1  0.14903700  0.34028300  0.33972400  1
  O  O81  1  0.85096300  0.65971700  0.83972400  1
  O  O82  1  0.85096300  0.34028300  0.83972400  1
  O  O83  1  0.14903700  0.65971700  0.33972400  1
  O  O84  1  0.35391700  0.50000000  0.88780100  1
  O  O85  1  0.64608300  0.50000000  0.38780100  1
  O  O86  1  0.93587250  0.87301450  0.38448700  1
  O  O87  1  0.06412750  0.12698550  0.88448700  1
  O  O88  1  0.06412750  0.87301450  0.88448700  1
  O  O89  1  0.93587250  0.12698550  0.38448700  1
  O  O90  1  0.02548950  0.27314550  0.58442300  1
  O  O91  1  0.97451050  0.72685450  0.08442300  1
  O  O92  1  0.97451050  0.27314550  0.08442300  1
  O  O93  1  0.02548950  0.72685450  0.58442300  1
  O  O94  1  0.27691700  0.71410600  0.57609600  1
  O  O95  1  0.72308300  0.28589400  0.07609600  1
  O  O96  1  0.72308300  0.71410600  0.07609600  1
  O  O97  1  0.27691700  0.28589400  0.57609600  1
  O  O98  1  0.12557800  0.50000000  0.56682400  1
  O  O99  1  0.87442200  0.50000000  0.06682400  1
