# generated using pymatgen
data_Sm(BO2)3
_symmetry_space_group_name_H-M   'P 1'
_cell_length_a   9.84066800
_cell_length_b   8.13790400
_cell_length_c   6.35967276
_cell_angle_alpha   90.00000000
_cell_angle_beta   126.72492270
_cell_angle_gamma   90.00000000
_symmetry_Int_Tables_number   1
_chemical_formula_structural   Sm(BO2)3
_chemical_formula_sum   'Sm4 B12 O24'
_cell_volume   408.21024238
_cell_formula_units_Z   4
loop_
 _symmetry_equiv_pos_site_id
 _symmetry_equiv_pos_as_xyz
  1  'x, y, z'
loop_
 _atom_site_type_symbol
 _atom_site_label
 _atom_site_symmetry_multiplicity
 _atom_site_fract_x
 _atom_site_fract_y
 _atom_site_fract_z
 _atom_site_occupancy
  Sm  Sm0  1  0.00000000  0.20369600  0.75000000  1
  Sm  Sm1  1  0.00000000  0.79630400  0.25000000  1
  Sm  Sm2  1  0.50000000  0.70369600  0.75000000  1
  Sm  Sm3  1  0.50000000  0.29630400  0.25000000  1
  B  B4  1  0.77308500  0.43435200  0.91222200  1
  B  B5  1  0.22691500  0.43435200  0.58777800  1
  B  B6  1  0.00000000  0.77745900  0.75000000  1
  B  B7  1  0.00000000  0.22254100  0.25000000  1
  B  B8  1  0.22691500  0.56564800  0.08777800  1
  B  B9  1  0.77308500  0.56564800  0.41222200  1
  B  B10  1  0.27308500  0.93435200  0.91222200  1
  B  B11  1  0.72691500  0.93435200  0.58777800  1
  B  B12  1  0.50000000  0.27745900  0.75000000  1
  B  B13  1  0.50000000  0.72254100  0.25000000  1
  B  B14  1  0.72691500  0.06564800  0.08777800  1
  B  B15  1  0.27308500  0.06564800  0.41222200  1
  O  O16  1  0.10407650  0.88661150  0.70843600  1
  O  O17  1  0.10143250  0.68487250  0.99441500  1
  O  O18  1  0.89856750  0.68487250  0.50558500  1
  O  O19  1  0.89856750  0.31512750  0.00558500  1
  O  O20  1  0.79629550  0.40969950  0.49330200  1
  O  O21  1  0.20370450  0.40969950  0.00669800  1
  O  O22  1  0.20370450  0.59030050  0.50669800  1
  O  O23  1  0.79629550  0.59030050  0.99330200  1
  O  O24  1  0.89592350  0.11338850  0.29156400  1
  O  O25  1  0.10407650  0.11338850  0.20843600  1
  O  O26  1  0.10143250  0.31512750  0.49441500  1
  O  O27  1  0.89592350  0.88661150  0.79156400  1
  O  O28  1  0.60407650  0.38661150  0.70843600  1
  O  O29  1  0.60143250  0.18487250  0.99441500  1
  O  O30  1  0.39856750  0.18487250  0.50558500  1
  O  O31  1  0.39856750  0.81512750  0.00558500  1
  O  O32  1  0.29629550  0.90969950  0.49330200  1
  O  O33  1  0.70370450  0.90969950  0.00669800  1
  O  O34  1  0.70370450  0.09030050  0.50669800  1
  O  O35  1  0.29629550  0.09030050  0.99330200  1
  O  O36  1  0.39592350  0.61338850  0.29156400  1
  O  O37  1  0.60407650  0.61338850  0.20843600  1
  O  O38  1  0.60143250  0.81512750  0.49441500  1
  O  O39  1  0.39592350  0.38661150  0.79156400  1
