# generated using pymatgen
data_KTbGeS4
_symmetry_space_group_name_H-M   'P 1'
_cell_length_a   6.55904200
_cell_length_b   6.73267800
_cell_length_c   8.78293291
_cell_angle_alpha   90.00000000
_cell_angle_beta   107.29028035
_cell_angle_gamma   90.00000000
_symmetry_Int_Tables_number   1
_chemical_formula_structural   KTbGeS4
_chemical_formula_sum   'K2 Tb2 Ge2 S8'
_cell_volume   370.32696933
_cell_formula_units_Z   2
loop_
 _symmetry_equiv_pos_site_id
 _symmetry_equiv_pos_as_xyz
  1  'x, y, z'
loop_
 _atom_site_type_symbol
 _atom_site_label
 _atom_site_symmetry_multiplicity
 _atom_site_fract_x
 _atom_site_fract_y
 _atom_site_fract_z
 _atom_site_occupancy
  K  K0  1  0.73060200  0.12013400  0.43400650  1
  K  K1  1  0.26939800  0.62013400  0.56599350  1
  Tb  Tb2  1  0.22790500  0.63828400  0.05030950  1
  Tb  Tb3  1  0.77209500  0.13828400  0.94969050  1
  Ge  Ge4  1  0.22563600  0.10304800  0.82763250  1
  Ge  Ge5  1  0.77436400  0.60304800  0.17236750  1
  S  S6  1  0.02511000  0.36689400  0.21789350  1
  S  S7  1  0.43009200  0.10113200  0.66916750  1
  S  S8  1  0.56536200  0.53103700  0.92796650  1
  S  S9  1  0.43463800  0.03103700  0.07203350  1
  S  S10  1  0.56990800  0.60113200  0.33083250  1
  S  S11  1  0.02019000  0.37374100  0.80164650  1
  S  S12  1  0.97489000  0.86689400  0.78210650  1
  S  S13  1  0.97981000  0.87374100  0.19835350  1
