# generated using pymatgen
data_RbEr2Cu3Se5
_symmetry_space_group_name_H-M   'P 1'
_cell_length_a   4.10842800
_cell_length_b   14.53847000
_cell_length_c   17.05048100
_cell_angle_alpha   90.00000000
_cell_angle_beta   90.00000000
_cell_angle_gamma   90.00000000
_symmetry_Int_Tables_number   1
_chemical_formula_structural   RbEr2Cu3Se5
_chemical_formula_sum   'Rb4 Er8 Cu12 Se20'
_cell_volume   1018.42961594
_cell_formula_units_Z   4
loop_
 _symmetry_equiv_pos_site_id
 _symmetry_equiv_pos_as_xyz
  1  'x, y, z'
loop_
 _atom_site_type_symbol
 _atom_site_label
 _atom_site_symmetry_multiplicity
 _atom_site_fract_x
 _atom_site_fract_y
 _atom_site_fract_z
 _atom_site_occupancy
  Rb  Rb0  1  0.50000000  0.06090700  0.75000000  1
  Rb  Rb1  1  0.00000000  0.43909300  0.25000000  1
  Rb  Rb2  1  0.00000000  0.56090700  0.75000000  1
  Rb  Rb3  1  0.50000000  0.93909300  0.25000000  1
  Er  Er4  1  0.00000000  0.30799000  0.59220700  1
  Er  Er5  1  0.50000000  0.19201000  0.40779300  1
  Er  Er6  1  0.50000000  0.19201000  0.09220700  1
  Er  Er7  1  0.00000000  0.30799000  0.90779300  1
  Er  Er8  1  0.50000000  0.80799000  0.59220700  1
  Er  Er9  1  0.00000000  0.69201000  0.40779300  1
  Er  Er10  1  0.00000000  0.69201000  0.09220700  1
  Er  Er11  1  0.50000000  0.80799000  0.90779300  1
  Cu  Cu12  1  0.00000000  0.08437900  0.52984800  1
  Cu  Cu13  1  0.50000000  0.41562100  0.47015200  1
  Cu  Cu14  1  0.50000000  0.41562100  0.02984800  1
  Cu  Cu15  1  0.00000000  0.08437900  0.97015200  1
  Cu  Cu16  1  0.50000000  0.34148000  0.75000000  1
  Cu  Cu17  1  0.00000000  0.15852000  0.25000000  1
  Cu  Cu18  1  0.50000000  0.58437900  0.52984800  1
  Cu  Cu19  1  0.00000000  0.91562100  0.47015200  1
  Cu  Cu20  1  0.00000000  0.91562100  0.02984800  1
  Cu  Cu21  1  0.50000000  0.58437900  0.97015200  1
  Cu  Cu22  1  0.00000000  0.84148000  0.75000000  1
  Cu  Cu23  1  0.50000000  0.65852000  0.25000000  1
  Se  Se24  1  0.00000000  0.06046000  0.38378600  1
  Se  Se25  1  0.50000000  0.43954000  0.61621400  1
  Se  Se26  1  0.50000000  0.43954000  0.88378600  1
  Se  Se27  1  0.00000000  0.06046000  0.11621400  1
  Se  Se28  1  0.50000000  0.24510600  0.25000000  1
  Se  Se29  1  0.00000000  0.25489400  0.75000000  1
  Se  Se30  1  0.00000000  0.33286400  0.42857100  1
  Se  Se31  1  0.50000000  0.16713600  0.57142900  1
  Se  Se32  1  0.50000000  0.16713600  0.92857100  1
  Se  Se33  1  0.00000000  0.33286400  0.07142900  1
  Se  Se34  1  0.50000000  0.56046000  0.38378600  1
  Se  Se35  1  0.00000000  0.93954000  0.61621400  1
  Se  Se36  1  0.00000000  0.93954000  0.88378600  1
  Se  Se37  1  0.50000000  0.56046000  0.11621400  1
  Se  Se38  1  0.00000000  0.74510600  0.25000000  1
  Se  Se39  1  0.50000000  0.75489400  0.75000000  1
  Se  Se40  1  0.50000000  0.83286400  0.42857100  1
  Se  Se41  1  0.00000000  0.66713600  0.57142900  1
  Se  Se42  1  0.00000000  0.66713600  0.92857100  1
  Se  Se43  1  0.50000000  0.83286400  0.07142900  1
