# generated using pymatgen
data_K7Nb(SO4)6
_symmetry_space_group_name_H-M   'P 1'
_cell_length_a   15.45336131
_cell_length_b   15.45336131
_cell_length_c   9.47600546
_cell_angle_alpha   90.00000000
_cell_angle_beta   90.00000000
_cell_angle_gamma   120.00000000
_symmetry_Int_Tables_number   1
_chemical_formula_structural   K7Nb(SO4)6
_chemical_formula_sum   'K21 Nb3 S18 O72'
_cell_volume   1959.75531642
_cell_formula_units_Z   3
loop_
 _symmetry_equiv_pos_site_id
 _symmetry_equiv_pos_as_xyz
  1  'x, y, z'
loop_
 _atom_site_type_symbol
 _atom_site_label
 _atom_site_symmetry_multiplicity
 _atom_site_fract_x
 _atom_site_fract_y
 _atom_site_fract_z
 _atom_site_occupancy
  K  K0  1  0.00000000  0.00000000  0.50000000  1
  K  K1  1  0.71838933  0.77930767  0.61679667  1
  K  K2  1  0.06091833  0.28161067  0.61679667  1
  K  K3  1  0.22069233  0.93908167  0.61679667  1
  K  K4  1  0.28161067  0.22069233  0.38320333  1
  K  K5  1  0.93908167  0.71838933  0.38320333  1
  K  K6  1  0.77930767  0.06091833  0.38320333  1
  K  K7  1  0.66666667  0.33333333  0.83333333  1
  K  K8  1  0.38505600  0.11264100  0.95013000  1
  K  K9  1  0.72758500  0.61494400  0.95013000  1
  K  K10  1  0.88735900  0.27241500  0.95013000  1
  K  K11  1  0.94827733  0.55402567  0.71653667  1
  K  K12  1  0.60574833  0.05172267  0.71653667  1
  K  K13  1  0.44597433  0.39425167  0.71653667  1
  K  K14  1  0.33333333  0.66666667  0.16666667  1
  K  K15  1  0.05172267  0.44597433  0.28346333  1
  K  K16  1  0.39425167  0.94827733  0.28346333  1
  K  K17  1  0.55402567  0.60574833  0.28346333  1
  K  K18  1  0.61494400  0.88735900  0.04987000  1
  K  K19  1  0.27241500  0.38505600  0.04987000  1
  K  K20  1  0.11264100  0.72758500  0.04987000  1
  Nb  Nb21  1  0.00000000  0.00000000  0.00000000  1
  Nb  Nb22  1  0.66666667  0.33333333  0.33333333  1
  Nb  Nb23  1  0.33333333  0.66666667  0.66666667  1
  S  S24  1  0.96793800  0.80865500  0.77680800  1
  S  S25  1  0.84071700  0.03206200  0.77680800  1
  S  S26  1  0.19134500  0.15928300  0.77680800  1
  S  S27  1  0.03206200  0.19134500  0.22319200  1
  S  S28  1  0.15928300  0.96793800  0.22319200  1
  S  S29  1  0.80865500  0.84071700  0.22319200  1
  S  S30  1  0.63460467  0.14198833  0.11014133  1
  S  S31  1  0.50738367  0.36539533  0.11014133  1
  S  S32  1  0.85801167  0.49261633  0.11014133  1
  S  S33  1  0.69872867  0.52467833  0.55652533  1
  S  S34  1  0.82594967  0.30127133  0.55652533  1
  S  S35  1  0.47532167  0.17405033  0.55652533  1
  S  S36  1  0.30127133  0.47532167  0.44347467  1
  S  S37  1  0.17405033  0.69872867  0.44347467  1
  S  S38  1  0.52467833  0.82594967  0.44347467  1
  S  S39  1  0.36539533  0.85801167  0.88985867  1
  S  S40  1  0.49261633  0.63460467  0.88985867  1
  S  S41  1  0.14198833  0.50738367  0.88985867  1
  O  O42  1  0.40846533  0.07351167  0.50130467  1
  O  O43  1  0.66504633  0.59153467  0.50130467  1
  O  O44  1  0.92648833  0.33495367  0.50130467  1
  O  O45  1  0.59153467  0.92648833  0.49869533  1
  O  O46  1  0.33495367  0.40846533  0.49869533  1
  O  O47  1  0.07351167  0.66504633  0.49869533  1
  O  O48  1  0.43160300  0.23916100  0.55335900  1
  O  O49  1  0.80755800  0.56839700  0.55335900  1
  O  O50  1  0.76083900  0.19244200  0.55335900  1
  O  O51  1  0.56839700  0.76083900  0.44664100  1
  O  O52  1  0.19244200  0.43160300  0.44664100  1
  O  O53  1  0.23916100  0.80755800  0.44664100  1
  O  O54  1  0.09874300  0.11207700  0.87897700  1
  O  O55  1  0.01333400  0.90125700  0.87897700  1
  O  O56  1  0.83865133  0.98927167  0.63672267  1
  O  O57  1  0.01072833  0.84937967  0.63672267  1
  O  O58  1  0.15062033  0.16134867  0.63672267  1
  O  O59  1  0.16134867  0.01072833  0.36327733  1
  O  O60  1  0.98927167  0.15062033  0.36327733  1
  O  O61  1  0.84937967  0.83865133  0.36327733  1
  O  O62  1  0.11207700  0.01333400  0.12102300  1
  O  O63  1  0.98666600  0.09874300  0.12102300  1
  O  O64  1  0.90125700  0.88792300  0.12102300  1
  O  O65  1  0.88792300  0.98666600  0.87897700  1
  O  O66  1  0.07513200  0.40684500  0.83463800  1
  O  O67  1  0.33171300  0.92486800  0.83463800  1
  O  O68  1  0.59315500  0.66828700  0.83463800  1
  O  O69  1  0.25820133  0.25982167  0.83202867  1
  O  O70  1  0.00162033  0.74179867  0.83202867  1
  O  O71  1  0.74017833  0.99837967  0.83202867  1
  O  O72  1  0.09826967  0.57249433  0.88669233  1
  O  O73  1  0.47422467  0.90173033  0.88669233  1
  O  O74  1  0.42750567  0.52577533  0.88669233  1
  O  O75  1  0.23506367  0.09417233  0.77997433  1
  O  O76  1  0.85910867  0.76493633  0.77997433  1
  O  O77  1  0.90582767  0.14089133  0.77997433  1
  O  O78  1  0.76540967  0.44541033  0.21231033  1
  O  O79  1  0.68000067  0.23459033  0.21231033  1
  O  O80  1  0.50531800  0.32260500  0.97005600  1
  O  O81  1  0.67739500  0.18271300  0.97005600  1
  O  O82  1  0.81728700  0.49468200  0.97005600  1
  O  O83  1  0.82801533  0.34406167  0.69661067  1
  O  O84  1  0.65593833  0.48395367  0.69661067  1
  O  O85  1  0.51604633  0.17198467  0.69661067  1
  O  O86  1  0.77874367  0.34666733  0.45435633  1
  O  O87  1  0.65333267  0.43207633  0.45435633  1
  O  O88  1  0.56792367  0.22125633  0.45435633  1
  O  O89  1  0.55458967  0.31999933  0.21231033  1
  O  O90  1  0.74179867  0.74017833  0.16797133  1
  O  O91  1  0.99837967  0.25820133  0.16797133  1
  O  O92  1  0.25982167  0.00162033  0.16797133  1
  O  O93  1  0.92486800  0.59315500  0.16536200  1
  O  O94  1  0.66828700  0.07513200  0.16536200  1
  O  O95  1  0.40684500  0.33171300  0.16536200  1
  O  O96  1  0.76493633  0.90582767  0.22002567  1
  O  O97  1  0.14089133  0.23506367  0.22002567  1
  O  O98  1  0.09417233  0.85910867  0.22002567  1
  O  O99  1  0.90173033  0.42750567  0.11330767  1
  O  O100  1  0.52577533  0.09826967  0.11330767  1
  O  O101  1  0.57249433  0.47422467  0.11330767  1
  O  O102  1  0.43207633  0.77874367  0.54564367  1
  O  O103  1  0.34666733  0.56792367  0.54564367  1
  O  O104  1  0.17198467  0.65593833  0.30338933  1
  O  O105  1  0.34406167  0.51604633  0.30338933  1
  O  O106  1  0.48395367  0.82801533  0.30338933  1
  O  O107  1  0.49468200  0.67739500  0.02994400  1
  O  O108  1  0.32260500  0.81728700  0.02994400  1
  O  O109  1  0.18271300  0.50531800  0.02994400  1
  O  O110  1  0.44541033  0.68000067  0.78768967  1
  O  O111  1  0.31999933  0.76540967  0.78768967  1
  O  O112  1  0.23459033  0.55458967  0.78768967  1
  O  O113  1  0.22125633  0.65333267  0.54564367  1
