# generated using pymatgen
data_KPrGeSe4
_symmetry_space_group_name_H-M   'P 1'
_cell_length_a   6.97772500
_cell_length_b   7.15458700
_cell_length_c   9.19580268
_cell_angle_alpha   90.00000000
_cell_angle_beta   107.60573368
_cell_angle_gamma   90.00000000
_symmetry_Int_Tables_number   1
_chemical_formula_structural   KPrGeSe4
_chemical_formula_sum   'K2 Pr2 Ge2 Se8'
_cell_volume   437.57656534
_cell_formula_units_Z   2
loop_
 _symmetry_equiv_pos_site_id
 _symmetry_equiv_pos_as_xyz
  1  'x, y, z'
loop_
 _atom_site_type_symbol
 _atom_site_label
 _atom_site_symmetry_multiplicity
 _atom_site_fract_x
 _atom_site_fract_y
 _atom_site_fract_z
 _atom_site_occupancy
  K  K0  1  0.25585600  0.50433000  0.06302200  1
  K  K1  1  0.74414400  0.00433000  0.93697800  1
  Pr  Pr2  1  0.22886100  0.49889500  0.55228900  1
  Pr  Pr3  1  0.77113900  0.99889500  0.44771100  1
  Ge  Ge4  1  0.22210700  0.03180300  0.32289300  1
  Ge  Ge5  1  0.77789300  0.53180300  0.67710700  1
  Se  Se6  1  0.01695400  0.75770900  0.28871800  1
  Se  Se7  1  0.97011500  0.27051900  0.27172100  1
  Se  Se8  1  0.57751600  0.53613600  0.84204300  1
  Se  Se9  1  0.42248400  0.03613600  0.15795700  1
  Se  Se10  1  0.42689800  0.09730700  0.57652100  1
  Se  Se11  1  0.57310200  0.59730700  0.42347900  1
  Se  Se12  1  0.02988500  0.77051900  0.72827900  1
  Se  Se13  1  0.98304600  0.25770900  0.71128200  1
