# generated using pymatgen
data_SrCu(Si2O5)2
_symmetry_space_group_name_H-M   'P 1'
_cell_length_a   7.44542900
_cell_length_b   7.44542900
_cell_length_c   15.92885200
_cell_angle_alpha   90.00000000
_cell_angle_beta   90.00000000
_cell_angle_gamma   90.00000000
_symmetry_Int_Tables_number   1
_chemical_formula_structural   SrCu(Si2O5)2
_chemical_formula_sum   'Sr4 Cu4 Si16 O40'
_cell_volume   883.00656029
_cell_formula_units_Z   4
loop_
 _symmetry_equiv_pos_site_id
 _symmetry_equiv_pos_as_xyz
  1  'x, y, z'
loop_
 _atom_site_type_symbol
 _atom_site_label
 _atom_site_symmetry_multiplicity
 _atom_site_fract_x
 _atom_site_fract_y
 _atom_site_fract_z
 _atom_site_occupancy
  Sr  Sr0  1  0.50000000  0.50000000  0.50000000  1
  Sr  Sr1  1  0.00000000  0.00000000  0.50000000  1
  Sr  Sr2  1  0.00000000  0.00000000  0.00000000  1
  Sr  Sr3  1  0.50000000  0.50000000  0.00000000  1
  Cu  Cu4  1  0.50000000  0.00000000  0.59034500  1
  Cu  Cu5  1  0.00000000  0.50000000  0.90965500  1
  Cu  Cu6  1  0.00000000  0.50000000  0.40965500  1
  Cu  Cu7  1  0.50000000  0.00000000  0.09034500  1
  Si  Si8  1  0.18022300  0.25763600  0.65137400  1
  Si  Si9  1  0.81977700  0.74236400  0.65137400  1
  Si  Si10  1  0.25763600  0.18022300  0.84862600  1
  Si  Si11  1  0.75763600  0.31977700  0.65137400  1
  Si  Si12  1  0.24236400  0.68022300  0.65137400  1
  Si  Si13  1  0.31977700  0.75763600  0.84862600  1
  Si  Si14  1  0.68022300  0.24236400  0.84862600  1
  Si  Si15  1  0.74236400  0.81977700  0.84862600  1
  Si  Si16  1  0.31977700  0.24236400  0.34862600  1
  Si  Si17  1  0.68022300  0.75763600  0.34862600  1
  Si  Si18  1  0.24236400  0.31977700  0.15137400  1
  Si  Si19  1  0.74236400  0.18022300  0.34862600  1
  Si  Si20  1  0.25763600  0.81977700  0.34862600  1
  Si  Si21  1  0.18022300  0.74236400  0.15137400  1
  Si  Si22  1  0.81977700  0.25763600  0.15137400  1
  Si  Si23  1  0.75763600  0.68022300  0.15137400  1
  O  O24  1  0.26399600  0.11381000  0.58715300  1
  O  O25  1  0.73600400  0.88619000  0.58715300  1
  O  O26  1  0.11381000  0.26399600  0.91284700  1
  O  O27  1  0.61381000  0.23600400  0.58715300  1
  O  O28  1  0.38619000  0.76399600  0.58715300  1
  O  O29  1  0.23600400  0.61381000  0.91284700  1
  O  O30  1  0.76399600  0.38619000  0.91284700  1
  O  O31  1  0.88619000  0.73600400  0.91284700  1
  O  O32  1  0.23600400  0.38619000  0.41284700  1
  O  O33  1  0.76399600  0.61381000  0.41284700  1
  O  O34  1  0.38619000  0.23600400  0.08715300  1
  O  O35  1  0.88619000  0.26399600  0.41284700  1
  O  O36  1  0.11381000  0.73600400  0.41284700  1
  O  O37  1  0.26399600  0.88619000  0.08715300  1
  O  O38  1  0.73600400  0.11381000  0.08715300  1
  O  O39  1  0.24868600  0.03748300  0.36859300  1
  O  O40  1  0.61381000  0.76399600  0.08715300  1
  O  O41  1  0.74868600  0.53748300  0.63140700  1
  O  O42  1  0.46251700  0.25131400  0.86859300  1
  O  O43  1  0.96251700  0.24868600  0.63140700  1
  O  O44  1  0.03748300  0.75131400  0.63140700  1
  O  O45  1  0.24868600  0.96251700  0.86859300  1
  O  O46  1  0.75131400  0.03748300  0.86859300  1
  O  O47  1  0.53748300  0.74868600  0.86859300  1
  O  O48  1  0.71530200  0.71530200  0.25000000  1
  O  O49  1  0.78469800  0.21530200  0.25000000  1
  O  O50  1  0.21530200  0.78469800  0.25000000  1
  O  O51  1  0.28469800  0.28469800  0.25000000  1
  O  O52  1  0.78469800  0.78469800  0.75000000  1
  O  O53  1  0.71530200  0.28469800  0.75000000  1
  O  O54  1  0.28469800  0.71530200  0.75000000  1
  O  O55  1  0.21530200  0.21530200  0.75000000  1
  O  O56  1  0.96251700  0.75131400  0.13140700  1
  O  O57  1  0.74868600  0.46251700  0.13140700  1
  O  O58  1  0.25131400  0.53748300  0.13140700  1
  O  O59  1  0.46251700  0.74868600  0.36859300  1
  O  O60  1  0.53748300  0.25131400  0.36859300  1
  O  O61  1  0.03748300  0.24868600  0.13140700  1
  O  O62  1  0.75131400  0.96251700  0.36859300  1
  O  O63  1  0.25131400  0.46251700  0.63140700  1
