# generated using pymatgen
data_Lu2Cu(B2O5)2
_symmetry_space_group_name_H-M   'P 1'
_cell_length_a   4.56130200
_cell_length_b   7.20626200
_cell_length_c   9.29799775
_cell_angle_alpha   90.00000000
_cell_angle_beta   90.08297356
_cell_angle_gamma   90.00000000
_symmetry_Int_Tables_number   1
_chemical_formula_structural   Lu2Cu(B2O5)2
_chemical_formula_sum   'Lu4 Cu2 B8 O20'
_cell_volume   305.62428233
_cell_formula_units_Z   2
loop_
 _symmetry_equiv_pos_site_id
 _symmetry_equiv_pos_as_xyz
  1  'x, y, z'
loop_
 _atom_site_type_symbol
 _atom_site_label
 _atom_site_symmetry_multiplicity
 _atom_site_fract_x
 _atom_site_fract_y
 _atom_site_fract_z
 _atom_site_occupancy
  Lu  Lu0  1  0.99813300  0.39794000  0.83599500  1
  Lu  Lu1  1  0.00186700  0.89794000  0.66400500  1
  Lu  Lu2  1  0.99813300  0.10206000  0.33599500  1
  Lu  Lu3  1  0.00186700  0.60206000  0.16400500  1
  Cu  Cu4  1  0.00000000  0.00000000  0.00000000  1
  Cu  Cu5  1  0.00000000  0.50000000  0.50000000  1
  B  B6  1  0.53871300  0.77044800  0.42138100  1
  B  B7  1  0.46128700  0.27044800  0.07861900  1
  B  B8  1  0.46128700  0.22955200  0.57861900  1
  B  B9  1  0.53871300  0.72955200  0.92138100  1
  B  B10  1  0.47114300  0.59764400  0.66453000  1
  B  B11  1  0.52885700  0.09764400  0.83547000  1
  B  B12  1  0.47114300  0.90235600  0.16453000  1
  B  B13  1  0.52885700  0.40235600  0.33547000  1
  O  O14  1  0.67802400  0.91018100  0.86112600  1
  O  O15  1  0.32197600  0.41018100  0.63887400  1
  O  O16  1  0.22685200  0.10874700  0.53981400  1
  O  O17  1  0.77314800  0.60874700  0.96018600  1
  O  O18  1  0.77314800  0.89125300  0.46018600  1
  O  O19  1  0.22685200  0.39125300  0.03981400  1
  O  O20  1  0.78751300  0.91038500  0.16861000  1
  O  O21  1  0.21248700  0.41038500  0.33139000  1
  O  O22  1  0.21248700  0.08961500  0.83139000  1
  O  O23  1  0.78751300  0.58961500  0.66861000  1
  O  O24  1  0.33878200  0.83814100  0.30360500  1
  O  O25  1  0.66121800  0.33814100  0.19639500  1
  O  O26  1  0.66121800  0.16185900  0.69639500  1
  O  O27  1  0.33878200  0.66185900  0.80360500  1
  O  O28  1  0.35722800  0.77577100  0.05069100  1
  O  O29  1  0.64277200  0.27577100  0.44930900  1
  O  O30  1  0.64277200  0.22422900  0.94930900  1
  O  O31  1  0.35722800  0.72422900  0.55069100  1
  O  O32  1  0.32197600  0.08981900  0.13887400  1
  O  O33  1  0.67802400  0.58981900  0.36112600  1
