# generated using pymatgen
data_Na3AuS2
_symmetry_space_group_name_H-M   'P 1'
_cell_length_a   7.71959758
_cell_length_b   7.71959758
_cell_length_c   16.77935723
_cell_angle_alpha   90.00000000
_cell_angle_beta   90.00000000
_cell_angle_gamma   120.00000000
_symmetry_Int_Tables_number   1
_chemical_formula_structural   Na3AuS2
_chemical_formula_sum   'Na18 Au6 S12'
_cell_volume   865.95490059
_cell_formula_units_Z   6
loop_
 _symmetry_equiv_pos_site_id
 _symmetry_equiv_pos_as_xyz
  1  'x, y, z'
loop_
 _atom_site_type_symbol
 _atom_site_label
 _atom_site_symmetry_multiplicity
 _atom_site_fract_x
 _atom_site_fract_y
 _atom_site_fract_z
 _atom_site_occupancy
  Na  Na0  1  0.95078167  0.33333333  0.08333333  1
  Na  Na1  1  0.38255167  0.04921833  0.08333333  1
  Na  Na2  1  0.66666667  0.61744833  0.08333333  1
  Na  Na3  1  0.71588500  0.00000000  0.25000000  1
  Na  Na4  1  0.28411500  0.28411500  0.25000000  1
  Na  Na5  1  0.00000000  0.71588500  0.25000000  1
  Na  Na6  1  0.61744833  0.66666667  0.41666667  1
  Na  Na7  1  0.04921833  0.38255167  0.41666667  1
  Na  Na8  1  0.33333333  0.95078167  0.41666667  1
  Na  Na9  1  0.38255167  0.33333333  0.58333333  1
  Na  Na10  1  0.95078167  0.61744833  0.58333333  1
  Na  Na11  1  0.66666667  0.04921833  0.58333333  1
  Na  Na12  1  0.28411500  0.00000000  0.75000000  1
  Na  Na13  1  0.71588500  0.71588500  0.75000000  1
  Na  Na14  1  0.00000000  0.28411500  0.75000000  1
  Na  Na15  1  0.04921833  0.66666667  0.91666667  1
  Na  Na16  1  0.61744833  0.95078167  0.91666667  1
  Na  Na17  1  0.33333333  0.38255167  0.91666667  1
  Au  Au18  1  0.00000000  0.00000000  0.00000000  1
  Au  Au19  1  0.33333333  0.66666667  0.16666667  1
  Au  Au20  1  0.66666667  0.33333333  0.33333333  1
  Au  Au21  1  0.00000000  0.00000000  0.50000000  1
  Au  Au22  1  0.33333333  0.66666667  0.66666667  1
  Au  Au23  1  0.66666667  0.33333333  0.83333333  1
  S  S24  1  0.33333333  0.66666667  0.80540967  1
  S  S25  1  0.33333333  0.66666667  0.02792367  1
  S  S26  1  0.33333333  0.66666667  0.30540967  1
  S  S27  1  0.33333333  0.66666667  0.52792367  1
  S  S28  1  0.00000000  0.00000000  0.13874300  1
  S  S29  1  1.00000000  0.00000000  0.36125700  1
  S  S30  1  0.00000000  0.00000000  0.63874300  1
  S  S31  1  0.00000000  0.00000000  0.86125700  1
  S  S32  1  0.66666667  0.33333333  0.47207633  1
  S  S33  1  0.66666667  0.33333333  0.69459033  1
  S  S34  1  0.66666667  0.33333333  0.97207633  1
  S  S35  1  0.66666667  0.33333333  0.19459033  1
