# generated using pymatgen
data_BaCaV2O7
_symmetry_space_group_name_H-M   'P 1'
_cell_length_a   5.87194300
_cell_length_b   7.61504600
_cell_length_c   15.71346700
_cell_angle_alpha   90.00000000
_cell_angle_beta   90.00000000
_cell_angle_gamma   90.00000000
_symmetry_Int_Tables_number   1
_chemical_formula_structural   BaCaV2O7
_chemical_formula_sum   'Ba4 Ca4 V8 O28'
_cell_volume   702.62950052
_cell_formula_units_Z   4
loop_
 _symmetry_equiv_pos_site_id
 _symmetry_equiv_pos_as_xyz
  1  'x, y, z'
loop_
 _atom_site_type_symbol
 _atom_site_label
 _atom_site_symmetry_multiplicity
 _atom_site_fract_x
 _atom_site_fract_y
 _atom_site_fract_z
 _atom_site_occupancy
  Ba  Ba0  1  0.25000000  0.36286700  0.78525700  1
  Ba  Ba1  1  0.75000000  0.63713300  0.21474300  1
  Ba  Ba2  1  0.75000000  0.86286700  0.71474300  1
  Ba  Ba3  1  0.25000000  0.13713300  0.28525700  1
  Ca  Ca4  1  0.25000000  0.11293100  0.55334400  1
  Ca  Ca5  1  0.25000000  0.38706900  0.05334400  1
  Ca  Ca6  1  0.75000000  0.61293100  0.94665600  1
  Ca  Ca7  1  0.75000000  0.88706900  0.44665600  1
  V  V8  1  0.75000000  0.16177600  0.14210200  1
  V  V9  1  0.25000000  0.80040400  0.06055500  1
  V  V10  1  0.75000000  0.33822400  0.64210200  1
  V  V11  1  0.25000000  0.66177600  0.35789800  1
  V  V12  1  0.75000000  0.30040400  0.43944500  1
  V  V13  1  0.25000000  0.69959600  0.56055500  1
  V  V14  1  0.75000000  0.19959600  0.93944500  1
  V  V15  1  0.25000000  0.83822400  0.85789800  1
  O  O16  1  0.25000000  0.91935000  0.15022300  1
  O  O17  1  0.75000000  0.08065000  0.84977700  1
  O  O18  1  0.75000000  0.41935000  0.34977700  1
  O  O19  1  0.25000000  0.58065000  0.65022300  1
  O  O20  1  0.98148900  0.34430900  0.94033600  1
  O  O21  1  0.48148900  0.65569100  0.05966400  1
  O  O22  1  0.01851100  0.84430900  0.55966400  1
  O  O23  1  0.51851100  0.15569100  0.44033600  1
  O  O24  1  0.01851100  0.65569100  0.05966400  1
  O  O25  1  0.51851100  0.34430900  0.94033600  1
  O  O26  1  0.98148900  0.15569100  0.44033600  1
  O  O27  1  0.48148900  0.84430900  0.55966400  1
  O  O28  1  0.25000000  0.93657400  0.96521000  1
  O  O29  1  0.75000000  0.06342600  0.03479000  1
  O  O30  1  0.75000000  0.43657400  0.53479000  1
  O  O31  1  0.25000000  0.56342600  0.46521000  1
  O  O32  1  0.48609800  0.79521500  0.34636400  1
  O  O33  1  0.98609800  0.20478500  0.65363600  1
  O  O34  1  0.51390200  0.29521500  0.15363600  1
  O  O35  1  0.01390200  0.70478500  0.84636400  1
  O  O36  1  0.51390200  0.20478500  0.65363600  1
  O  O37  1  0.01390200  0.79521500  0.34636400  1
  O  O38  1  0.48609800  0.70478500  0.84636400  1
  O  O39  1  0.98609800  0.29521500  0.15363600  1
  O  O40  1  0.25000000  0.51094100  0.27897700  1
  O  O41  1  0.75000000  0.48905900  0.72102300  1
  O  O42  1  0.75000000  0.01094100  0.22102300  1
  O  O43  1  0.25000000  0.98905900  0.77897700  1
