# generated using pymatgen
data_BaLi(B3O5)3
_symmetry_space_group_name_H-M   'P 1'
_cell_length_a   11.18619679
_cell_length_b   11.18619679
_cell_length_c   17.22922246
_cell_angle_alpha   90.00000000
_cell_angle_beta   90.00000000
_cell_angle_gamma   120.00000000
_symmetry_Int_Tables_number   1
_chemical_formula_structural   BaLi(B3O5)3
_chemical_formula_sum   'Ba6 Li6 B54 O90'
_cell_volume   1867.07266694
_cell_formula_units_Z   6
loop_
 _symmetry_equiv_pos_site_id
 _symmetry_equiv_pos_as_xyz
  1  'x, y, z'
loop_
 _atom_site_type_symbol
 _atom_site_label
 _atom_site_symmetry_multiplicity
 _atom_site_fract_x
 _atom_site_fract_y
 _atom_site_fract_z
 _atom_site_occupancy
  Ba  Ba0  1  0.33333333  0.66666667  0.16462904  1
  Ba  Ba1  1  0.33333333  0.66666667  0.66462904  1
  Ba  Ba2  1  0.00000000  0.00000000  0.49796237  1
  Ba  Ba3  1  0.00000000  0.00000000  0.99796237  1
  Ba  Ba4  1  0.66666667  0.33333333  0.83129570  1
  Ba  Ba5  1  0.66666667  0.33333333  0.33129570  1
  Li  Li6  1  0.33333333  0.66666667  0.91306022  1
  Li  Li7  1  0.33333333  0.66666667  0.41306022  1
  Li  Li8  1  0.00000000  0.00000000  0.24639355  1
  Li  Li9  1  0.00000000  0.00000000  0.74639355  1
  Li  Li10  1  0.66666667  0.33333333  0.57972688  1
  Li  Li11  1  0.66666667  0.33333333  0.07972688  1
  B  B12  1  0.59976904  0.06258348  0.14341293  1
  B  B13  1  0.00024874  0.43065940  0.24987538  1
  B  B14  1  0.66691540  0.90292267  0.08320872  1
  B  B15  1  0.23600726  0.33308460  0.08320872  1
  B  B16  1  0.12948110  0.39591681  0.97674626  1
  B  B17  1  0.26643571  0.87051890  0.97674626  1
  B  B18  1  0.60408319  0.73356429  0.97674626  1
  B  B19  1  0.56934060  0.56958933  0.24987538  1
  B  B20  1  0.93741652  0.53718557  0.14341293  1
  B  B21  1  0.46281443  0.40023096  0.14341293  1
  B  B22  1  0.72911715  0.79601916  0.18961685  1
  B  B23  1  0.06690201  0.27088285  0.18961685  1
  B  B24  1  0.20398084  0.93309799  0.18961685  1
  B  B25  1  0.53731417  0.93754952  0.35628352  1
  B  B26  1  0.40023534  0.46268583  0.35628352  1
  B  B27  1  0.06245048  0.59976466  0.35628352  1
  B  B28  1  0.43041067  0.99975126  0.24987538  1
  B  B29  1  0.09707733  0.76399274  0.08320872  1
  B  B30  1  0.26643571  0.39591681  0.47674626  1
  B  B31  1  0.66691540  0.76399274  0.58320872  1
  B  B32  1  0.33358207  0.23625600  0.41654205  1
  B  B33  1  0.90267393  0.66641793  0.41654205  1
  B  B34  1  0.79614777  0.72925014  0.31007959  1
  B  B35  1  0.93310238  0.20385223  0.31007959  1
  B  B36  1  0.27074986  0.06689762  0.31007959  1
  B  B37  1  0.23600726  0.90292267  0.58320872  1
  B  B38  1  0.60408319  0.87051890  0.47674626  1
  B  B39  1  0.12948110  0.73356429  0.47674626  1
  B  B40  1  0.39578382  0.12935249  0.52295018  1
  B  B41  1  0.73356868  0.60421618  0.52295018  1
  B  B42  1  0.87064751  0.26643132  0.52295018  1
  B  B43  1  0.20398084  0.27088285  0.68961685  1
  B  B44  1  0.06690201  0.79601916  0.68961685  1
  B  B45  1  0.72911715  0.93309799  0.68961685  1
  B  B46  1  0.09707733  0.33308460  0.58320872  1
  B  B47  1  0.76374400  0.09732607  0.41654205  1
  B  B48  1  0.93310238  0.72925014  0.81007959  1
  B  B49  1  0.33358207  0.09732607  0.91654205  1
  B  B50  1  0.00024874  0.56958933  0.74987538  1
  B  B51  1  0.56934060  0.99975126  0.74987538  1
  B  B52  1  0.46281443  0.06258348  0.64341293  1
  B  B53  1  0.59976904  0.53718557  0.64341293  1
  B  B54  1  0.93741652  0.40023096  0.64341293  1
  B  B55  1  0.90267393  0.23625600  0.91654205  1
  B  B56  1  0.27074986  0.20385223  0.81007959  1
  B  B57  1  0.79614777  0.06689762  0.81007959  1
  B  B58  1  0.06245048  0.46268583  0.85628352  1
  B  B59  1  0.40023534  0.93754952  0.85628352  1
  B  B60  1  0.53731417  0.59976466  0.85628352  1
  B  B61  1  0.87064751  0.60421618  0.02295018  1
  B  B62  1  0.73356868  0.12935249  0.02295018  1
  B  B63  1  0.39578382  0.26643132  0.02295018  1
  B  B64  1  0.76374400  0.66641793  0.91654205  1
  B  B65  1  0.43041067  0.43065940  0.74987538  1
  O  O66  1  0.55189941  0.10266528  0.20486598  1
  O  O67  1  0.55076587  0.44810059  0.20486598  1
  O  O68  1  0.34994699  0.41582175  0.13742941  1
  O  O69  1  0.58417825  0.93412524  0.13742941  1
  O  O70  1  0.89733472  0.44923413  0.20486598  1
  O  O71  1  0.39920809  0.08248842  0.30409608  1
  O  O72  1  0.91751158  0.31671968  0.30409608  1
  O  O73  1  0.68328032  0.60079191  0.30409608  1
  O  O74  1  0.11466096  0.23037989  0.12829901  1
  O  O75  1  0.76962011  0.88428108  0.12829901  1
  O  O76  1  0.11571892  0.88533904  0.12829901  1
  O  O77  1  0.44905226  0.89704655  0.29496567  1
  O  O78  1  0.10295345  0.55200570  0.29496567  1
  O  O79  1  0.44799430  0.55094774  0.29496567  1
  O  O80  1  0.56400139  0.78143392  0.03819931  1
  O  O81  1  0.21743254  0.43599861  0.03819931  1
  O  O82  1  0.60052933  0.68338718  0.19560049  1
  O  O83  1  0.08285786  0.39947067  0.19560049  1
  O  O84  1  0.31661282  0.91714214  0.19560049  1
  O  O85  1  0.98327948  0.73280401  0.02893383  1
  O  O86  1  0.74952452  0.01672052  0.02893383  1
  O  O87  1  0.26719599  0.25047548  0.02893383  1
  O  O88  1  0.15951213  0.49268109  0.91644798  1
  O  O89  1  0.33316897  0.84048787  0.91644798  1
  O  O90  1  0.50731891  0.66683103  0.91644798  1
  O  O91  1  0.50731891  0.84048787  0.41644798  1
  O  O92  1  0.33316897  0.49268109  0.41644798  1
  O  O93  1  0.15951213  0.66683103  0.41644798  1
  O  O94  1  0.06587476  0.65005301  0.13742941  1
  O  O95  1  0.21856608  0.78256746  0.03819931  1
  O  O96  1  0.21856608  0.43599861  0.53819931  1
  O  O97  1  0.21743254  0.78143392  0.53819931  1
  O  O98  1  0.01661366  0.74915508  0.47076274  1
  O  O99  1  0.25084492  0.26745857  0.47076274  1
  O  O100  1  0.56400139  0.78256746  0.53819931  1
  O  O101  1  0.06587476  0.41582175  0.63742941  1
  O  O102  1  0.58417825  0.65005301  0.63742941  1
  O  O103  1  0.34994699  0.93412524  0.63742941  1
  O  O104  1  0.78132763  0.56371322  0.46163234  1
  O  O105  1  0.43628678  0.21761441  0.46163234  1
  O  O106  1  0.78238559  0.21867237  0.46163234  1
  O  O107  1  0.11571892  0.23037989  0.62829901  1
  O  O108  1  0.76962011  0.88533904  0.62829901  1
  O  O109  1  0.11466096  0.88428108  0.62829901  1
  O  O110  1  0.23066805  0.11476726  0.37153265  1
  O  O111  1  0.88409920  0.76933195  0.37153265  1
  O  O112  1  0.26719599  0.01672052  0.52893383  1
  O  O113  1  0.74952452  0.73280401  0.52893383  1
  O  O114  1  0.98327948  0.25047548  0.52893383  1
  O  O115  1  0.64994615  0.06613734  0.36226716  1
  O  O116  1  0.41619119  0.35005385  0.36226716  1
  O  O117  1  0.93386266  0.58380881  0.36226716  1
  O  O118  1  0.82617879  0.82601443  0.24978132  1
  O  O119  1  0.99983563  0.17382121  0.24978132  1
  O  O120  1  0.17398557  0.00016437  0.24978132  1
  O  O121  1  0.17398557  0.17382121  0.74978132  1
  O  O122  1  0.99983563  0.82601443  0.74978132  1
  O  O123  1  0.82617879  0.00016437  0.74978132  1
  O  O124  1  0.73254143  0.98338634  0.47076274  1
  O  O125  1  0.88523274  0.11590080  0.37153265  1
  O  O126  1  0.88523274  0.76933195  0.87153265  1
  O  O127  1  0.88409920  0.11476726  0.87153265  1
  O  O128  1  0.68328032  0.08248842  0.80409608  1
  O  O129  1  0.91751158  0.60079191  0.80409608  1
  O  O130  1  0.23066805  0.11590080  0.87153265  1
  O  O131  1  0.73254143  0.74915508  0.97076274  1
  O  O132  1  0.25084492  0.98338634  0.97076274  1
  O  O133  1  0.01661366  0.26745857  0.97076274  1
  O  O134  1  0.44799430  0.89704655  0.79496567  1
  O  O135  1  0.10295345  0.55094774  0.79496567  1
  O  O136  1  0.44905226  0.55200570  0.79496567  1
  O  O137  1  0.78238559  0.56371322  0.96163234  1
  O  O138  1  0.43628678  0.21867237  0.96163234  1
  O  O139  1  0.78132763  0.21761441  0.96163234  1
  O  O140  1  0.89733472  0.44810059  0.70486598  1
  O  O141  1  0.55076587  0.10266528  0.70486598  1
  O  O142  1  0.93386266  0.35005385  0.86226716  1
  O  O143  1  0.41619119  0.06613734  0.86226716  1
  O  O144  1  0.64994615  0.58380881  0.86226716  1
  O  O145  1  0.31661282  0.39947067  0.69560049  1
  O  O146  1  0.08285786  0.68338718  0.69560049  1
  O  O147  1  0.60052933  0.91714214  0.69560049  1
  O  O148  1  0.49284546  0.15934776  0.58311465  1
  O  O149  1  0.66650230  0.50715454  0.58311465  1
  O  O150  1  0.84065224  0.33349770  0.58311465  1
  O  O151  1  0.84065224  0.50715454  0.08311465  1
  O  O152  1  0.66650230  0.15934776  0.08311465  1
  O  O153  1  0.49284546  0.33349770  0.08311465  1
  O  O154  1  0.39920809  0.31671968  0.80409608  1
  O  O155  1  0.55189941  0.44923413  0.70486598  1
