# generated using pymatgen
data_BaY2NiO5
_symmetry_space_group_name_H-M   'P 1'
_cell_length_a   3.80304591
_cell_length_b   5.81773960
_cell_length_c   11.45779120
_cell_angle_alpha   90.00000000
_cell_angle_beta   90.00000000
_cell_angle_gamma   90.00000000
_symmetry_Int_Tables_number   1
_chemical_formula_structural   BaY2NiO5
_chemical_formula_sum   'Ba2 Y4 Ni2 O10'
_cell_volume   253.50512918
_cell_formula_units_Z   2
loop_
 _symmetry_equiv_pos_site_id
 _symmetry_equiv_pos_as_xyz
  1  'x, y, z'
loop_
 _atom_site_type_symbol
 _atom_site_label
 _atom_site_symmetry_multiplicity
 _atom_site_fract_x
 _atom_site_fract_y
 _atom_site_fract_z
 _atom_site_occupancy
  Ba  Ba0  1  0.00000000  0.50000000  0.00000000  1
  Ba  Ba1  1  0.50000000  0.00000000  0.50000000  1
  Y  Y2  1  0.50000000  0.50000000  0.29666981  1
  Y  Y3  1  0.00000000  0.00000000  0.20333019  1
  Y  Y4  1  0.00000000  0.00000000  0.79666981  1
  Y  Y5  1  0.50000000  0.50000000  0.70333019  1
  Ni  Ni6  1  0.50000000  0.00000000  0.00000000  1
  Ni  Ni7  1  0.00000000  0.50000000  0.50000000  1
  O  O8  1  0.00000000  0.25944693  0.35063032  1
  O  O9  1  0.50000000  0.24055307  0.14936968  1
  O  O10  1  0.50000000  0.75944693  0.14936968  1
  O  O11  1  0.00000000  0.74055307  0.35063032  1
  O  O12  1  0.50000000  0.50000000  0.50000000  1
  O  O13  1  0.50000000  0.75944693  0.85063032  1
  O  O14  1  0.00000000  0.74055307  0.64936968  1
  O  O15  1  0.00000000  0.25944693  0.64936968  1
  O  O16  1  0.50000000  0.24055307  0.85063032  1
  O  O17  1  0.00000000  0.00000000  0.00000000  1
