# generated using pymatgen
data_Ba3Tm4O9
_symmetry_space_group_name_H-M   'P 1'
_cell_length_a   6.07462183
_cell_length_b   6.07462183
_cell_length_c   25.23474355
_cell_angle_alpha   90.00000000
_cell_angle_beta   90.00000000
_cell_angle_gamma   120.00000000
_symmetry_Int_Tables_number   1
_chemical_formula_structural   Ba3Tm4O9
_chemical_formula_sum   'Ba9 Tm12 O27'
_cell_volume   806.43249728
_cell_formula_units_Z   3
loop_
 _symmetry_equiv_pos_site_id
 _symmetry_equiv_pos_as_xyz
  1  'x, y, z'
loop_
 _atom_site_type_symbol
 _atom_site_label
 _atom_site_symmetry_multiplicity
 _atom_site_fract_x
 _atom_site_fract_y
 _atom_site_fract_z
 _atom_site_occupancy
  Ba  Ba0  1  0.00000000  0.00000000  0.00046100  1
  Ba  Ba1  1  0.66666667  0.33333333  0.16949433  1
  Ba  Ba2  1  0.33333333  0.66666667  0.08799867  1
  Ba  Ba3  1  0.66666667  0.33333333  0.33379433  1
  Ba  Ba4  1  0.33333333  0.66666667  0.50282767  1
  Ba  Ba5  1  0.00000000  0.00000000  0.42133200  1
  Ba  Ba6  1  0.33333333  0.66666667  0.66712767  1
  Ba  Ba7  1  0.00000000  0.00000000  0.83616100  1
  Ba  Ba8  1  0.66666667  0.33333333  0.75466533  1
  Tm  Tm9  1  0.33333333  0.66666667  0.24169067  1
  Tm  Tm10  1  0.00000000  0.00000000  0.13623100  1
  Tm  Tm11  1  0.00000000  0.00000000  0.26142900  1
  Tm  Tm12  1  0.66666667  0.33333333  0.03316533  1
  Tm  Tm13  1  0.00000000  0.00000000  0.57502400  1
  Tm  Tm14  1  0.66666667  0.33333333  0.46956433  1
  Tm  Tm15  1  0.66666667  0.33333333  0.59476233  1
  Tm  Tm16  1  0.33333333  0.66666667  0.36649867  1
  Tm  Tm17  1  0.66666667  0.33333333  0.90835733  1
  Tm  Tm18  1  0.33333333  0.66666667  0.80289767  1
  Tm  Tm19  1  0.33333333  0.66666667  0.92809567  1
  Tm  Tm20  1  0.00000000  0.00000000  0.69983200  1
  O  O21  1  0.22589233  0.34754767  0.30705567  1
  O  O22  1  0.12165533  0.77410767  0.30705567  1
  O  O23  1  0.65245233  0.87834467  0.30705567  1
  O  O24  1  0.20424133  0.32098767  0.19475967  1
  O  O25  1  0.11674633  0.79575867  0.19475967  1
  O  O26  1  0.67901233  0.88325367  0.19475967  1
  O  O27  1  0.88486033  0.21910567  0.08486167  1
  O  O28  1  0.78089433  0.66575467  0.08486167  1
  O  O29  1  0.33424533  0.11513967  0.08486167  1
  O  O30  1  0.89255900  0.68088100  0.64038900  1
  O  O31  1  0.78832200  0.10744100  0.64038900  1
  O  O32  1  0.31911900  0.21167800  0.64038900  1
  O  O33  1  0.87090800  0.65432100  0.52809300  1
  O  O34  1  0.78341300  0.12909200  0.52809300  1
  O  O35  1  0.34567900  0.21658700  0.52809300  1
  O  O36  1  0.55152700  0.55243900  0.41819500  1
  O  O37  1  0.44756100  0.99908800  0.41819500  1
  O  O38  1  0.00091200  0.44847300  0.41819500  1
  O  O39  1  0.55922567  0.01421433  0.97372233  1
  O  O40  1  0.45498867  0.44077433  0.97372233  1
  O  O41  1  0.98578567  0.54501133  0.97372233  1
  O  O42  1  0.53757467  0.98765433  0.86142633  1
  O  O43  1  0.45007967  0.46242533  0.86142633  1
  O  O44  1  0.01234567  0.54992033  0.86142633  1
  O  O45  1  0.21819367  0.88577233  0.75152833  1
  O  O46  1  0.11422767  0.33242133  0.75152833  1
  O  O47  1  0.66757867  0.78180633  0.75152833  1
