# generated using pymatgen
data_ZnS
_symmetry_space_group_name_H-M   'P 1'
_cell_length_a   3.85284590
_cell_length_b   3.85284590
_cell_length_c   47.26250423
_cell_angle_alpha   90.00000000
_cell_angle_beta   90.00000000
_cell_angle_gamma   120.00000000
_symmetry_Int_Tables_number   1
_chemical_formula_structural   ZnS
_chemical_formula_sum   'Zn15 S15'
_cell_volume   607.59003163
_cell_formula_units_Z   15
loop_
 _symmetry_equiv_pos_site_id
 _symmetry_equiv_pos_as_xyz
  1  'x, y, z'
loop_
 _atom_site_type_symbol
 _atom_site_label
 _atom_site_symmetry_multiplicity
 _atom_site_fract_x
 _atom_site_fract_y
 _atom_site_fract_z
 _atom_site_occupancy
  Zn  Zn0  1  0.66666667  0.33333333  0.06665433  1
  Zn  Zn1  1  0.00000000  0.00000000  0.13331600  1
  Zn  Zn2  1  0.33333333  0.66666667  0.19999367  1
  Zn  Zn3  1  0.00000000  0.00000000  0.26668000  1
  Zn  Zn4  1  0.66666667  0.33333333  0.33329033  1
  Zn  Zn5  1  0.33333333  0.66666667  0.39998767  1
  Zn  Zn6  1  0.66666667  0.33333333  0.46664933  1
  Zn  Zn7  1  0.00000000  0.00000000  0.53332700  1
  Zn  Zn8  1  0.66666667  0.33333333  0.60001333  1
  Zn  Zn9  1  0.33333333  0.66666667  0.66662367  1
  Zn  Zn10  1  0.00000000  0.00000000  0.73332100  1
  Zn  Zn11  1  0.33333333  0.66666667  0.79998267  1
  Zn  Zn12  1  0.66666667  0.33333333  0.86666033  1
  Zn  Zn13  1  0.33333333  0.66666667  0.93334667  1
  Zn  Zn14  1  0.00000000  0.00000000  0.99995700  1
  S  S15  1  0.66666667  0.33333333  0.01662133  1
  S  S16  1  0.00000000  0.00000000  0.08339300  1
  S  S17  1  0.33333333  0.66666667  0.14996567  1
  S  S18  1  0.00000000  0.00000000  0.21673500  1
  S  S19  1  0.66666667  0.33333333  0.28334433  1
  S  S20  1  0.33333333  0.66666667  0.34995467  1
  S  S21  1  0.66666667  0.33333333  0.41672633  1
  S  S22  1  0.00000000  0.00000000  0.48329900  1
  S  S23  1  0.66666667  0.33333333  0.55006833  1
  S  S24  1  0.33333333  0.66666667  0.61667767  1
  S  S25  1  0.00000000  0.00000000  0.68328800  1
  S  S26  1  0.33333333  0.66666667  0.75005967  1
  S  S27  1  0.66666667  0.33333333  0.81663233  1
  S  S28  1  0.33333333  0.66666667  0.88340167  1
  S  S29  1  0.00000000  0.00000000  0.95001100  1
