# generated using pymatgen
data_Ga2HgTe4
_symmetry_space_group_name_H-M   'P 1'
_cell_length_a   6.26607800
_cell_length_b   6.26607800
_cell_length_c   12.03063400
_cell_angle_alpha   90.00000000
_cell_angle_beta   90.00000000
_cell_angle_gamma   90.00000000
_symmetry_Int_Tables_number   1
_chemical_formula_structural   Ga2HgTe4
_chemical_formula_sum   'Ga4 Hg2 Te8'
_cell_volume   472.36760724
_cell_formula_units_Z   2
loop_
 _symmetry_equiv_pos_site_id
 _symmetry_equiv_pos_as_xyz
  1  'x, y, z'
loop_
 _atom_site_type_symbol
 _atom_site_label
 _atom_site_symmetry_multiplicity
 _atom_site_fract_x
 _atom_site_fract_y
 _atom_site_fract_z
 _atom_site_occupancy
  Ga  Ga0  1  0.50000000  0.50000000  0.00000000  1
  Ga  Ga1  1  0.50000000  0.00000000  0.25000000  1
  Ga  Ga2  1  0.00000000  0.00000000  0.50000000  1
  Ga  Ga3  1  0.00000000  0.50000000  0.75000000  1
  Hg  Hg4  1  0.00000000  0.00000000  0.00000000  1
  Hg  Hg5  1  0.50000000  0.50000000  0.50000000  1
  Te  Te6  1  0.77632100  0.24730600  0.36121900  1
  Te  Te7  1  0.74730600  0.72367900  0.13878100  1
  Te  Te8  1  0.25269400  0.27632100  0.13878100  1
  Te  Te9  1  0.22367900  0.75269400  0.36121900  1
  Te  Te10  1  0.27632100  0.74730600  0.86121900  1
  Te  Te11  1  0.24730600  0.22367900  0.63878100  1
  Te  Te12  1  0.75269400  0.77632100  0.63878100  1
  Te  Te13  1  0.72367900  0.25269400  0.86121900  1
