# generated using pymatgen
data_La4Si2Se3O7
_symmetry_space_group_name_H-M   'P 1'
_cell_length_a   12.35920400
_cell_length_b   12.35920400
_cell_length_c   14.79705000
_cell_angle_alpha   90.00000000
_cell_angle_beta   90.00000000
_cell_angle_gamma   90.00000000
_symmetry_Int_Tables_number   1
_chemical_formula_structural   La4Si2Se3O7
_chemical_formula_sum   'La32 Si16 Se24 O56'
_cell_volume   2260.24825573
_cell_formula_units_Z   8
loop_
 _symmetry_equiv_pos_site_id
 _symmetry_equiv_pos_as_xyz
  1  'x, y, z'
loop_
 _atom_site_type_symbol
 _atom_site_label
 _atom_site_symmetry_multiplicity
 _atom_site_fract_x
 _atom_site_fract_y
 _atom_site_fract_z
 _atom_site_occupancy
  La  La0  1  0.67215500  0.32784500  0.50000000  1
  La  La1  1  0.32784500  0.67215500  0.50000000  1
  La  La2  1  0.17215500  0.67215500  0.25000000  1
  La  La3  1  0.82784500  0.32784500  0.25000000  1
  La  La4  1  0.32784500  0.32784500  0.50000000  1
  La  La5  1  0.17215500  0.32784500  0.25000000  1
  La  La6  1  0.82784500  0.67215500  0.25000000  1
  La  La7  1  0.17215500  0.17215500  0.00000000  1
  La  La8  1  0.73997250  0.00000000  0.20930550  1
  La  La9  1  0.26002750  0.00000000  0.20930550  1
  La  La10  1  0.50000000  0.76002750  0.29069450  1
  La  La11  1  0.50000000  0.26002750  0.95930550  1
  La  La12  1  0.00000000  0.23997250  0.45930550  1
  La  La13  1  0.23997250  0.00000000  0.54069450  1
  La  La14  1  0.26002750  0.50000000  0.04069450  1
  La  La15  1  0.50000000  0.23997250  0.29069450  1
  La  La16  1  0.17215500  0.82784500  0.00000000  1
  La  La17  1  0.82784500  0.17215500  0.00000000  1
  La  La18  1  0.67215500  0.17215500  0.75000000  1
  La  La19  1  0.32784500  0.82784500  0.75000000  1
  La  La20  1  0.82784500  0.82784500  0.00000000  1
  La  La21  1  0.67215500  0.82784500  0.75000000  1
  La  La22  1  0.32784500  0.17215500  0.75000000  1
  La  La23  1  0.67215500  0.67215500  0.50000000  1
  La  La24  1  0.23997250  0.50000000  0.70930550  1
  La  La25  1  0.76002750  0.50000000  0.70930550  1
  La  La26  1  0.00000000  0.26002750  0.79069450  1
  La  La27  1  0.00000000  0.76002750  0.45930550  1
  La  La28  1  0.50000000  0.73997250  0.95930550  1
  La  La29  1  0.73997250  0.50000000  0.04069450  1
  La  La30  1  0.76002750  0.00000000  0.54069450  1
  La  La31  1  0.00000000  0.73997250  0.79069450  1
  Si  Si32  1  0.87665200  0.50000000  0.46926800  1
  Si  Si33  1  0.12334800  0.50000000  0.46926800  1
  Si  Si34  1  0.00000000  0.62334800  0.03073200  1
  Si  Si35  1  0.00000000  0.12334800  0.21926800  1
  Si  Si36  1  0.50000000  0.37665200  0.71926800  1
  Si  Si37  1  0.37665200  0.50000000  0.28073200  1
  Si  Si38  1  0.12334800  0.00000000  0.78073200  1
  Si  Si39  1  0.00000000  0.37665200  0.03073200  1
  Si  Si40  1  0.37665200  0.00000000  0.96926800  1
  Si  Si41  1  0.62334800  0.00000000  0.96926800  1
  Si  Si42  1  0.50000000  0.12334800  0.53073200  1
  Si  Si43  1  0.50000000  0.62334800  0.71926800  1
  Si  Si44  1  0.00000000  0.87665200  0.21926800  1
  Si  Si45  1  0.87665200  0.00000000  0.78073200  1
  Si  Si46  1  0.62334800  0.50000000  0.28073200  1
  Si  Si47  1  0.50000000  0.87665200  0.53073200  1
  Se  Se48  1  0.85340900  0.25000000  0.62500000  1
  Se  Se49  1  0.25000000  0.85340900  0.37500000  1
  Se  Se50  1  0.25000000  0.64659100  0.87500000  1
  Se  Se51  1  0.64659100  0.25000000  0.12500000  1
  Se  Se52  1  0.14659100  0.25000000  0.62500000  1
  Se  Se53  1  0.25000000  0.14659100  0.37500000  1
  Se  Se54  1  0.25000000  0.35340900  0.87500000  1
  Se  Se55  1  0.35340900  0.25000000  0.12500000  1
  Se  Se56  1  0.50000000  0.00000000  0.25000000  1
  Se  Se57  1  0.00000000  0.00000000  0.50000000  1
  Se  Se58  1  0.00000000  0.50000000  0.25000000  1
  Se  Se59  1  0.00000000  0.00000000  0.00000000  1
  Se  Se60  1  0.35340900  0.75000000  0.12500000  1
  Se  Se61  1  0.75000000  0.35340900  0.87500000  1
  Se  Se62  1  0.75000000  0.14659100  0.37500000  1
  Se  Se63  1  0.14659100  0.75000000  0.62500000  1
  Se  Se64  1  0.64659100  0.75000000  0.12500000  1
  Se  Se65  1  0.75000000  0.64659100  0.87500000  1
  Se  Se66  1  0.75000000  0.85340900  0.37500000  1
  Se  Se67  1  0.85340900  0.75000000  0.62500000  1
  Se  Se68  1  0.00000000  0.50000000  0.75000000  1
  Se  Se69  1  0.50000000  0.50000000  0.00000000  1
  Se  Se70  1  0.50000000  0.00000000  0.75000000  1
  Se  Se71  1  0.50000000  0.50000000  0.50000000  1
  O  O72  1  0.27671600  0.00000000  0.04505600  1
  O  O73  1  0.72328400  0.00000000  0.04505600  1
  O  O74  1  0.50000000  0.22328400  0.45494400  1
  O  O75  1  0.00000000  0.22328400  0.29505600  1
  O  O76  1  0.50000000  0.27671600  0.79505600  1
  O  O77  1  0.27671600  0.50000000  0.20494400  1
  O  O78  1  0.22328400  0.00000000  0.70494400  1
  O  O79  1  0.50000000  0.77671600  0.45494400  1
  O  O80  1  0.00000000  0.00000000  0.26383700  1
  O  O81  1  0.50000000  0.00000000  0.01383700  1
  O  O82  1  0.50000000  0.00000000  0.48616300  1
  O  O83  1  0.00000000  0.00000000  0.73616300  1
  O  O84  1  0.14011800  0.88356100  0.83301400  1
  O  O85  1  0.35988200  0.61643900  0.33301400  1
  O  O86  1  0.61643900  0.35988200  0.66698600  1
  O  O87  1  0.38356100  0.85988200  0.58301400  1
  O  O88  1  0.11643900  0.35988200  0.08301400  1
  O  O89  1  0.88356100  0.14011800  0.16698600  1
  O  O90  1  0.35988200  0.38356100  0.33301400  1
  O  O91  1  0.38356100  0.35988200  0.66698600  1
  O  O92  1  0.11643900  0.14011800  0.16698600  1
  O  O93  1  0.38356100  0.14011800  0.58301400  1
  O  O94  1  0.14011800  0.38356100  0.41698600  1
  O  O95  1  0.35988200  0.11643900  0.91698600  1
  O  O96  1  0.11643900  0.64011800  0.08301400  1
  O  O97  1  0.64011800  0.11643900  0.91698600  1
  O  O98  1  0.85988200  0.38356100  0.41698600  1
  O  O99  1  0.14011800  0.11643900  0.83301400  1
  O  O100  1  0.77671600  0.50000000  0.54505600  1
  O  O101  1  0.22328400  0.50000000  0.54505600  1
  O  O102  1  0.00000000  0.72328400  0.95494400  1
  O  O103  1  0.50000000  0.72328400  0.79505600  1
  O  O104  1  0.00000000  0.77671600  0.29505600  1
  O  O105  1  0.77671600  0.00000000  0.70494400  1
  O  O106  1  0.72328400  0.50000000  0.20494400  1
  O  O107  1  0.00000000  0.27671600  0.95494400  1
  O  O108  1  0.50000000  0.50000000  0.76383700  1
  O  O109  1  0.00000000  0.50000000  0.51383700  1
  O  O110  1  0.00000000  0.50000000  0.98616300  1
  O  O111  1  0.50000000  0.50000000  0.23616300  1
  O  O112  1  0.64011800  0.38356100  0.33301400  1
  O  O113  1  0.85988200  0.11643900  0.83301400  1
  O  O114  1  0.11643900  0.85988200  0.16698600  1
  O  O115  1  0.88356100  0.35988200  0.08301400  1
  O  O116  1  0.61643900  0.85988200  0.58301400  1
  O  O117  1  0.38356100  0.64011800  0.66698600  1
  O  O118  1  0.85988200  0.88356100  0.83301400  1
  O  O119  1  0.88356100  0.85988200  0.16698600  1
  O  O120  1  0.61643900  0.64011800  0.66698600  1
  O  O121  1  0.88356100  0.64011800  0.08301400  1
  O  O122  1  0.64011800  0.88356100  0.91698600  1
  O  O123  1  0.85988200  0.61643900  0.41698600  1
  O  O124  1  0.61643900  0.14011800  0.58301400  1
  O  O125  1  0.14011800  0.61643900  0.41698600  1
  O  O126  1  0.35988200  0.88356100  0.91698600  1
  O  O127  1  0.64011800  0.61643900  0.33301400  1
