# generated using pymatgen
data_Ga(PO3)3
_symmetry_space_group_name_H-M   'P 1'
_cell_length_a   13.21708400
_cell_length_b   19.22928600
_cell_length_c   9.47358079
_cell_angle_alpha   90.00000000
_cell_angle_beta   126.72193792
_cell_angle_gamma   90.00000000
_symmetry_Int_Tables_number   1
_chemical_formula_structural   Ga(PO3)3
_chemical_formula_sum   'Ga12 P36 O108'
_cell_volume   1929.93123796
_cell_formula_units_Z   12
loop_
 _symmetry_equiv_pos_site_id
 _symmetry_equiv_pos_as_xyz
  1  'x, y, z'
loop_
 _atom_site_type_symbol
 _atom_site_label
 _atom_site_symmetry_multiplicity
 _atom_site_fract_x
 _atom_site_fract_y
 _atom_site_fract_z
 _atom_site_occupancy
  Ga  Ga0  1  0.72896850  0.08829450  0.96530900  1
  Ga  Ga1  1  0.22896850  0.41170550  0.46530900  1
  Ga  Ga2  1  0.73117900  0.42038800  0.96873800  1
  Ga  Ga3  1  0.23117900  0.07961200  0.46873800  1
  Ga  Ga4  1  0.74813350  0.25530550  0.49835000  1
  Ga  Ga5  1  0.24813350  0.24469450  0.99835000  1
  Ga  Ga6  1  0.22896850  0.58829450  0.96530900  1
  Ga  Ga7  1  0.72896850  0.91170550  0.46530900  1
  Ga  Ga8  1  0.23117900  0.92038800  0.96873800  1
  Ga  Ga9  1  0.73117900  0.57961200  0.46873800  1
  Ga  Ga10  1  0.24813350  0.75530550  0.49835000  1
  Ga  Ga11  1  0.74813350  0.74469450  0.99835000  1
  P  P12  1  0.86514850  0.46913450  0.78894900  1
  P  P13  1  0.36514850  0.03086550  0.28894900  1
  P  P14  1  0.08787550  0.47196750  0.63139500  1
  P  P15  1  0.58787550  0.02803250  0.13139500  1
  P  P16  1  0.46666350  0.48168450  0.19611200  1
  P  P17  1  0.96666350  0.01831550  0.69611200  1
  P  P18  1  0.48040600  0.18463500  0.71560700  1
  P  P19  1  0.98040600  0.31536500  0.21560700  1
  P  P20  1  0.88024400  0.13732500  0.81097500  1
  P  P21  1  0.38024400  0.36267500  0.31097500  1
  P  P22  1  0.87700800  0.19885300  0.31365200  1
  P  P23  1  0.37700800  0.30114700  0.81365200  1
  P  P24  1  0.50345650  0.14678850  0.25429600  1
  P  P25  1  0.00345650  0.35321150  0.75429600  1
  P  P26  1  0.60195850  0.36388550  0.15646900  1
  P  P27  1  0.10195850  0.13611450  0.65646900  1
  P  P28  1  0.60333200  0.30459900  0.66314900  1
  P  P29  1  0.10333200  0.19540100  0.16314900  1
  P  P30  1  0.36514850  0.96913450  0.78894900  1
  P  P31  1  0.86514850  0.53086550  0.28894900  1
  P  P32  1  0.58787550  0.97196750  0.63139500  1
  P  P33  1  0.08787550  0.52803250  0.13139500  1
  P  P34  1  0.96666350  0.98168450  0.19611200  1
  P  P35  1  0.46666350  0.51831550  0.69611200  1
  P  P36  1  0.98040600  0.68463500  0.71560700  1
  P  P37  1  0.48040600  0.81536500  0.21560700  1
  P  P38  1  0.38024400  0.63732500  0.81097500  1
  P  P39  1  0.88024400  0.86267500  0.31097500  1
  P  P40  1  0.37700800  0.69885300  0.31365200  1
  P  P41  1  0.87700800  0.80114700  0.81365200  1
  P  P42  1  0.00345650  0.64678850  0.25429600  1
  P  P43  1  0.50345650  0.85321150  0.75429600  1
  P  P44  1  0.10195850  0.86388550  0.15646900  1
  P  P45  1  0.60195850  0.63611450  0.65646900  1
  P  P46  1  0.10333200  0.80459900  0.66314900  1
  P  P47  1  0.60333200  0.69540100  0.16314900  1
  O  O48  1  0.36960350  0.31155350  0.18317700  1
  O  O49  1  0.86960350  0.18844650  0.68317700  1
  O  O50  1  0.07876150  0.01818050  0.35024600  1
  O  O51  1  0.57876150  0.48181950  0.85024600  1
  O  O52  1  0.20316900  0.11008600  0.64296500  1
  O  O53  1  0.70316900  0.38991400  0.14296500  1
  O  O54  1  0.96303850  0.40672750  0.84331800  1
  O  O55  1  0.46303850  0.09327250  0.34331800  1
  O  O56  1  0.09963300  0.30659700  0.90095800  1
  O  O57  1  0.59963300  0.19340300  0.40095800  1
  O  O58  1  0.39928050  0.22784850  0.75842400  1
  O  O59  1  0.89928050  0.27215150  0.25842400  1
  O  O60  1  0.51213050  0.31113850  0.99888700  1
  O  O61  1  0.01213050  0.18886150  0.49888700  1
  O  O62  1  0.64344200  0.33022700  0.32593000  1
  O  O63  1  0.14344200  0.16977300  0.82593000  1
  O  O64  1  0.71406850  0.28733550  0.66321100  1
  O  O65  1  0.21406850  0.21266450  0.16321100  1
  O  O66  1  0.59883400  0.16009800  0.88716800  1
  O  O67  1  0.09883400  0.33990200  0.38716800  1
  O  O68  1  0.40011550  0.43864150  0.26436800  1
  O  O69  1  0.90011550  0.06135850  0.76436800  1
  O  O70  1  0.35335650  0.35604450  0.68509900  1
  O  O71  1  0.85335650  0.14395550  0.18509900  1
  O  O72  1  0.57569150  0.10097550  0.19969400  1
  O  O73  1  0.07569150  0.39902450  0.69969400  1
  O  O74  1  0.95068650  0.47705450  0.44602800  1
  O  O75  1  0.45068650  0.02294550  0.94602800  1
  O  O76  1  0.75668350  0.44726050  0.79063700  1
  O  O77  1  0.25668350  0.05273950  0.29063700  1
  O  O78  1  0.82986500  0.49959600  0.61892900  1
  O  O79  1  0.32986500  0.00040400  0.11892900  1
  O  O80  1  0.38939100  0.17795800  0.09020500  1
  O  O81  1  0.88939100  0.32204200  0.59020500  1
  O  O82  1  0.01459400  0.26165000  0.11907100  1
  O  O83  1  0.51459400  0.23835000  0.61907100  1
  O  O84  1  0.27627000  0.28986600  0.83877400  1
  O  O85  1  0.77627000  0.21013400  0.33877400  1
  O  O86  1  0.10706950  0.47085150  0.25229600  1
  O  O87  1  0.60706950  0.02914850  0.75229600  1
  O  O88  1  0.36546350  0.47698850  0.53960000  1
  O  O89  1  0.86546350  0.02301150  0.03960000  1
  O  O90  1  0.89250150  0.36787350  0.08079400  1
  O  O91  1  0.39250150  0.13212650  0.58079400  1
  O  O92  1  0.77380700  0.13658300  0.82675000  1
  O  O93  1  0.27380700  0.36341700  0.32675000  1
  O  O94  1  0.00570600  0.07435700  0.61151100  1
  O  O95  1  0.50570600  0.42564300  0.11151100  1
  O  O96  1  0.13414800  0.16201900  0.32825300  1
  O  O97  1  0.63414800  0.33798100  0.82825300  1
  O  O98  1  0.68569050  0.03606550  0.09961600  1
  O  O99  1  0.18569050  0.46393450  0.59961600  1
  O  O100  1  0.01196450  0.14560050  0.00055700  1
  O  O101  1  0.51196450  0.35439950  0.50055700  1
  O  O102  1  0.86960350  0.81155350  0.18317700  1
  O  O103  1  0.36960350  0.68844650  0.68317700  1
  O  O104  1  0.57876150  0.51818050  0.35024600  1
  O  O105  1  0.07876150  0.98181950  0.85024600  1
  O  O106  1  0.70316900  0.61008600  0.64296500  1
  O  O107  1  0.20316900  0.88991400  0.14296500  1
  O  O108  1  0.46303850  0.90672750  0.84331800  1
  O  O109  1  0.96303850  0.59327250  0.34331800  1
  O  O110  1  0.59963300  0.80659700  0.90095800  1
  O  O111  1  0.09963300  0.69340300  0.40095800  1
  O  O112  1  0.89928050  0.72784850  0.75842400  1
  O  O113  1  0.39928050  0.77215150  0.25842400  1
  O  O114  1  0.01213050  0.81113850  0.99888700  1
  O  O115  1  0.51213050  0.68886150  0.49888700  1
  O  O116  1  0.14344200  0.83022700  0.32593000  1
  O  O117  1  0.64344200  0.66977300  0.82593000  1
  O  O118  1  0.21406850  0.78733550  0.66321100  1
  O  O119  1  0.71406850  0.71266450  0.16321100  1
  O  O120  1  0.09883400  0.66009800  0.88716800  1
  O  O121  1  0.59883400  0.83990200  0.38716800  1
  O  O122  1  0.90011550  0.93864150  0.26436800  1
  O  O123  1  0.40011550  0.56135850  0.76436800  1
  O  O124  1  0.85335650  0.85604450  0.68509900  1
  O  O125  1  0.35335650  0.64395550  0.18509900  1
  O  O126  1  0.07569150  0.60097550  0.19969400  1
  O  O127  1  0.57569150  0.89902450  0.69969400  1
  O  O128  1  0.45068650  0.97705450  0.44602800  1
  O  O129  1  0.95068650  0.52294550  0.94602800  1
  O  O130  1  0.25668350  0.94726050  0.79063700  1
  O  O131  1  0.75668350  0.55273950  0.29063700  1
  O  O132  1  0.32986500  0.99959600  0.61892900  1
  O  O133  1  0.82986500  0.50040400  0.11892900  1
  O  O134  1  0.88939100  0.67795800  0.09020500  1
  O  O135  1  0.38939100  0.82204200  0.59020500  1
  O  O136  1  0.51459400  0.76165000  0.11907100  1
  O  O137  1  0.01459400  0.73835000  0.61907100  1
  O  O138  1  0.77627000  0.78986600  0.83877400  1
  O  O139  1  0.27627000  0.71013400  0.33877400  1
  O  O140  1  0.60706950  0.97085150  0.25229600  1
  O  O141  1  0.10706950  0.52914850  0.75229600  1
  O  O142  1  0.86546350  0.97698850  0.53960000  1
  O  O143  1  0.36546350  0.52301150  0.03960000  1
  O  O144  1  0.39250150  0.86787350  0.08079400  1
  O  O145  1  0.89250150  0.63212650  0.58079400  1
  O  O146  1  0.27380700  0.63658300  0.82675000  1
  O  O147  1  0.77380700  0.86341700  0.32675000  1
  O  O148  1  0.50570600  0.57435700  0.61151100  1
  O  O149  1  0.00570600  0.92564300  0.11151100  1
  O  O150  1  0.63414800  0.66201900  0.32825300  1
  O  O151  1  0.13414800  0.83798100  0.82825300  1
  O  O152  1  0.18569050  0.53606550  0.09961600  1
  O  O153  1  0.68569050  0.96393450  0.59961600  1
  O  O154  1  0.51196450  0.64560050  0.00055700  1
  O  O155  1  0.01196450  0.85439950  0.50055700  1
