# generated using pymatgen
data_Nd2NiO4
_symmetry_space_group_name_H-M   'P 1'
_cell_length_a   5.42217600
_cell_length_b   12.18425600
_cell_length_c   5.68211600
_cell_angle_alpha   90.00000000
_cell_angle_beta   90.00000000
_cell_angle_gamma   90.00000000
_symmetry_Int_Tables_number   1
_chemical_formula_structural   Nd2NiO4
_chemical_formula_sum   'Nd8 Ni4 O16'
_cell_volume   375.39001894
_cell_formula_units_Z   4
loop_
 _symmetry_equiv_pos_site_id
 _symmetry_equiv_pos_as_xyz
  1  'x, y, z'
loop_
 _atom_site_type_symbol
 _atom_site_label
 _atom_site_symmetry_multiplicity
 _atom_site_fract_x
 _atom_site_fract_y
 _atom_site_fract_z
 _atom_site_occupancy
  Nd  Nd0  1  0.50000000  0.63695200  0.48262700  1
  Nd  Nd1  1  0.50000000  0.86304800  0.98262700  1
  Nd  Nd2  1  0.00000000  0.63695200  0.01737300  1
  Nd  Nd3  1  0.00000000  0.86304800  0.51737300  1
  Nd  Nd4  1  0.00000000  0.13695200  0.48262700  1
  Nd  Nd5  1  0.00000000  0.36304800  0.98262700  1
  Nd  Nd6  1  0.50000000  0.13695200  0.01737300  1
  Nd  Nd7  1  0.50000000  0.36304800  0.51737300  1
  Ni  Ni8  1  0.00000000  0.00000000  0.00000000  1
  Ni  Ni9  1  0.50000000  0.00000000  0.50000000  1
  Ni  Ni10  1  0.50000000  0.50000000  0.00000000  1
  Ni  Ni11  1  0.00000000  0.50000000  0.50000000  1
  O  O12  1  0.75000000  0.97945700  0.25000000  1
  O  O13  1  0.50000000  0.67973500  0.07084600  1
  O  O14  1  0.25000000  0.52054300  0.75000000  1
  O  O15  1  0.50000000  0.82026500  0.57084600  1
  O  O16  1  0.25000000  0.97945700  0.25000000  1
  O  O17  1  0.00000000  0.82026500  0.92915400  1
  O  O18  1  0.75000000  0.52054300  0.75000000  1
  O  O19  1  0.00000000  0.67973500  0.42915400  1
  O  O20  1  0.25000000  0.47945700  0.25000000  1
  O  O21  1  0.00000000  0.17973500  0.07084600  1
  O  O22  1  0.75000000  0.02054300  0.75000000  1
  O  O23  1  0.00000000  0.32026500  0.57084600  1
  O  O24  1  0.75000000  0.47945700  0.25000000  1
  O  O25  1  0.50000000  0.32026500  0.92915400  1
  O  O26  1  0.25000000  0.02054300  0.75000000  1
  O  O27  1  0.50000000  0.17973500  0.42915400  1
