# generated using pymatgen
data_Dy4(SiS4)3
_symmetry_space_group_name_H-M   'P 1'
_cell_length_a   9.93735300
_cell_length_b   11.10975100
_cell_length_c   17.17991940
_cell_angle_alpha   90.00000000
_cell_angle_beta   110.51131724
_cell_angle_gamma   90.00000000
_symmetry_Int_Tables_number   1
_chemical_formula_structural   Dy4(SiS4)3
_chemical_formula_sum   'Dy16 Si12 S48'
_cell_volume   1776.44476219
_cell_formula_units_Z   4
loop_
 _symmetry_equiv_pos_site_id
 _symmetry_equiv_pos_as_xyz
  1  'x, y, z'
loop_
 _atom_site_type_symbol
 _atom_site_label
 _atom_site_symmetry_multiplicity
 _atom_site_fract_x
 _atom_site_fract_y
 _atom_site_fract_z
 _atom_site_occupancy
  Dy  Dy0  1  0.02937300  0.26294100  0.20920100  1
  Dy  Dy1  1  0.97062700  0.76294100  0.29079900  1
  Dy  Dy2  1  0.97062700  0.73705900  0.79079900  1
  Dy  Dy3  1  0.02937300  0.23705900  0.70920100  1
  Dy  Dy4  1  0.39176500  0.87221800  0.36489300  1
  Dy  Dy5  1  0.60823500  0.37221800  0.13510700  1
  Dy  Dy6  1  0.60823500  0.12778200  0.63510700  1
  Dy  Dy7  1  0.39176500  0.62778200  0.86489300  1
  Dy  Dy8  1  0.81403900  0.14948400  0.44081900  1
  Dy  Dy9  1  0.18596100  0.64948400  0.05918100  1
  Dy  Dy10  1  0.18596100  0.85051600  0.55918100  1
  Dy  Dy11  1  0.81403900  0.35051600  0.94081900  1
  Dy  Dy12  1  0.48259500  0.48142000  0.37442600  1
  Dy  Dy13  1  0.51740500  0.98142000  0.12557400  1
  Dy  Dy14  1  0.51740500  0.51858000  0.62557400  1
  Dy  Dy15  1  0.48259500  0.01858000  0.87442600  1
  Si  Si16  1  0.47427500  0.21408900  0.26693300  1
  Si  Si17  1  0.52572500  0.71408900  0.23306700  1
  Si  Si18  1  0.52572500  0.78591100  0.73306700  1
  Si  Si19  1  0.47427500  0.28591100  0.76693300  1
  Si  Si20  1  0.75579500  0.37969500  0.55913100  1
  Si  Si21  1  0.24420500  0.87969500  0.94086900  1
  Si  Si22  1  0.24420500  0.62030500  0.44086900  1
  Si  Si23  1  0.75579500  0.12030500  0.05913100  1
  Si  Si24  1  0.09940400  0.04866300  0.38078800  1
  Si  Si25  1  0.90059600  0.54866300  0.11921200  1
  Si  Si26  1  0.90059600  0.95133700  0.61921200  1
  Si  Si27  1  0.09940400  0.45133700  0.88078800  1
  S  S28  1  0.56423600  0.04167900  0.31386200  1
  S  S29  1  0.43576400  0.54167900  0.18613800  1
  S  S30  1  0.43576400  0.95832100  0.68613800  1
  S  S31  1  0.56423600  0.45832100  0.81386200  1
  S  S32  1  0.68267400  0.55475100  0.52573900  1
  S  S33  1  0.31732600  0.05475100  0.97426100  1
  S  S34  1  0.31732600  0.44524900  0.47426100  1
  S  S35  1  0.68267400  0.94524900  0.02573900  1
  S  S36  1  0.02028300  0.22551900  0.37094800  1
  S  S37  1  0.97971700  0.72551900  0.12905200  1
  S  S38  1  0.97971700  0.77448100  0.62905200  1
  S  S39  1  0.02028300  0.27448100  0.87094800  1
  S  S40  1  0.69459100  0.97923500  0.52695400  1
  S  S41  1  0.30540900  0.47923500  0.97304600  1
  S  S42  1  0.30540900  0.02076500  0.47304600  1
  S  S43  1  0.69459100  0.52076500  0.02695400  1
  S  S44  1  0.11690500  0.97221500  0.26973300  1
  S  S45  1  0.88309500  0.47221500  0.23026700  1
  S  S46  1  0.88309500  0.02778500  0.73026700  1
  S  S47  1  0.11690500  0.52778500  0.76973300  1
  S  S48  1  0.94497500  0.93497000  0.40705200  1
  S  S49  1  0.05502500  0.43497000  0.09294800  1
  S  S50  1  0.05502500  0.06503000  0.59294800  1
  S  S51  1  0.94497500  0.56503000  0.90705200  1
  S  S52  1  0.95667800  0.34028900  0.55143500  1
  S  S53  1  0.04332200  0.84028900  0.94856500  1
  S  S54  1  0.04332200  0.65971100  0.44856500  1
  S  S55  1  0.95667800  0.15971100  0.05143500  1
  S  S56  1  0.59500000  0.25793600  0.48621400  1
  S  S57  1  0.40500000  0.75793600  0.01378600  1
  S  S58  1  0.40500000  0.74206400  0.51378600  1
  S  S59  1  0.59500000  0.24206400  0.98621400  1
  S  S60  1  0.65652400  0.33377300  0.31367000  1
  S  S61  1  0.34347600  0.83377300  0.18633000  1
  S  S62  1  0.34347600  0.66622700  0.68633000  1
  S  S63  1  0.65652400  0.16622700  0.81367000  1
  S  S64  1  0.60315900  0.71026800  0.36422000  1
  S  S65  1  0.39684100  0.21026800  0.13578000  1
  S  S66  1  0.39684100  0.28973200  0.63578000  1
  S  S67  1  0.60315900  0.78973200  0.86422000  1
  S  S68  1  0.23442100  0.65220000  0.31586500  1
  S  S69  1  0.76557900  0.15220000  0.18413500  1
  S  S70  1  0.76557900  0.34780000  0.68413500  1
  S  S71  1  0.23442100  0.84780000  0.81586500  1
  S  S72  1  0.31018100  0.27935700  0.30795900  1
  S  S73  1  0.68981900  0.77935700  0.19204100  1
  S  S74  1  0.68981900  0.72064300  0.69204100  1
  S  S75  1  0.31018100  0.22064300  0.80795900  1
