# generated using pymatgen
data_Ba4LiCu(CO5)2
_symmetry_space_group_name_H-M   'P 1'
_cell_length_a   5.83662200
_cell_length_b   5.83662200
_cell_length_c   15.52185400
_cell_angle_alpha   90.00000000
_cell_angle_beta   90.00000000
_cell_angle_gamma   90.00000000
_symmetry_Int_Tables_number   1
_chemical_formula_structural   Ba4LiCu(CO5)2
_chemical_formula_sum   'Ba8 Li2 Cu2 C4 O20'
_cell_volume   528.76990553
_cell_formula_units_Z   2
loop_
 _symmetry_equiv_pos_site_id
 _symmetry_equiv_pos_as_xyz
  1  'x, y, z'
loop_
 _atom_site_type_symbol
 _atom_site_label
 _atom_site_symmetry_multiplicity
 _atom_site_fract_x
 _atom_site_fract_y
 _atom_site_fract_z
 _atom_site_occupancy
  Ba  Ba0  1  0.00000000  0.50000000  0.11748500  1
  Ba  Ba1  1  0.00000000  0.50000000  0.38251500  1
  Ba  Ba2  1  0.50000000  0.00000000  0.38251500  1
  Ba  Ba3  1  0.50000000  0.00000000  0.11748500  1
  Ba  Ba4  1  0.50000000  0.00000000  0.61748500  1
  Ba  Ba5  1  0.50000000  0.00000000  0.88251500  1
  Ba  Ba6  1  0.00000000  0.50000000  0.88251500  1
  Ba  Ba7  1  0.00000000  0.50000000  0.61748500  1
  Li  Li8  1  0.50000000  0.50000000  0.00000000  1
  Li  Li9  1  0.00000000  0.00000000  0.50000000  1
  Cu  Cu10  1  0.00000000  0.00000000  0.00000000  1
  Cu  Cu11  1  0.50000000  0.50000000  0.50000000  1
  C  C12  1  0.00000000  0.00000000  0.27159400  1
  C  C13  1  0.50000000  0.50000000  0.22840600  1
  C  C14  1  0.50000000  0.50000000  0.77159400  1
  C  C15  1  0.00000000  0.00000000  0.72840600  1
  O  O16  1  0.13764000  0.86236000  0.23149200  1
  O  O17  1  0.00000000  0.00000000  0.35646300  1
  O  O18  1  0.36236000  0.36236000  0.26850800  1
  O  O19  1  0.86236000  0.13764000  0.23149200  1
  O  O20  1  0.63764000  0.63764000  0.26850800  1
  O  O21  1  0.27213250  0.72786750  0.49807250  1
  O  O22  1  0.22786750  0.22786750  0.00192750  1
  O  O23  1  0.77213250  0.77213250  0.00192750  1
  O  O24  1  0.72786750  0.27213250  0.49807250  1
  O  O25  1  0.50000000  0.50000000  0.14353700  1
  O  O26  1  0.63764000  0.36236000  0.73149200  1
  O  O27  1  0.50000000  0.50000000  0.85646300  1
  O  O28  1  0.86236000  0.86236000  0.76850800  1
  O  O29  1  0.36236000  0.63764000  0.73149200  1
  O  O30  1  0.13764000  0.13764000  0.76850800  1
  O  O31  1  0.77213250  0.22786750  0.99807250  1
  O  O32  1  0.72786750  0.72786750  0.50192750  1
  O  O33  1  0.27213250  0.27213250  0.50192750  1
  O  O34  1  0.22786750  0.77213250  0.99807250  1
  O  O35  1  0.00000000  0.00000000  0.64353700  1
