# generated using pymatgen
data_Sr2CaMoO6
_symmetry_space_group_name_H-M   'P 1'
_cell_length_a   5.81094700
_cell_length_b   6.13299000
_cell_length_c   8.33586300
_cell_angle_alpha   90.00000000
_cell_angle_beta   90.00000000
_cell_angle_gamma   90.00000000
_symmetry_Int_Tables_number   1
_chemical_formula_structural   Sr2CaMoO6
_chemical_formula_sum   'Sr4 Ca2 Mo2 O12'
_cell_volume   297.07748549
_cell_formula_units_Z   2
loop_
 _symmetry_equiv_pos_site_id
 _symmetry_equiv_pos_as_xyz
  1  'x, y, z'
loop_
 _atom_site_type_symbol
 _atom_site_label
 _atom_site_symmetry_multiplicity
 _atom_site_fract_x
 _atom_site_fract_y
 _atom_site_fract_z
 _atom_site_occupancy
  Sr  Sr0  1  0.50000000  0.19684600  0.76849100  1
  Sr  Sr1  1  0.00000000  0.80315400  0.26849100  1
  Sr  Sr2  1  0.50000000  0.19684600  0.23150900  1
  Sr  Sr3  1  0.00000000  0.80315400  0.73150900  1
  Ca  Ca4  1  0.00000000  0.27833600  0.50000000  1
  Ca  Ca5  1  0.50000000  0.72166400  0.00000000  1
  Mo  Mo6  1  0.50000000  0.76467100  0.50000000  1
  Mo  Mo7  1  0.00000000  0.23532900  0.00000000  1
  O  O8  1  0.50000000  0.78223700  0.73243900  1
  O  O9  1  0.50000000  0.78223700  0.26756100  1
  O  O10  1  0.00000000  0.21776300  0.76756100  1
  O  O11  1  0.00000000  0.21776300  0.23243900  1
  O  O12  1  0.74694900  0.56245700  0.50000000  1
  O  O13  1  0.25305100  0.56245700  0.50000000  1
  O  O14  1  0.73150200  0.00632300  0.50000000  1
  O  O15  1  0.26849800  0.00632300  0.50000000  1
  O  O16  1  0.24694900  0.43754300  0.00000000  1
  O  O17  1  0.75305100  0.43754300  0.00000000  1
  O  O18  1  0.76849800  0.99367700  0.00000000  1
  O  O19  1  0.23150200  0.99367700  0.00000000  1
