# generated using pymatgen
data_K7Ta(SO4)6
_symmetry_space_group_name_H-M   'P 1'
_cell_length_a   15.44680859
_cell_length_b   15.44680859
_cell_length_c   9.46819285
_cell_angle_alpha   90.00000000
_cell_angle_beta   90.00000000
_cell_angle_gamma   120.00000000
_symmetry_Int_Tables_number   1
_chemical_formula_structural   K7Ta(SO4)6
_chemical_formula_sum   'K21 Ta3 S18 O72'
_cell_volume   1956.47929821
_cell_formula_units_Z   3
loop_
 _symmetry_equiv_pos_site_id
 _symmetry_equiv_pos_as_xyz
  1  'x, y, z'
loop_
 _atom_site_type_symbol
 _atom_site_label
 _atom_site_symmetry_multiplicity
 _atom_site_fract_x
 _atom_site_fract_y
 _atom_site_fract_z
 _atom_site_occupancy
  K  K0  1  0.00000000  0.00000000  0.50000000  1
  K  K1  1  0.77887433  0.71869367  0.38429467  1
  K  K2  1  0.28130633  0.06018067  0.38429467  1
  K  K3  1  0.93981933  0.22112567  0.38429467  1
  K  K4  1  0.22112567  0.28130633  0.61570533  1
  K  K5  1  0.71869367  0.93981933  0.61570533  1
  K  K6  1  0.06018067  0.77887433  0.61570533  1
  K  K7  1  0.66666667  0.33333333  0.83333333  1
  K  K8  1  0.44554100  0.05202700  0.71762800  1
  K  K9  1  0.94797300  0.39351400  0.71762800  1
  K  K10  1  0.60648600  0.55445900  0.71762800  1
  K  K11  1  0.88779233  0.61463967  0.94903867  1
  K  K12  1  0.38536033  0.27315267  0.94903867  1
  K  K13  1  0.72684733  0.11220767  0.94903867  1
  K  K14  1  0.33333333  0.66666667  0.16666667  1
  K  K15  1  0.11220767  0.38536033  0.05096133  1
  K  K16  1  0.61463967  0.72684733  0.05096133  1
  K  K17  1  0.27315267  0.88779233  0.05096133  1
  K  K18  1  0.55445900  0.94797300  0.28237200  1
  K  K19  1  0.05202700  0.60648600  0.28237200  1
  K  K20  1  0.39351400  0.44554100  0.28237200  1
  Ta  Ta21  1  0.00000000  0.00000000  0.00000000  1
  Ta  Ta22  1  0.66666667  0.33333333  0.33333333  1
  Ta  Ta23  1  0.33333333  0.66666667  0.66666667  1
  S  S24  1  0.80919567  0.96825433  0.22230933  1
  S  S25  1  0.03174567  0.84094133  0.22230933  1
  S  S26  1  0.15905867  0.19080433  0.22230933  1
  S  S27  1  0.19080433  0.03174567  0.77769067  1
  S  S28  1  0.96825433  0.15905867  0.77769067  1
  S  S29  1  0.84094133  0.80919567  0.77769067  1
  S  S30  1  0.47586233  0.30158767  0.55564267  1
  S  S31  1  0.69841233  0.17427467  0.55564267  1
  S  S32  1  0.82572533  0.52413767  0.55564267  1
  S  S33  1  0.85747100  0.36507900  0.11102400  1
  S  S34  1  0.63492100  0.49239200  0.11102400  1
  S  S35  1  0.50760800  0.14252900  0.11102400  1
  S  S36  1  0.14252900  0.63492100  0.88897600  1
  S  S37  1  0.36507900  0.50760800  0.88897600  1
  S  S38  1  0.49239200  0.85747100  0.88897600  1
  S  S39  1  0.52413767  0.69841233  0.44435733  1
  S  S40  1  0.30158767  0.82572533  0.44435733  1
  S  S41  1  0.17427467  0.47586233  0.44435733  1
  O  O42  1  0.07378933  0.40938967  0.50009967  1
  O  O43  1  0.59061033  0.66439967  0.50009967  1
  O  O44  1  0.33560033  0.92621067  0.50009967  1
  O  O45  1  0.92621067  0.59061033  0.49990033  1
  O  O46  1  0.40938967  0.33560033  0.49990033  1
  O  O47  1  0.66439967  0.07378933  0.49990033  1
  O  O48  1  0.23903133  0.43170867  0.44692567  1
  O  O49  1  0.56829133  0.80732267  0.44692567  1
  O  O50  1  0.19267733  0.76096867  0.44692567  1
  O  O51  1  0.76096867  0.56829133  0.55307433  1
  O  O52  1  0.43170867  0.19267733  0.55307433  1
  O  O53  1  0.80732267  0.23903133  0.55307433  1
  O  O54  1  0.11105833  0.09807467  0.12008467  1
  O  O55  1  0.90192533  0.01298367  0.12008467  1
  O  O56  1  0.98865700  0.83874900  0.36229500  1
  O  O57  1  0.85009200  0.01134300  0.36229500  1
  O  O58  1  0.16125100  0.14990800  0.36229500  1
  O  O59  1  0.01134300  0.16125100  0.63770500  1
  O  O60  1  0.14990800  0.98865700  0.63770500  1
  O  O61  1  0.83874900  0.85009200  0.63770500  1
  O  O62  1  0.01298367  0.11105833  0.87991533  1
  O  O63  1  0.09807467  0.98701633  0.87991533  1
  O  O64  1  0.88894167  0.90192533  0.87991533  1
  O  O65  1  0.98701633  0.88894167  0.12008467  1
  O  O66  1  0.74045600  0.74272300  0.83343300  1
  O  O67  1  0.25727700  0.99773300  0.83343300  1
  O  O68  1  0.00226700  0.25954400  0.83343300  1
  O  O69  1  0.59287733  0.92394367  0.83323367  1
  O  O70  1  0.07605633  0.66893367  0.83323367  1
  O  O71  1  0.33106633  0.40712267  0.83323367  1
  O  O72  1  0.90569800  0.76504200  0.78025900  1
  O  O73  1  0.23495800  0.14065600  0.78025900  1
  O  O74  1  0.85934400  0.09430200  0.78025900  1
  O  O75  1  0.42763533  0.90162467  0.88640767  1
  O  O76  1  0.09837533  0.52601067  0.88640767  1
  O  O77  1  0.47398933  0.57236467  0.88640767  1
  O  O78  1  0.77772500  0.43140800  0.45341800  1
  O  O79  1  0.56859200  0.34631700  0.45341800  1
  O  O80  1  0.65532367  0.17208233  0.69562833  1
  O  O81  1  0.51675867  0.34467633  0.69562833  1
  O  O82  1  0.82791767  0.48324133  0.69562833  1
  O  O83  1  0.67800967  0.49458433  0.97103833  1
  O  O84  1  0.81657467  0.32199033  0.97103833  1
  O  O85  1  0.50541567  0.18342533  0.97103833  1
  O  O86  1  0.67965033  0.44439167  0.21324867  1
  O  O87  1  0.76474133  0.32034967  0.21324867  1
  O  O88  1  0.55560833  0.23525867  0.21324867  1
  O  O89  1  0.65368300  0.22227500  0.45341800  1
  O  O90  1  0.40712267  0.07605633  0.16676633  1
  O  O91  1  0.92394367  0.33106633  0.16676633  1
  O  O92  1  0.66893367  0.59287733  0.16676633  1
  O  O93  1  0.25954400  0.25727700  0.16656700  1
  O  O94  1  0.74272300  0.00226700  0.16656700  1
  O  O95  1  0.99773300  0.74045600  0.16656700  1
  O  O96  1  0.57236467  0.09837533  0.11359233  1
  O  O97  1  0.90162467  0.47398933  0.11359233  1
  O  O98  1  0.52601067  0.42763533  0.11359233  1
  O  O99  1  0.09430200  0.23495800  0.21974100  1
  O  O100  1  0.76504200  0.85934400  0.21974100  1
  O  O101  1  0.14065600  0.90569800  0.21974100  1
  O  O102  1  0.44439167  0.76474133  0.78675133  1
  O  O103  1  0.23525867  0.67965033  0.78675133  1
  O  O104  1  0.32199033  0.50541567  0.02896167  1
  O  O105  1  0.18342533  0.67800967  0.02896167  1
  O  O106  1  0.49458433  0.81657467  0.02896167  1
  O  O107  1  0.34467633  0.82791767  0.30437167  1
  O  O108  1  0.48324133  0.65532367  0.30437167  1
  O  O109  1  0.17208233  0.51675867  0.30437167  1
  O  O110  1  0.34631700  0.77772500  0.54658200  1
  O  O111  1  0.43140800  0.65368300  0.54658200  1
  O  O112  1  0.22227500  0.56859200  0.54658200  1
  O  O113  1  0.32034967  0.55560833  0.78675133  1
