# generated using pymatgen
data_Rb2SrP2O7
_symmetry_space_group_name_H-M   'P 1'
_cell_length_a   10.41584200
_cell_length_b   5.95934800
_cell_length_c   13.70841984
_cell_angle_alpha   90.00000000
_cell_angle_beta   106.76925218
_cell_angle_gamma   90.00000000
_symmetry_Int_Tables_number   1
_chemical_formula_structural   Rb2SrP2O7
_chemical_formula_sum   'Rb8 Sr4 P8 O28'
_cell_volume   814.71878397
_cell_formula_units_Z   4
loop_
 _symmetry_equiv_pos_site_id
 _symmetry_equiv_pos_as_xyz
  1  'x, y, z'
loop_
 _atom_site_type_symbol
 _atom_site_label
 _atom_site_symmetry_multiplicity
 _atom_site_fract_x
 _atom_site_fract_y
 _atom_site_fract_z
 _atom_site_occupancy
  Rb  Rb0  1  0.64728950  0.77949650  0.66433100  1
  Rb  Rb1  1  0.85271050  0.27949650  0.83566900  1
  Rb  Rb2  1  0.35271050  0.22050350  0.33566900  1
  Rb  Rb3  1  0.14728950  0.72050350  0.16433100  1
  Rb  Rb4  1  0.14728950  0.27949650  0.66433100  1
  Rb  Rb5  1  0.35271050  0.77949650  0.83566900  1
  Rb  Rb6  1  0.85271050  0.72050350  0.33566900  1
  Rb  Rb7  1  0.64728950  0.22050350  0.16433100  1
  Sr  Sr8  1  0.25000000  0.75000000  0.50000000  1
  Sr  Sr9  1  0.25000000  0.25000000  0.00000000  1
  Sr  Sr10  1  0.75000000  0.25000000  0.50000000  1
  Sr  Sr11  1  0.75000000  0.75000000  0.00000000  1
  P  P12  1  0.52719650  0.72736250  0.36478500  1
  P  P13  1  0.47280350  0.72736250  0.13521500  1
  P  P14  1  0.47280350  0.27263750  0.63521500  1
  P  P15  1  0.52719650  0.27263750  0.86478500  1
  P  P16  1  0.02719650  0.22736250  0.36478500  1
  P  P17  1  0.97280350  0.22736250  0.13521500  1
  P  P18  1  0.97280350  0.77263750  0.63521500  1
  P  P19  1  0.02719650  0.77263750  0.86478500  1
  O  O20  1  0.50000000  0.83937100  0.25000000  1
  O  O21  1  0.50000000  0.16062900  0.75000000  1
  O  O22  1  0.60997200  0.90986100  0.43296500  1
  O  O23  1  0.39002800  0.90986100  0.06703500  1
  O  O24  1  0.39002800  0.09013900  0.56703500  1
  O  O25  1  0.60997200  0.09013900  0.93296500  1
  O  O26  1  0.60162150  0.50462950  0.36638100  1
  O  O27  1  0.39837850  0.50462950  0.13361900  1
  O  O28  1  0.39837850  0.49537050  0.63361900  1
  O  O29  1  0.60162150  0.49537050  0.86638100  1
  O  O30  1  0.88630200  0.80315500  0.87764500  1
  O  O31  1  0.61369800  0.30315500  0.62235500  1
  O  O32  1  0.11369800  0.19684500  0.12235500  1
  O  O33  1  0.38630200  0.69684500  0.37764500  1
  O  O34  1  0.00000000  0.33937100  0.25000000  1
  O  O35  1  0.00000000  0.66062900  0.75000000  1
  O  O36  1  0.10997200  0.40986100  0.43296500  1
  O  O37  1  0.89002800  0.40986100  0.06703500  1
  O  O38  1  0.89002800  0.59013900  0.56703500  1
  O  O39  1  0.10997200  0.59013900  0.93296500  1
  O  O40  1  0.10162150  0.00462950  0.36638100  1
  O  O41  1  0.89837850  0.00462950  0.13361900  1
  O  O42  1  0.89837850  0.99537050  0.63361900  1
  O  O43  1  0.10162150  0.99537050  0.86638100  1
  O  O44  1  0.38630200  0.30315500  0.87764500  1
  O  O45  1  0.11369800  0.80315500  0.62235500  1
  O  O46  1  0.61369800  0.69684500  0.12235500  1
  O  O47  1  0.88630200  0.19684500  0.37764500  1
