# generated using pymatgen
data_Rb9Fe2S7
_symmetry_space_group_name_H-M   'P 1'
_cell_length_a   13.27098700
_cell_length_b   13.27098700
_cell_length_c   13.27098700
_cell_angle_alpha   90.00000000
_cell_angle_beta   90.00000000
_cell_angle_gamma   90.00000000
_symmetry_Int_Tables_number   1
_chemical_formula_structural   Rb9Fe2S7
_chemical_formula_sum   'Rb36 Fe8 S28'
_cell_volume   2337.27423286
_cell_formula_units_Z   4
loop_
 _symmetry_equiv_pos_site_id
 _symmetry_equiv_pos_as_xyz
  1  'x, y, z'
loop_
 _atom_site_type_symbol
 _atom_site_label
 _atom_site_symmetry_multiplicity
 _atom_site_fract_x
 _atom_site_fract_y
 _atom_site_fract_z
 _atom_site_occupancy
  Rb  Rb0  1  0.95655000  0.29042400  0.32418400  1
  Rb  Rb1  1  0.55811400  0.44188600  0.94188600  1
  Rb  Rb2  1  0.44188600  0.94188600  0.55811400  1
  Rb  Rb3  1  0.05811400  0.05811400  0.05811400  1
  Rb  Rb4  1  0.76443700  0.73556300  0.26443700  1
  Rb  Rb5  1  0.73556300  0.26443700  0.76443700  1
  Rb  Rb6  1  0.26443700  0.76443700  0.73556300  1
  Rb  Rb7  1  0.23556300  0.23556300  0.23556300  1
  Rb  Rb8  1  0.58609400  0.91390600  0.08609400  1
  Rb  Rb9  1  0.91390600  0.08609400  0.58609400  1
  Rb  Rb10  1  0.08609400  0.58609400  0.91390600  1
  Rb  Rb11  1  0.41390600  0.41390600  0.41390600  1
  Rb  Rb12  1  0.32418400  0.95655000  0.29042400  1
  Rb  Rb13  1  0.82418400  0.54345000  0.70957600  1
  Rb  Rb14  1  0.67581600  0.45655000  0.20957600  1
  Rb  Rb15  1  0.54345000  0.70957600  0.82418400  1
  Rb  Rb16  1  0.20957600  0.67581600  0.45655000  1
  Rb  Rb17  1  0.70957600  0.82418400  0.54345000  1
  Rb  Rb18  1  0.94188600  0.55811400  0.44188600  1
  Rb  Rb19  1  0.29042400  0.32418400  0.95655000  1
  Rb  Rb20  1  0.45655000  0.20957600  0.67581600  1
  Rb  Rb21  1  0.04345000  0.79042400  0.17581600  1
  Rb  Rb22  1  0.79042400  0.17581600  0.04345000  1
  Rb  Rb23  1  0.17581600  0.04345000  0.79042400  1
  Rb  Rb24  1  0.66630300  0.99910200  0.79780000  1
  Rb  Rb25  1  0.16630300  0.50089800  0.20220000  1
  Rb  Rb26  1  0.33369700  0.49910200  0.70220000  1
  Rb  Rb27  1  0.50089800  0.20220000  0.16630300  1
  Rb  Rb28  1  0.70220000  0.33369700  0.49910200  1
  Rb  Rb29  1  0.20220000  0.16630300  0.50089800  1
  Rb  Rb30  1  0.99910200  0.79780000  0.66630300  1
  Rb  Rb31  1  0.79780000  0.66630300  0.99910200  1
  Rb  Rb32  1  0.49910200  0.70220000  0.33369700  1
  Rb  Rb33  1  0.00089800  0.29780000  0.83369700  1
  Rb  Rb34  1  0.29780000  0.83369700  0.00089800  1
  Rb  Rb35  1  0.83369700  0.00089800  0.29780000  1
  Fe  Fe36  1  0.09939200  0.40060800  0.59939200  1
  Fe  Fe37  1  0.40060800  0.59939200  0.09939200  1
  Fe  Fe38  1  0.59939200  0.09939200  0.40060800  1
  Fe  Fe39  1  0.90060800  0.90060800  0.90060800  1
  Fe  Fe40  1  0.42757600  0.07242400  0.92757600  1
  Fe  Fe41  1  0.07242400  0.92757600  0.42757600  1
  Fe  Fe42  1  0.92757600  0.42757600  0.07242400  1
  Fe  Fe43  1  0.57242400  0.57242400  0.57242400  1
  S  S44  1  0.20202000  0.29798000  0.70202000  1
  S  S45  1  0.29798000  0.70202000  0.20202000  1
  S  S46  1  0.70202000  0.20202000  0.29798000  1
  S  S47  1  0.79798000  0.79798000  0.79798000  1
  S  S48  1  0.42145800  0.94796400  0.81324200  1
  S  S49  1  0.92145800  0.55203600  0.18675800  1
  S  S50  1  0.57854200  0.44796400  0.68675800  1
  S  S51  1  0.55203600  0.18675800  0.92145800  1
  S  S52  1  0.68675800  0.57854200  0.44796400  1
  S  S53  1  0.18675800  0.92145800  0.55203600  1
  S  S54  1  0.94796400  0.81324200  0.42145800  1
  S  S55  1  0.81324200  0.42145800  0.94796400  1
  S  S56  1  0.44796400  0.68675800  0.57854200  1
  S  S57  1  0.05203600  0.31324200  0.07854200  1
  S  S58  1  0.31324200  0.07854200  0.05203600  1
  S  S59  1  0.07854200  0.05203600  0.31324200  1
  S  S60  1  0.58877200  0.93701500  0.33693300  1
  S  S61  1  0.08877200  0.56298500  0.66306700  1
  S  S62  1  0.91122800  0.06298500  0.83693300  1
  S  S63  1  0.56298500  0.66306700  0.08877200  1
  S  S64  1  0.16306700  0.41122800  0.43701500  1
  S  S65  1  0.66306700  0.08877200  0.56298500  1
  S  S66  1  0.93701500  0.33693300  0.58877200  1
  S  S67  1  0.33693300  0.58877200  0.93701500  1
  S  S68  1  0.43701500  0.16306700  0.41122800  1
  S  S69  1  0.06298500  0.83693300  0.91122800  1
  S  S70  1  0.83693300  0.91122800  0.06298500  1
  S  S71  1  0.41122800  0.43701500  0.16306700  1
