# generated using pymatgen
data_BaPr2NiO5
_symmetry_space_group_name_H-M   'P 1'
_cell_length_a   3.87899935
_cell_length_b   6.02595396
_cell_length_c   11.89008360
_cell_angle_alpha   90.00000000
_cell_angle_beta   90.00000000
_cell_angle_gamma   90.00000000
_symmetry_Int_Tables_number   1
_chemical_formula_structural   BaPr2NiO5
_chemical_formula_sum   'Ba2 Pr4 Ni2 O10'
_cell_volume   277.92679773
_cell_formula_units_Z   2
loop_
 _symmetry_equiv_pos_site_id
 _symmetry_equiv_pos_as_xyz
  1  'x, y, z'
loop_
 _atom_site_type_symbol
 _atom_site_label
 _atom_site_symmetry_multiplicity
 _atom_site_fract_x
 _atom_site_fract_y
 _atom_site_fract_z
 _atom_site_occupancy
  Ba  Ba0  1  0.50000000  0.50000000  0.00000000  1
  Ba  Ba1  1  0.00000000  0.00000000  0.50000000  1
  Pr  Pr2  1  0.00000000  0.50000000  0.70260772  1
  Pr  Pr3  1  0.50000000  0.00000000  0.79739228  1
  Pr  Pr4  1  0.50000000  0.00000000  0.20260772  1
  Pr  Pr5  1  0.00000000  0.50000000  0.29739228  1
  Ni  Ni6  1  0.50000000  0.50000000  0.50000000  1
  Ni  Ni7  1  0.00000000  0.00000000  0.00000000  1
  O  O8  1  0.50000000  0.00000000  0.00000000  1
  O  O9  1  0.00000000  0.24179448  0.85599404  1
  O  O10  1  0.50000000  0.25820552  0.64400596  1
  O  O11  1  0.50000000  0.74179448  0.64400596  1
  O  O12  1  0.00000000  0.75820552  0.85599404  1
  O  O13  1  0.00000000  0.50000000  0.50000000  1
  O  O14  1  0.50000000  0.74179448  0.35599404  1
  O  O15  1  0.00000000  0.75820552  0.14400596  1
  O  O16  1  0.00000000  0.24179448  0.14400596  1
  O  O17  1  0.50000000  0.25820552  0.35599404  1
