# generated using pymatgen
data_Co2SiO4
_symmetry_space_group_name_H-M   'P 1'
_cell_length_a   5.82312800
_cell_length_b   8.37439000
_cell_length_c   11.62219600
_cell_angle_alpha   90.00000000
_cell_angle_beta   90.00000000
_cell_angle_gamma   90.00000000
_symmetry_Int_Tables_number   1
_chemical_formula_structural   Co2SiO4
_chemical_formula_sum   'Co16 Si8 O32'
_cell_volume   566.75807190
_cell_formula_units_Z   8
loop_
 _symmetry_equiv_pos_site_id
 _symmetry_equiv_pos_as_xyz
  1  'x, y, z'
loop_
 _atom_site_type_symbol
 _atom_site_label
 _atom_site_symmetry_multiplicity
 _atom_site_fract_x
 _atom_site_fract_y
 _atom_site_fract_z
 _atom_site_occupancy
  Co  Co0  1  0.75000000  0.75000000  0.12347200  1
  Co  Co1  1  0.75000000  0.25000000  0.87652800  1
  Co  Co2  1  0.25000000  0.25000000  0.87652800  1
  Co  Co3  1  0.25000000  0.75000000  0.12347200  1
  Co  Co4  1  0.50000000  0.52593900  0.75000000  1
  Co  Co5  1  0.50000000  0.47406100  0.25000000  1
  Co  Co6  1  0.00000000  0.00000000  0.00000000  1
  Co  Co7  1  0.50000000  0.50000000  0.00000000  1
  Co  Co8  1  0.25000000  0.25000000  0.62347200  1
  Co  Co9  1  0.25000000  0.75000000  0.37652800  1
  Co  Co10  1  0.75000000  0.75000000  0.37652800  1
  Co  Co11  1  0.75000000  0.25000000  0.62347200  1
  Co  Co12  1  0.00000000  0.02593900  0.25000000  1
  Co  Co13  1  0.00000000  0.97406100  0.75000000  1
  Co  Co14  1  0.50000000  0.50000000  0.50000000  1
  Co  Co15  1  0.00000000  0.00000000  0.50000000  1
  Si  Si16  1  0.00000000  0.38303800  0.12143500  1
  Si  Si17  1  0.00000000  0.61696200  0.87856500  1
  Si  Si18  1  0.00000000  0.38303800  0.37856500  1
  Si  Si19  1  0.00000000  0.61696200  0.62143500  1
  Si  Si20  1  0.50000000  0.88303800  0.62143500  1
  Si  Si21  1  0.50000000  0.11696200  0.37856500  1
  Si  Si22  1  0.50000000  0.88303800  0.87856500  1
  Si  Si23  1  0.50000000  0.11696200  0.12143500  1
  O  O24  1  0.23546400  0.49219700  0.37697700  1
  O  O25  1  0.23546400  0.50780300  0.62302300  1
  O  O26  1  0.76453600  0.49219700  0.12302300  1
  O  O27  1  0.76453600  0.50780300  0.87697700  1
  O  O28  1  0.76453600  0.50780300  0.62302300  1
  O  O29  1  0.76453600  0.49219700  0.37697700  1
  O  O30  1  0.23546400  0.50780300  0.87697700  1
  O  O31  1  0.23546400  0.49219700  0.12302300  1
  O  O32  1  0.00000000  0.74597700  0.98710100  1
  O  O33  1  0.00000000  0.25402300  0.01289900  1
  O  O34  1  0.50000000  0.24597700  0.01289900  1
  O  O35  1  0.50000000  0.75402300  0.98710100  1
  O  O36  1  0.50000000  0.71876800  0.25000000  1
  O  O37  1  0.50000000  0.28123200  0.75000000  1
  O  O38  1  0.00000000  0.71693300  0.75000000  1
  O  O39  1  0.00000000  0.28306700  0.25000000  1
  O  O40  1  0.73546400  0.99219700  0.87697700  1
  O  O41  1  0.73546400  0.00780300  0.12302300  1
  O  O42  1  0.26453600  0.99219700  0.62302300  1
  O  O43  1  0.26453600  0.00780300  0.37697700  1
  O  O44  1  0.26453600  0.00780300  0.12302300  1
  O  O45  1  0.26453600  0.99219700  0.87697700  1
  O  O46  1  0.73546400  0.00780300  0.37697700  1
  O  O47  1  0.73546400  0.99219700  0.62302300  1
  O  O48  1  0.50000000  0.24597700  0.48710100  1
  O  O49  1  0.50000000  0.75402300  0.51289900  1
  O  O50  1  0.00000000  0.74597700  0.51289900  1
  O  O51  1  0.00000000  0.25402300  0.48710100  1
  O  O52  1  0.00000000  0.21876800  0.75000000  1
  O  O53  1  0.00000000  0.78123200  0.25000000  1
  O  O54  1  0.50000000  0.21693300  0.25000000  1
  O  O55  1  0.50000000  0.78306700  0.75000000  1
