# generated using pymatgen
data_Ca8Si5O18
_symmetry_space_group_name_H-M   'P 1'
_cell_length_a   5.13865000
_cell_length_b   11.52175500
_cell_length_c   28.94054900
_cell_angle_alpha   90.00000000
_cell_angle_beta   90.00000000
_cell_angle_gamma   90.00000000
_symmetry_Int_Tables_number   1
_chemical_formula_structural   Ca8Si5O18
_chemical_formula_sum   'Ca32 Si20 O72'
_cell_volume   1713.46185185
_cell_formula_units_Z   4
loop_
 _symmetry_equiv_pos_site_id
 _symmetry_equiv_pos_as_xyz
  1  'x, y, z'
loop_
 _atom_site_type_symbol
 _atom_site_label
 _atom_site_symmetry_multiplicity
 _atom_site_fract_x
 _atom_site_fract_y
 _atom_site_fract_z
 _atom_site_occupancy
  Ca  Ca0  1  0.49761300  0.28295800  0.94218800  1
  Ca  Ca1  1  0.00238700  0.21704200  0.44218800  1
  Ca  Ca2  1  0.99761300  0.21704200  0.05781200  1
  Ca  Ca3  1  0.50238700  0.28295800  0.55781200  1
  Ca  Ca4  1  0.50238700  0.71704200  0.05781200  1
  Ca  Ca5  1  0.99761300  0.78295800  0.55781200  1
  Ca  Ca6  1  0.00238700  0.78295800  0.94218800  1
  Ca  Ca7  1  0.49761300  0.71704200  0.44218800  1
  Ca  Ca8  1  0.00000000  0.50000000  0.00000000  1
  Ca  Ca9  1  0.50000000  0.00000000  0.50000000  1
  Ca  Ca10  1  0.50000000  0.00000000  0.00000000  1
  Ca  Ca11  1  0.00000000  0.50000000  0.50000000  1
  Ca  Ca12  1  0.99422300  0.51042200  0.87783400  1
  Ca  Ca13  1  0.50577700  0.98957800  0.37783400  1
  Ca  Ca14  1  0.49422300  0.98957800  0.12216600  1
  Ca  Ca15  1  0.00577700  0.51042200  0.62216600  1
  Ca  Ca16  1  0.00577700  0.48957800  0.12216600  1
  Ca  Ca17  1  0.49422300  0.01042200  0.62216600  1
  Ca  Ca18  1  0.50577700  0.01042200  0.87783400  1
  Ca  Ca19  1  0.99422300  0.48957800  0.37783400  1
  Ca  Ca20  1  0.50687200  0.71530400  0.83057800  1
  Ca  Ca21  1  0.99312800  0.78469600  0.33057800  1
  Ca  Ca22  1  0.00687200  0.78469600  0.16942200  1
  Ca  Ca23  1  0.49312800  0.71530400  0.66942200  1
  Ca  Ca24  1  0.49312800  0.28469600  0.16942200  1
  Ca  Ca25  1  0.00687200  0.21530400  0.66942200  1
  Ca  Ca26  1  0.99312800  0.21530400  0.83057800  1
  Ca  Ca27  1  0.50687200  0.28469600  0.33057800  1
  Ca  Ca28  1  0.00000000  0.48569000  0.75000000  1
  Ca  Ca29  1  0.50000000  0.01431000  0.25000000  1
  Ca  Ca30  1  0.00000000  0.51431000  0.25000000  1
  Ca  Ca31  1  0.50000000  0.98569000  0.75000000  1
  Si  Si32  1  0.57223500  0.59515000  0.94231300  1
  Si  Si33  1  0.92776500  0.90485000  0.44231300  1
  Si  Si34  1  0.07223500  0.90485000  0.05768700  1
  Si  Si35  1  0.42776500  0.59515000  0.55768700  1
  Si  Si36  1  0.42776500  0.40485000  0.05768700  1
  Si  Si37  1  0.07223500  0.09515000  0.55768700  1
  Si  Si38  1  0.92776500  0.09515000  0.94231300  1
  Si  Si39  1  0.57223500  0.40485000  0.44231300  1
  Si  Si40  1  0.44036700  0.40534800  0.82710100  1
  Si  Si41  1  0.05963300  0.09465200  0.32710100  1
  Si  Si42  1  0.94036700  0.09465200  0.17289900  1
  Si  Si43  1  0.55963300  0.40534800  0.67289900  1
  Si  Si44  1  0.55963300  0.59465200  0.17289900  1
  Si  Si45  1  0.94036700  0.90534800  0.67289900  1
  Si  Si46  1  0.05963300  0.90534800  0.82710100  1
  Si  Si47  1  0.44036700  0.59465200  0.32710100  1
  Si  Si48  1  0.50000000  0.23785900  0.75000000  1
  Si  Si49  1  0.00000000  0.26214100  0.25000000  1
  Si  Si50  1  0.50000000  0.76214100  0.25000000  1
  Si  Si51  1  0.00000000  0.73785900  0.75000000  1
  O  O52  1  0.70552500  0.46291000  0.94021400  1
  O  O53  1  0.79447500  0.03709000  0.44021400  1
  O  O54  1  0.20552500  0.03709000  0.05978600  1
  O  O55  1  0.29447500  0.46291000  0.55978600  1
  O  O56  1  0.29447500  0.53709000  0.05978600  1
  O  O57  1  0.20552500  0.96291000  0.55978600  1
  O  O58  1  0.79447500  0.96291000  0.94021400  1
  O  O59  1  0.70552500  0.53709000  0.44021400  1
  O  O60  1  0.70443500  0.66395600  0.89768700  1
  O  O61  1  0.79556500  0.83604400  0.39768700  1
  O  O62  1  0.20443500  0.83604400  0.10231300  1
  O  O63  1  0.29556500  0.66395600  0.60231300  1
  O  O64  1  0.29556500  0.33604400  0.10231300  1
  O  O65  1  0.20443500  0.16395600  0.60231300  1
  O  O66  1  0.79556500  0.16395600  0.89768700  1
  O  O67  1  0.70443500  0.33604400  0.39768700  1
  O  O68  1  0.70163000  0.65838400  0.98850500  1
  O  O69  1  0.79837000  0.84161600  0.48850500  1
  O  O70  1  0.20163000  0.84161600  0.01149500  1
  O  O71  1  0.29837000  0.65838400  0.51149500  1
  O  O72  1  0.29837000  0.34161600  0.01149500  1
  O  O73  1  0.20163000  0.15838400  0.51149500  1
  O  O74  1  0.79837000  0.15838400  0.98850500  1
  O  O75  1  0.70163000  0.34161600  0.48850500  1
  O  O76  1  0.25248800  0.59474200  0.94074200  1
  O  O77  1  0.24751200  0.90525800  0.44074200  1
  O  O78  1  0.75248800  0.90525800  0.05925800  1
  O  O79  1  0.74751200  0.59474200  0.55925800  1
  O  O80  1  0.74751200  0.40525800  0.05925800  1
  O  O81  1  0.75248800  0.09474200  0.55925800  1
  O  O82  1  0.24751200  0.09474200  0.94074200  1
  O  O83  1  0.25248800  0.40525800  0.44074200  1
  O  O84  1  0.29986700  0.34329900  0.87181700  1
  O  O85  1  0.20013300  0.15670100  0.37181700  1
  O  O86  1  0.79986700  0.15670100  0.12818300  1
  O  O87  1  0.70013300  0.34329900  0.62818300  1
  O  O88  1  0.70013300  0.65670100  0.12818300  1
  O  O89  1  0.79986700  0.84329900  0.62818300  1
  O  O90  1  0.20013300  0.84329900  0.87181700  1
  O  O91  1  0.29986700  0.65670100  0.37181700  1
  O  O92  1  0.30794700  0.53321600  0.82034100  1
  O  O93  1  0.19205300  0.96678400  0.32034100  1
  O  O94  1  0.80794700  0.96678400  0.17965900  1
  O  O95  1  0.69205300  0.53321600  0.67965900  1
  O  O96  1  0.69205300  0.46678400  0.17965900  1
  O  O97  1  0.80794700  0.03321600  0.67965900  1
  O  O98  1  0.19205300  0.03321600  0.82034100  1
  O  O99  1  0.30794700  0.46678400  0.32034100  1
  O  O100  1  0.31087700  0.32777800  0.78138700  1
  O  O101  1  0.18912300  0.17222200  0.28138700  1
  O  O102  1  0.81087700  0.17222200  0.21861300  1
  O  O103  1  0.68912300  0.32777800  0.71861300  1
  O  O104  1  0.68912300  0.67222200  0.21861300  1
  O  O105  1  0.81087700  0.82777800  0.71861300  1
  O  O106  1  0.18912300  0.82777800  0.78138700  1
  O  O107  1  0.31087700  0.67222200  0.28138700  1
  O  O108  1  0.75633700  0.40080600  0.82370500  1
  O  O109  1  0.74366300  0.09919400  0.32370500  1
  O  O110  1  0.25633700  0.09919400  0.17629500  1
  O  O111  1  0.24366300  0.40080600  0.67629500  1
  O  O112  1  0.24366300  0.59919400  0.17629500  1
  O  O113  1  0.25633700  0.90080600  0.67629500  1
  O  O114  1  0.74366300  0.90080600  0.82370500  1
  O  O115  1  0.75633700  0.59919400  0.32370500  1
  O  O116  1  0.67670000  0.15651200  0.78255200  1
  O  O117  1  0.82330000  0.34348800  0.28255200  1
  O  O118  1  0.17670000  0.34348800  0.21744800  1
  O  O119  1  0.32330000  0.15651200  0.71744800  1
  O  O120  1  0.32330000  0.84348800  0.21744800  1
  O  O121  1  0.17670000  0.65651200  0.71744800  1
  O  O122  1  0.82330000  0.65651200  0.78255200  1
  O  O123  1  0.67670000  0.84348800  0.28255200  1
