# generated using pymatgen
data_La6UO12
_symmetry_space_group_name_H-M   'P 1'
_cell_length_a   10.51605834
_cell_length_b   10.51605834
_cell_length_c   10.02919279
_cell_angle_alpha   90.00000000
_cell_angle_beta   90.00000000
_cell_angle_gamma   120.00000000
_symmetry_Int_Tables_number   1
_chemical_formula_structural   La6UO12
_chemical_formula_sum   'La18 U3 O36'
_cell_volume   960.51153533
_cell_formula_units_Z   3
loop_
 _symmetry_equiv_pos_site_id
 _symmetry_equiv_pos_as_xyz
  1  'x, y, z'
loop_
 _atom_site_type_symbol
 _atom_site_label
 _atom_site_symmetry_multiplicity
 _atom_site_fract_x
 _atom_site_fract_y
 _atom_site_fract_z
 _atom_site_occupancy
  La  La0  1  0.25232233  0.04285767  0.35362667  1
  La  La1  1  0.79053533  0.74767767  0.35362667  1
  La  La2  1  0.20946467  0.25232233  0.64637333  1
  La  La3  1  0.74767767  0.95714233  0.64637333  1
  La  La4  1  0.04285767  0.79053533  0.64637333  1
  La  La5  1  0.95714233  0.20946467  0.35362667  1
  La  La6  1  0.91898900  0.37619100  0.68696000  1
  La  La7  1  0.45720200  0.08101100  0.68696000  1
  La  La8  1  0.87613133  0.58565567  0.97970667  1
  La  La9  1  0.41434433  0.29047567  0.97970667  1
  La  La10  1  0.70952433  0.12386867  0.97970667  1
  La  La11  1  0.62380900  0.54279800  0.68696000  1
  La  La12  1  0.58565567  0.70952433  0.02029333  1
  La  La13  1  0.12386867  0.41434433  0.02029333  1
  La  La14  1  0.54279800  0.91898900  0.31304000  1
  La  La15  1  0.08101100  0.62380900  0.31304000  1
  La  La16  1  0.37619100  0.45720200  0.31304000  1
  La  La17  1  0.29047567  0.87613133  0.02029333  1
  U  U18  1  0.00000000  0.00000000  0.00000000  1
  U  U19  1  0.66666667  0.33333333  0.33333333  1
  U  U20  1  0.33333333  0.66666667  0.66666667  1
  O  O21  1  0.77508567  0.96553433  0.40215533  1
  O  O22  1  0.14538700  0.63017500  0.55938300  1
  O  O23  1  0.19044867  0.22491433  0.40215533  1
  O  O24  1  0.80955133  0.77508567  0.59784467  1
  O  O25  1  0.22491433  0.03446567  0.59784467  1
  O  O26  1  0.03446567  0.80955133  0.40215533  1
  O  O27  1  0.96553433  0.19044867  0.59784467  1
  O  O28  1  0.63017500  0.48478800  0.44061700  1
  O  O29  1  0.36982500  0.51521200  0.55938300  1
  O  O30  1  0.48478800  0.85461300  0.55938300  1
  O  O31  1  0.85461300  0.36982500  0.44061700  1
  O  O32  1  0.51521200  0.14538700  0.44061700  1
  O  O33  1  0.44175233  0.29886767  0.73548867  1
  O  O34  1  0.81205367  0.96350833  0.89271633  1
  O  O35  1  0.85711533  0.55824767  0.73548867  1
  O  O36  1  0.47621800  0.10841900  0.93117800  1
  O  O37  1  0.89158100  0.36779900  0.93117800  1
  O  O38  1  0.70113233  0.14288467  0.73548867  1
  O  O39  1  0.63220100  0.52378200  0.93117800  1
  O  O40  1  0.29684167  0.81812133  0.77395033  1
  O  O41  1  0.03649167  0.84854533  0.89271633  1
  O  O42  1  0.15145467  0.18794633  0.89271633  1
  O  O43  1  0.52127967  0.70315833  0.77395033  1
  O  O44  1  0.18187867  0.47872033  0.77395033  1
  O  O45  1  0.10841900  0.63220100  0.06882200  1
  O  O46  1  0.47872033  0.29684167  0.22604967  1
  O  O47  1  0.52378200  0.89158100  0.06882200  1
  O  O48  1  0.14288467  0.44175233  0.26451133  1
  O  O49  1  0.55824767  0.70113233  0.26451133  1
  O  O50  1  0.36779900  0.47621800  0.06882200  1
  O  O51  1  0.29886767  0.85711533  0.26451133  1
  O  O52  1  0.96350833  0.15145467  0.10728367  1
  O  O53  1  0.70315833  0.18187867  0.22604967  1
  O  O54  1  0.81812133  0.52127967  0.22604967  1
  O  O55  1  0.18794633  0.03649167  0.10728367  1
  O  O56  1  0.84854533  0.81205367  0.10728367  1
