# generated using pymatgen
data_Ni2P2O7
_symmetry_space_group_name_H-M   'P 1'
_cell_length_a   6.49495460
_cell_length_b   8.33819104
_cell_length_c   4.51647070
_cell_angle_alpha   90.00000000
_cell_angle_beta   103.11134056
_cell_angle_gamma   90.00000000
_symmetry_Int_Tables_number   1
_chemical_formula_structural   Ni2P2O7
_chemical_formula_sum   'Ni4 P4 O14'
_cell_volume   238.21844564
_cell_formula_units_Z   2
loop_
 _symmetry_equiv_pos_site_id
 _symmetry_equiv_pos_as_xyz
  1  'x, y, z'
loop_
 _atom_site_type_symbol
 _atom_site_label
 _atom_site_symmetry_multiplicity
 _atom_site_fract_x
 _atom_site_fract_y
 _atom_site_fract_z
 _atom_site_occupancy
  Ni  Ni0  1  0.00000000  0.31361500  0.50000000  1
  Ni  Ni1  1  0.00000000  0.68638500  0.50000000  1
  Ni  Ni2  1  0.50000000  0.81361500  0.50000000  1
  Ni  Ni3  1  0.50000000  0.18638500  0.50000000  1
  P  P4  1  0.71966350  0.50000000  0.90728000  1
  P  P5  1  0.28033650  0.50000000  0.09272000  1
  P  P6  1  0.21966350  0.00000000  0.90728000  1
  P  P7  1  0.78033650  0.00000000  0.09272000  1
  O  O8  1  0.50000000  0.50000000  0.00000000  1
  O  O9  1  0.87984500  0.50000000  0.21616600  1
  O  O10  1  0.12015500  0.50000000  0.78383400  1
  O  O11  1  0.27183650  0.65375950  0.27704800  1
  O  O12  1  0.72816350  0.65375950  0.72295200  1
  O  O13  1  0.72816350  0.34624050  0.72295200  1
  O  O14  1  0.27183650  0.34624050  0.27704800  1
  O  O15  1  0.00000000  0.00000000  0.00000000  1
  O  O16  1  0.37984500  0.00000000  0.21616600  1
  O  O17  1  0.62015500  0.00000000  0.78383400  1
  O  O18  1  0.77183650  0.15375950  0.27704800  1
  O  O19  1  0.22816350  0.15375950  0.72295200  1
  O  O20  1  0.22816350  0.84624050  0.72295200  1
  O  O21  1  0.77183650  0.84624050  0.27704800  1
