# generated using pymatgen
data_CsYCdSe3
_symmetry_space_group_name_H-M   'P 1'
_cell_length_a   4.30835800
_cell_length_b   16.38157400
_cell_length_c   11.22843500
_cell_angle_alpha   90.00000000
_cell_angle_beta   90.00000000
_cell_angle_gamma   90.00000000
_symmetry_Int_Tables_number   1
_chemical_formula_structural   CsYCdSe3
_chemical_formula_sum   'Cs4 Y4 Cd4 Se12'
_cell_volume   792.47695291
_cell_formula_units_Z   4
loop_
 _symmetry_equiv_pos_site_id
 _symmetry_equiv_pos_as_xyz
  1  'x, y, z'
loop_
 _atom_site_type_symbol
 _atom_site_label
 _atom_site_symmetry_multiplicity
 _atom_site_fract_x
 _atom_site_fract_y
 _atom_site_fract_z
 _atom_site_occupancy
  Cs  Cs0  1  0.00000000  0.25581600  0.75000000  1
  Cs  Cs1  1  0.50000000  0.24418400  0.25000000  1
  Cs  Cs2  1  0.50000000  0.75581600  0.75000000  1
  Cs  Cs3  1  0.00000000  0.74418400  0.25000000  1
  Y  Y4  1  0.00000000  0.00000000  0.00000000  1
  Y  Y5  1  0.00000000  0.00000000  0.50000000  1
  Y  Y6  1  0.50000000  0.50000000  0.00000000  1
  Y  Y7  1  0.50000000  0.50000000  0.50000000  1
  Cd  Cd8  1  0.50000000  0.03942500  0.75000000  1
  Cd  Cd9  1  0.00000000  0.46057500  0.25000000  1
  Cd  Cd10  1  0.00000000  0.53942500  0.75000000  1
  Cd  Cd11  1  0.50000000  0.96057500  0.25000000  1
  Se  Se12  1  0.50000000  0.43957400  0.75000000  1
  Se  Se13  1  0.00000000  0.06042600  0.25000000  1
  Se  Se14  1  0.00000000  0.38315900  0.04533200  1
  Se  Se15  1  0.00000000  0.38315900  0.45466800  1
  Se  Se16  1  0.50000000  0.11684100  0.54533200  1
  Se  Se17  1  0.50000000  0.11684100  0.95466800  1
  Se  Se18  1  0.00000000  0.93957400  0.75000000  1
  Se  Se19  1  0.50000000  0.56042600  0.25000000  1
  Se  Se20  1  0.50000000  0.88315900  0.04533200  1
  Se  Se21  1  0.50000000  0.88315900  0.45466800  1
  Se  Se22  1  0.00000000  0.61684100  0.54533200  1
  Se  Se23  1  0.00000000  0.61684100  0.95466800  1
