# generated using pymatgen
data_TmAl3(BO3)4
_symmetry_space_group_name_H-M   'P 1'
_cell_length_a   9.33988006
_cell_length_b   9.33988006
_cell_length_c   7.27533214
_cell_angle_alpha   90.00000000
_cell_angle_beta   90.00000000
_cell_angle_gamma   120.00000000
_symmetry_Int_Tables_number   1
_chemical_formula_structural   TmAl3(BO3)4
_chemical_formula_sum   'Tm3 Al9 B12 O36'
_cell_volume   549.62446396
_cell_formula_units_Z   3
loop_
 _symmetry_equiv_pos_site_id
 _symmetry_equiv_pos_as_xyz
  1  'x, y, z'
loop_
 _atom_site_type_symbol
 _atom_site_label
 _atom_site_symmetry_multiplicity
 _atom_site_fract_x
 _atom_site_fract_y
 _atom_site_fract_z
 _atom_site_occupancy
  Tm  Tm0  1  0.00000000  0.00000000  0.00000000  1
  Tm  Tm1  1  0.66666667  0.33333333  0.33333333  1
  Tm  Tm2  1  0.33333333  0.66666667  0.66666667  1
  Al  Al3  1  0.66666667  0.88833333  0.33333333  1
  Al  Al4  1  0.11166667  0.77833333  0.33333333  1
  Al  Al5  1  0.22166667  0.33333333  0.33333333  1
  Al  Al6  1  0.33333333  0.22166667  0.66666667  1
  Al  Al7  1  0.77833333  0.11166667  0.66666667  1
  Al  Al8  1  0.88833333  0.66666667  0.66666667  1
  Al  Al9  1  0.00000000  0.55500000  0.00000000  1
  Al  Al10  1  0.44500000  0.44500000  0.00000000  1
  Al  Al11  1  0.55500000  0.00000000  0.00000000  1
  B  B12  1  0.55581300  0.55581300  0.50000000  1
  B  B13  1  0.44418700  0.00000000  0.50000000  1
  B  B14  1  0.00000000  0.44418700  0.50000000  1
  B  B15  1  0.00000000  0.00000000  0.50000000  1
  B  B16  1  0.22247967  0.88914633  0.83333333  1
  B  B17  1  0.11085367  0.33333333  0.83333333  1
  B  B18  1  0.66666667  0.77752033  0.83333333  1
  B  B19  1  0.66666667  0.33333333  0.83333333  1
  B  B20  1  0.88914633  0.22247967  0.16666667  1
  B  B21  1  0.77752033  0.66666667  0.16666667  1
  B  B22  1  0.33333333  0.11085367  0.16666667  1
  B  B23  1  0.33333333  0.66666667  0.16666667  1
  O  O24  1  0.00000000  0.59237800  0.50000000  1
  O  O25  1  0.59237800  0.00000000  0.50000000  1
  O  O26  1  0.40762200  0.40762200  0.50000000  1
  O  O27  1  0.00000000  0.85130800  0.50000000  1
  O  O28  1  0.85130800  0.00000000  0.50000000  1
  O  O29  1  0.14869200  0.14869200  0.50000000  1
  O  O30  1  0.15051267  0.45177833  0.48049233  1
  O  O31  1  0.30126567  0.84948733  0.48049233  1
  O  O32  1  0.54822167  0.69873433  0.48049233  1
  O  O33  1  0.45177833  0.15051267  0.51950767  1
  O  O34  1  0.69873433  0.54822167  0.51950767  1
  O  O35  1  0.84948733  0.30126567  0.51950767  1
  O  O36  1  0.66666667  0.92571133  0.83333333  1
  O  O37  1  0.25904467  0.33333333  0.83333333  1
  O  O38  1  0.07428867  0.74095533  0.83333333  1
  O  O39  1  0.66666667  0.18464133  0.83333333  1
  O  O40  1  0.51797467  0.33333333  0.83333333  1
  O  O41  1  0.81535867  0.48202533  0.83333333  1
  O  O42  1  0.81717933  0.78511167  0.81382567  1
  O  O43  1  0.96793233  0.18282067  0.81382567  1
  O  O44  1  0.21488833  0.03206767  0.81382567  1
  O  O45  1  0.11844500  0.48384600  0.85284100  1
  O  O46  1  0.36540100  0.88155500  0.85284100  1
  O  O47  1  0.51615400  0.63459900  0.85284100  1
  O  O48  1  0.33333333  0.25904467  0.16666667  1
  O  O49  1  0.92571133  0.66666667  0.16666667  1
  O  O50  1  0.74095533  0.07428867  0.16666667  1
  O  O51  1  0.33333333  0.51797467  0.16666667  1
  O  O52  1  0.18464133  0.66666667  0.16666667  1
  O  O53  1  0.48202533  0.81535867  0.16666667  1
  O  O54  1  0.48384600  0.11844500  0.14715900  1
  O  O55  1  0.63459900  0.51615400  0.14715900  1
  O  O56  1  0.88155500  0.36540100  0.14715900  1
  O  O57  1  0.78511167  0.81717933  0.18617433  1
  O  O58  1  0.03206767  0.21488833  0.18617433  1
  O  O59  1  0.18282067  0.96793233  0.18617433  1
