# generated using pymatgen
data_SrCu2SnS4
_symmetry_space_group_name_H-M   'P 1'
_cell_length_a   6.34658266
_cell_length_b   6.34658266
_cell_length_c   15.59178800
_cell_angle_alpha   90.00000000
_cell_angle_beta   90.00000000
_cell_angle_gamma   120.00000000
_symmetry_Int_Tables_number   1
_chemical_formula_structural   SrCu2SnS4
_chemical_formula_sum   'Sr3 Cu6 Sn3 S12'
_cell_volume   543.88418955
_cell_formula_units_Z   3
loop_
 _symmetry_equiv_pos_site_id
 _symmetry_equiv_pos_as_xyz
  1  'x, y, z'
loop_
 _atom_site_type_symbol
 _atom_site_label
 _atom_site_symmetry_multiplicity
 _atom_site_fract_x
 _atom_site_fract_y
 _atom_site_fract_z
 _atom_site_occupancy
  Sr  Sr0  1  0.56214400  0.00000000  0.83333333  1
  Sr  Sr1  1  0.00000000  0.56214400  0.16666667  1
  Sr  Sr2  1  0.43785600  0.43785600  0.50000000  1
  Cu  Cu3  1  0.43650500  0.36384000  0.25454500  1
  Cu  Cu4  1  0.56349500  0.92733500  0.07878833  1
  Cu  Cu5  1  0.36384000  0.43650500  0.74545500  1
  Cu  Cu6  1  0.63616000  0.07266500  0.58787833  1
  Cu  Cu7  1  0.92733500  0.56349500  0.92121167  1
  Cu  Cu8  1  0.07266500  0.63616000  0.41212167  1
  Sn  Sn9  1  0.70489300  0.00000000  0.33333333  1
  Sn  Sn10  1  0.29510700  0.29510700  0.00000000  1
  Sn  Sn11  1  0.00000000  0.70489300  0.66666667  1
  S  S12  1  0.76381700  0.64668000  0.33799300  1
  S  S13  1  0.88286300  0.23618300  0.00465967  1
  S  S14  1  0.35332000  0.11713700  0.67132633  1
  S  S15  1  0.11713700  0.35332000  0.32867367  1
  S  S16  1  0.23618300  0.88286300  0.99534033  1
  S  S17  1  0.64668000  0.76381700  0.66200700  1
  S  S18  1  0.95478600  0.44097300  0.54611900  1
  S  S19  1  0.48618700  0.04521400  0.21278567  1
  S  S20  1  0.04521400  0.48618700  0.78721433  1
  S  S21  1  0.44097300  0.95478600  0.45388100  1
  S  S22  1  0.51381300  0.55902700  0.12054767  1
  S  S23  1  0.55902700  0.51381300  0.87945233  1
