# generated using pymatgen
data_EuCuTeF
_symmetry_space_group_name_H-M   'P 1'
_cell_length_a   4.22379400
_cell_length_b   4.22379400
_cell_length_c   9.21090100
_cell_angle_alpha   90.00000000
_cell_angle_beta   90.00000000
_cell_angle_gamma   90.00000000
_symmetry_Int_Tables_number   1
_chemical_formula_structural   EuCuTeF
_chemical_formula_sum   'Eu2 Cu2 Te2 F2'
_cell_volume   164.32648753
_cell_formula_units_Z   2
loop_
 _symmetry_equiv_pos_site_id
 _symmetry_equiv_pos_as_xyz
  1  'x, y, z'
loop_
 _atom_site_type_symbol
 _atom_site_label
 _atom_site_symmetry_multiplicity
 _atom_site_fract_x
 _atom_site_fract_y
 _atom_site_fract_z
 _atom_site_occupancy
  Eu  Eu0  1  0.50000000  0.00000000  0.15289400  1
  Eu  Eu1  1  0.00000000  0.50000000  0.84710600  1
  Cu  Cu2  1  0.50000000  0.50000000  0.50000000  1
  Cu  Cu3  1  0.00000000  0.00000000  0.50000000  1
  Te  Te4  1  0.00000000  0.50000000  0.32232900  1
  Te  Te5  1  0.50000000  0.00000000  0.67767100  1
  F  F6  1  0.00000000  0.00000000  0.00000000  1
  F  F7  1  0.50000000  0.50000000  0.00000000  1
