# generated using pymatgen
data_Cd2As2O7
_symmetry_space_group_name_H-M   'P 1'
_cell_length_a   7.11392000
_cell_length_b   9.24505800
_cell_length_c   4.95892000
_cell_angle_alpha   90.00000000
_cell_angle_beta   101.96107635
_cell_angle_gamma   90.00000000
_symmetry_Int_Tables_number   1
_chemical_formula_structural   Cd2As2O7
_chemical_formula_sum   'Cd4 As4 O14'
_cell_volume   319.06026418
_cell_formula_units_Z   2
loop_
 _symmetry_equiv_pos_site_id
 _symmetry_equiv_pos_as_xyz
  1  'x, y, z'
loop_
 _atom_site_type_symbol
 _atom_site_label
 _atom_site_symmetry_multiplicity
 _atom_site_fract_x
 _atom_site_fract_y
 _atom_site_fract_z
 _atom_site_occupancy
  Cd  Cd0  1  0.50000000  0.19538400  0.50000000  1
  Cd  Cd1  1  0.50000000  0.80461600  0.50000000  1
  Cd  Cd2  1  0.00000000  0.69538400  0.50000000  1
  Cd  Cd3  1  0.00000000  0.30461600  0.50000000  1
  As  As4  1  0.77333400  0.00000000  0.09159600  1
  As  As5  1  0.22666600  0.00000000  0.90840400  1
  As  As6  1  0.27333400  0.50000000  0.09159600  1
  As  As7  1  0.72666600  0.50000000  0.90840400  1
  O  O8  1  0.23499500  0.84521100  0.72249300  1
  O  O9  1  0.76500500  0.84521100  0.27750700  1
  O  O10  1  0.76500500  0.15478900  0.27750700  1
  O  O11  1  0.23499500  0.15478900  0.72249300  1
  O  O12  1  0.00000000  0.00000000  0.00000000  1
  O  O13  1  0.38676200  0.00000000  0.21628700  1
  O  O14  1  0.61323800  0.00000000  0.78371300  1
  O  O15  1  0.73499500  0.34521100  0.72249300  1
  O  O16  1  0.26500500  0.34521100  0.27750700  1
  O  O17  1  0.26500500  0.65478900  0.27750700  1
  O  O18  1  0.73499500  0.65478900  0.72249300  1
  O  O19  1  0.50000000  0.50000000  0.00000000  1
  O  O20  1  0.88676200  0.50000000  0.21628700  1
  O  O21  1  0.11323800  0.50000000  0.78371300  1
