# generated using pymatgen
data_K2CeAl(SiO3)4
_symmetry_space_group_name_H-M   'P 1'
_cell_length_a   27.14923800
_cell_length_b   7.46231600
_cell_length_c   15.10621602
_cell_angle_alpha   90.00000000
_cell_angle_beta   123.53004147
_cell_angle_gamma   90.00000000
_symmetry_Int_Tables_number   1
_chemical_formula_structural   K2CeAl(SiO3)4
_chemical_formula_sum   'K16 Ce8 Al8 Si32 O96'
_cell_volume   2551.18972546
_cell_formula_units_Z   8
loop_
 _symmetry_equiv_pos_site_id
 _symmetry_equiv_pos_as_xyz
  1  'x, y, z'
loop_
 _atom_site_type_symbol
 _atom_site_label
 _atom_site_symmetry_multiplicity
 _atom_site_fract_x
 _atom_site_fract_y
 _atom_site_fract_z
 _atom_site_occupancy
  K  K0  1  0.19314050  0.00280950  0.47433800  1
  K  K1  1  0.19314050  0.99719050  0.97433800  1
  K  K2  1  0.80685950  0.99719050  0.52566200  1
  K  K3  1  0.80685950  0.00280950  0.02566200  1
  K  K4  1  0.03726150  0.75813050  0.46312300  1
  K  K5  1  0.03726150  0.24186950  0.96312300  1
  K  K6  1  0.96273850  0.24186950  0.53687700  1
  K  K7  1  0.96273850  0.75813050  0.03687700  1
  K  K8  1  0.69314050  0.50280950  0.47433800  1
  K  K9  1  0.69314050  0.49719050  0.97433800  1
  K  K10  1  0.30685950  0.49719050  0.52566200  1
  K  K11  1  0.30685950  0.50280950  0.02566200  1
  K  K12  1  0.53726150  0.25813050  0.46312300  1
  K  K13  1  0.53726150  0.74186950  0.96312300  1
  K  K14  1  0.46273850  0.74186950  0.53687700  1
  K  K15  1  0.46273850  0.25813050  0.03687700  1
  Ce  Ce16  1  0.76913450  0.21254950  0.24940100  1
  Ce  Ce17  1  0.26913450  0.28745050  0.74940100  1
  Ce  Ce18  1  0.23086550  0.78745050  0.75059900  1
  Ce  Ce19  1  0.73086550  0.71254950  0.25059900  1
  Ce  Ce20  1  0.26913450  0.71254950  0.24940100  1
  Ce  Ce21  1  0.76913450  0.78745050  0.74940100  1
  Ce  Ce22  1  0.73086550  0.28745050  0.75059900  1
  Ce  Ce23  1  0.23086550  0.21254950  0.25059900  1
  Al  Al24  1  0.92876300  0.18863300  0.27143400  1
  Al  Al25  1  0.92876300  0.81136700  0.77143400  1
  Al  Al26  1  0.07123700  0.81136700  0.72856600  1
  Al  Al27  1  0.07123700  0.18863300  0.22856600  1
  Al  Al28  1  0.42876300  0.68863300  0.27143400  1
  Al  Al29  1  0.42876300  0.31136700  0.77143400  1
  Al  Al30  1  0.57123700  0.31136700  0.72856600  1
  Al  Al31  1  0.57123700  0.68863300  0.22856600  1
  Si  Si32  1  0.66342850  0.96813050  0.00404100  1
  Si  Si33  1  0.16342850  0.53186950  0.50404100  1
  Si  Si34  1  0.33657150  0.03186950  0.99595900  1
  Si  Si35  1  0.83657150  0.46813050  0.49595900  1
  Si  Si36  1  0.15748100  0.47873000  0.79042000  1
  Si  Si37  1  0.65748100  0.02127000  0.29042000  1
  Si  Si38  1  0.84251900  0.52127000  0.20958000  1
  Si  Si39  1  0.34251900  0.97873000  0.70958000  1
  Si  Si40  1  0.88249750  0.85642750  0.34111800  1
  Si  Si41  1  0.38249750  0.64357250  0.84111800  1
  Si  Si42  1  0.11750250  0.14357250  0.65888200  1
  Si  Si43  1  0.61750250  0.35642750  0.15888200  1
  Si  Si44  1  0.06138800  0.26264400  0.42213700  1
  Si  Si45  1  0.06138800  0.73735600  0.92213700  1
  Si  Si46  1  0.93861200  0.73735600  0.57786300  1
  Si  Si47  1  0.93861200  0.26264400  0.07786300  1
  Si  Si48  1  0.16342850  0.46813050  0.00404100  1
  Si  Si49  1  0.66342850  0.03186950  0.50404100  1
  Si  Si50  1  0.83657150  0.53186950  0.99595900  1
  Si  Si51  1  0.33657150  0.96813050  0.49595900  1
  Si  Si52  1  0.65748100  0.97873000  0.79042000  1
  Si  Si53  1  0.15748100  0.52127000  0.29042000  1
  Si  Si54  1  0.34251900  0.02127000  0.20958000  1
  Si  Si55  1  0.84251900  0.47873000  0.70958000  1
  Si  Si56  1  0.38249750  0.35642750  0.34111800  1
  Si  Si57  1  0.88249750  0.14357250  0.84111800  1
  Si  Si58  1  0.61750250  0.64357250  0.65888200  1
  Si  Si59  1  0.11750250  0.85642750  0.15888200  1
  Si  Si60  1  0.56138800  0.76264400  0.42213700  1
  Si  Si61  1  0.56138800  0.23735600  0.92213700  1
  Si  Si62  1  0.43861200  0.23735600  0.57786300  1
  Si  Si63  1  0.43861200  0.76264400  0.07786300  1
  O  O64  1  0.89023750  0.65030550  0.30931300  1
  O  O65  1  0.39023750  0.84969450  0.80931300  1
  O  O66  1  0.10976250  0.34969450  0.69068700  1
  O  O67  1  0.60976250  0.15030550  0.19068700  1
  O  O68  1  0.91197600  0.86143700  0.47049800  1
  O  O69  1  0.41197600  0.63856300  0.97049800  1
  O  O70  1  0.08802400  0.13856300  0.52950200  1
  O  O71  1  0.58802400  0.36143700  0.02950200  1
  O  O72  1  0.07311900  0.14648500  0.34455500  1
  O  O73  1  0.07311900  0.85351500  0.84455500  1
  O  O74  1  0.92688100  0.85351500  0.65544500  1
  O  O75  1  0.92688100  0.14648500  0.15544500  1
  O  O76  1  0.09419800  0.54100400  0.95132000  1
  O  O77  1  0.09419800  0.45899600  0.45132000  1
  O  O78  1  0.90580200  0.45899600  0.04868000  1
  O  O79  1  0.90580200  0.54100400  0.54868000  1
  O  O80  1  0.16556550  0.40202150  0.89984600  1
  O  O81  1  0.16556550  0.59797850  0.39984600  1
  O  O82  1  0.83443450  0.59797850  0.10015400  1
  O  O83  1  0.83443450  0.40202150  0.60015400  1
  O  O84  1  0.78885650  0.62648650  0.43178900  1
  O  O85  1  0.28885650  0.87351350  0.93178900  1
  O  O86  1  0.21114350  0.37351350  0.56821100  1
  O  O87  1  0.71114350  0.12648650  0.06821100  1
  O  O88  1  0.82999800  0.28863700  0.42988700  1
  O  O89  1  0.32999800  0.21136300  0.92988700  1
  O  O90  1  0.17000200  0.71136300  0.57011300  1
  O  O91  1  0.67000200  0.78863700  0.07011300  1
  O  O92  1  0.92487700  0.98498200  0.32432800  1
  O  O93  1  0.92487700  0.01501800  0.82432800  1
  O  O94  1  0.07512300  0.01501800  0.67567200  1
  O  O95  1  0.07512300  0.98498200  0.17567200  1
  O  O96  1  0.13517750  0.68733350  0.76391200  1
  O  O97  1  0.63517750  0.81266650  0.26391200  1
  O  O98  1  0.86482250  0.31266650  0.23608800  1
  O  O99  1  0.36482250  0.18733350  0.73608800  1
  O  O100  1  0.99182800  0.30203900  0.37208500  1
  O  O101  1  0.99182800  0.69796100  0.87208500  1
  O  O102  1  0.00817200  0.69796100  0.62791500  1
  O  O103  1  0.00817200  0.30203900  0.12791500  1
  O  O104  1  0.81367400  0.91496900  0.27658400  1
  O  O105  1  0.31367400  0.58503100  0.77658400  1
  O  O106  1  0.18632600  0.08503100  0.72341600  1
  O  O107  1  0.68632600  0.41496900  0.22341600  1
  O  O108  1  0.72110200  0.01831100  0.30363400  1
  O  O109  1  0.22110200  0.48168900  0.80363400  1
  O  O110  1  0.27889800  0.98168900  0.69636600  1
  O  O111  1  0.77889800  0.51831100  0.19636600  1
  O  O112  1  0.39023750  0.15030550  0.30931300  1
  O  O113  1  0.89023750  0.34969450  0.80931300  1
  O  O114  1  0.60976250  0.84969450  0.69068700  1
  O  O115  1  0.10976250  0.65030550  0.19068700  1
  O  O116  1  0.41197600  0.36143700  0.47049800  1
  O  O117  1  0.91197600  0.13856300  0.97049800  1
  O  O118  1  0.58802400  0.63856300  0.52950200  1
  O  O119  1  0.08802400  0.86143700  0.02950200  1
  O  O120  1  0.57311900  0.64648500  0.34455500  1
  O  O121  1  0.57311900  0.35351500  0.84455500  1
  O  O122  1  0.42688100  0.35351500  0.65544500  1
  O  O123  1  0.42688100  0.64648500  0.15544500  1
  O  O124  1  0.59419800  0.04100400  0.95132000  1
  O  O125  1  0.59419800  0.95899600  0.45132000  1
  O  O126  1  0.40580200  0.95899600  0.04868000  1
  O  O127  1  0.40580200  0.04100400  0.54868000  1
  O  O128  1  0.66556550  0.90202150  0.89984600  1
  O  O129  1  0.66556550  0.09797850  0.39984600  1
  O  O130  1  0.33443450  0.09797850  0.10015400  1
  O  O131  1  0.33443450  0.90202150  0.60015400  1
  O  O132  1  0.28885650  0.12648650  0.43178900  1
  O  O133  1  0.78885650  0.37351350  0.93178900  1
  O  O134  1  0.71114350  0.87351350  0.56821100  1
  O  O135  1  0.21114350  0.62648650  0.06821100  1
  O  O136  1  0.32999800  0.78863700  0.42988700  1
  O  O137  1  0.82999800  0.71136300  0.92988700  1
  O  O138  1  0.67000200  0.21136300  0.57011300  1
  O  O139  1  0.17000200  0.28863700  0.07011300  1
  O  O140  1  0.42487700  0.48498200  0.32432800  1
  O  O141  1  0.42487700  0.51501800  0.82432800  1
  O  O142  1  0.57512300  0.51501800  0.67567200  1
  O  O143  1  0.57512300  0.48498200  0.17567200  1
  O  O144  1  0.63517750  0.18733350  0.76391200  1
  O  O145  1  0.13517750  0.31266650  0.26391200  1
  O  O146  1  0.36482250  0.81266650  0.23608800  1
  O  O147  1  0.86482250  0.68733350  0.73608800  1
  O  O148  1  0.49182800  0.80203900  0.37208500  1
  O  O149  1  0.49182800  0.19796100  0.87208500  1
  O  O150  1  0.50817200  0.19796100  0.62791500  1
  O  O151  1  0.50817200  0.80203900  0.12791500  1
  O  O152  1  0.31367400  0.41496900  0.27658400  1
  O  O153  1  0.81367400  0.08503100  0.77658400  1
  O  O154  1  0.68632600  0.58503100  0.72341600  1
  O  O155  1  0.18632600  0.91496900  0.22341600  1
  O  O156  1  0.22110200  0.51831100  0.30363400  1
  O  O157  1  0.72110200  0.98168900  0.80363400  1
  O  O158  1  0.77889800  0.48168900  0.69636600  1
  O  O159  1  0.27889800  0.01831100  0.19636600  1
