# generated using pymatgen
data_LiV(SiO3)2
_symmetry_space_group_name_H-M   'P 1'
_cell_length_a   9.86674200
_cell_length_b   8.84275400
_cell_length_c   5.36607803
_cell_angle_alpha   90.00000000
_cell_angle_beta   111.14203142
_cell_angle_gamma   90.00000000
_symmetry_Int_Tables_number   1
_chemical_formula_structural   LiV(SiO3)2
_chemical_formula_sum   'Li4 V4 Si8 O24'
_cell_volume   436.67189915
_cell_formula_units_Z   4
loop_
 _symmetry_equiv_pos_site_id
 _symmetry_equiv_pos_as_xyz
  1  'x, y, z'
loop_
 _atom_site_type_symbol
 _atom_site_label
 _atom_site_symmetry_multiplicity
 _atom_site_fract_x
 _atom_site_fract_y
 _atom_site_fract_z
 _atom_site_occupancy
  Li  Li0  1  0.00000000  0.25637200  0.25000000  1
  Li  Li1  1  0.00000000  0.74362800  0.75000000  1
  Li  Li2  1  0.50000000  0.75637200  0.25000000  1
  Li  Li3  1  0.50000000  0.24362800  0.75000000  1
  V  V4  1  0.00000000  0.90214100  0.25000000  1
  V  V5  1  0.00000000  0.09785900  0.75000000  1
  V  V6  1  0.50000000  0.40214100  0.25000000  1
  V  V7  1  0.50000000  0.59785900  0.75000000  1
  Si  Si8  1  0.79777200  0.58936700  0.26918100  1
  Si  Si9  1  0.20222800  0.41063300  0.73081900  1
  Si  Si10  1  0.79777200  0.41063300  0.76918100  1
  Si  Si11  1  0.20222800  0.58936700  0.23081900  1
  Si  Si12  1  0.29777200  0.08936700  0.26918100  1
  Si  Si13  1  0.70222800  0.91063300  0.73081900  1
  Si  Si14  1  0.29777200  0.91063300  0.76918100  1
  Si  Si15  1  0.70222800  0.08936700  0.23081900  1
  O  O16  1  0.61735100  0.41465800  0.64911300  1
  O  O17  1  0.14542000  0.50426500  0.93393300  1
  O  O18  1  0.85458000  0.50426500  0.56606700  1
  O  O19  1  0.85458000  0.49573500  0.06606700  1
  O  O20  1  0.14542000  0.49573500  0.43393300  1
  O  O21  1  0.12956750  0.24470550  0.66687000  1
  O  O22  1  0.38264900  0.58534200  0.35088700  1
  O  O23  1  0.61735100  0.58534200  0.14911300  1
  O  O24  1  0.87043250  0.24470550  0.83313000  1
  O  O25  1  0.87043250  0.75529450  0.33313000  1
  O  O26  1  0.12956750  0.75529450  0.16687000  1
  O  O27  1  0.38264900  0.41465800  0.85088700  1
  O  O28  1  0.11735100  0.91465800  0.64911300  1
  O  O29  1  0.64542000  0.00426500  0.93393300  1
  O  O30  1  0.35458000  0.00426500  0.56606700  1
  O  O31  1  0.35458000  0.99573500  0.06606700  1
  O  O32  1  0.64542000  0.99573500  0.43393300  1
  O  O33  1  0.62956750  0.74470550  0.66687000  1
  O  O34  1  0.88264900  0.08534200  0.35088700  1
  O  O35  1  0.11735100  0.08534200  0.14911300  1
  O  O36  1  0.37043250  0.74470550  0.83313000  1
  O  O37  1  0.37043250  0.25529450  0.33313000  1
  O  O38  1  0.62956750  0.25529450  0.16687000  1
  O  O39  1  0.88264900  0.91465800  0.85088700  1
