# generated using pymatgen
data_Cu2SnSe3
_symmetry_space_group_name_H-M   'P 1'
_cell_length_a   7.05680800
_cell_length_b   12.21795600
_cell_length_c   7.09560429
_cell_angle_alpha   90.00000000
_cell_angle_beta   109.66563152
_cell_angle_gamma   90.00000000
_symmetry_Int_Tables_number   1
_chemical_formula_structural   Cu2SnSe3
_chemical_formula_sum   'Cu8 Sn4 Se12'
_cell_volume   576.09773875
_cell_formula_units_Z   4
loop_
 _symmetry_equiv_pos_site_id
 _symmetry_equiv_pos_as_xyz
  1  'x, y, z'
loop_
 _atom_site_type_symbol
 _atom_site_label
 _atom_site_symmetry_multiplicity
 _atom_site_fract_x
 _atom_site_fract_y
 _atom_site_fract_z
 _atom_site_occupancy
  Cu  Cu0  1  0.63449650  0.25301150  0.38035300  1
  Cu  Cu1  1  0.63449650  0.74698850  0.88035300  1
  Cu  Cu2  1  0.11999500  0.91777200  0.88040400  1
  Cu  Cu3  1  0.11999500  0.08222800  0.38040400  1
  Cu  Cu4  1  0.13449650  0.75301150  0.38035300  1
  Cu  Cu5  1  0.13449650  0.24698850  0.88035300  1
  Cu  Cu6  1  0.61999500  0.41777200  0.88040400  1
  Cu  Cu7  1  0.61999500  0.58222800  0.38040400  1
  Sn  Sn8  1  0.64265200  0.09102800  0.89726700  1
  Sn  Sn9  1  0.64265200  0.90897200  0.39726700  1
  Sn  Sn10  1  0.14265200  0.59102800  0.89726700  1
  Sn  Sn11  1  0.14265200  0.40897200  0.39726700  1
  Se  Se12  1  0.49049600  0.90619200  0.99518100  1
  Se  Se13  1  0.49803300  0.73828200  0.51853800  1
  Se  Se14  1  0.53332700  0.58413700  0.01825700  1
  Se  Se15  1  0.49049600  0.09380800  0.49518100  1
  Se  Se16  1  0.53332700  0.41586300  0.51825700  1
  Se  Se17  1  0.49803300  0.26171800  0.01853800  1
  Se  Se18  1  0.99049600  0.40619200  0.99518100  1
  Se  Se19  1  0.99803300  0.23828200  0.51853800  1
  Se  Se20  1  0.03332700  0.08413700  0.01825700  1
  Se  Se21  1  0.99049600  0.59380800  0.49518100  1
  Se  Se22  1  0.03332700  0.91586300  0.51825700  1
  Se  Se23  1  0.99803300  0.76171800  0.01853800  1
