# generated using pymatgen
data_Tl3AsO4
_symmetry_space_group_name_H-M   'P 1'
_cell_length_a   9.13193196
_cell_length_b   9.13193196
_cell_length_c   5.36966500
_cell_angle_alpha   90.00000000
_cell_angle_beta   90.00000000
_cell_angle_gamma   120.00000000
_symmetry_Int_Tables_number   1
_chemical_formula_structural   Tl3AsO4
_chemical_formula_sum   'Tl6 As2 O8'
_cell_volume   387.79585028
_cell_formula_units_Z   2
loop_
 _symmetry_equiv_pos_site_id
 _symmetry_equiv_pos_as_xyz
  1  'x, y, z'
loop_
 _atom_site_type_symbol
 _atom_site_label
 _atom_site_symmetry_multiplicity
 _atom_site_fract_x
 _atom_site_fract_y
 _atom_site_fract_z
 _atom_site_occupancy
  Tl  Tl0  1  0.08774500  0.37505900  0.49979600  1
  Tl  Tl1  1  0.62494100  0.71268600  0.49979600  1
  Tl  Tl2  1  0.71268600  0.08774500  0.99979600  1
  Tl  Tl3  1  0.91225500  0.62494100  0.99979600  1
  Tl  Tl4  1  0.37505900  0.28731400  0.99979600  1
  Tl  Tl5  1  0.28731400  0.91225500  0.49979600  1
  As  As6  1  0.66666667  0.33333333  0.48553200  1
  As  As7  1  0.33333333  0.66666667  0.98553200  1
  O  O8  1  0.12983200  0.52827300  0.08452300  1
  O  O9  1  0.60155900  0.12983200  0.58452300  1
  O  O10  1  0.52827300  0.39844100  0.58452300  1
  O  O11  1  0.47172700  0.60155900  0.08452300  1
  O  O12  1  0.66666667  0.33333333  0.15961100  1
  O  O13  1  0.87016800  0.47172700  0.58452300  1
  O  O14  1  0.33333333  0.66666667  0.65961100  1
  O  O15  1  0.39844100  0.87016800  0.08452300  1
