# generated using pymatgen
data_PrLuSe3
_symmetry_space_group_name_H-M   'P 1'
_cell_length_a   4.04905400
_cell_length_b   13.15792000
_cell_length_c   9.99265200
_cell_angle_alpha   90.00000000
_cell_angle_beta   90.00000000
_cell_angle_gamma   90.00000000
_symmetry_Int_Tables_number   1
_chemical_formula_structural   PrLuSe3
_chemical_formula_sum   'Pr4 Lu4 Se12'
_cell_volume   532.37980574
_cell_formula_units_Z   4
loop_
 _symmetry_equiv_pos_site_id
 _symmetry_equiv_pos_as_xyz
  1  'x, y, z'
loop_
 _atom_site_type_symbol
 _atom_site_label
 _atom_site_symmetry_multiplicity
 _atom_site_fract_x
 _atom_site_fract_y
 _atom_site_fract_z
 _atom_site_occupancy
  Pr  Pr0  1  0.50000000  0.24801300  0.25000000  1
  Pr  Pr1  1  0.00000000  0.25198700  0.75000000  1
  Pr  Pr2  1  0.00000000  0.74801300  0.25000000  1
  Pr  Pr3  1  0.50000000  0.75198700  0.75000000  1
  Lu  Lu4  1  0.00000000  0.00000000  0.50000000  1
  Lu  Lu5  1  0.00000000  0.00000000  0.00000000  1
  Lu  Lu6  1  0.50000000  0.50000000  0.50000000  1
  Lu  Lu7  1  0.50000000  0.50000000  0.00000000  1
  Se  Se8  1  0.50000000  0.41468200  0.75000000  1
  Se  Se9  1  0.00000000  0.08531800  0.25000000  1
  Se  Se10  1  0.00000000  0.35726900  0.06130300  1
  Se  Se11  1  0.50000000  0.14273100  0.93869700  1
  Se  Se12  1  0.00000000  0.35726900  0.43869700  1
  Se  Se13  1  0.50000000  0.14273100  0.56130300  1
  Se  Se14  1  0.00000000  0.91468200  0.75000000  1
  Se  Se15  1  0.50000000  0.58531800  0.25000000  1
  Se  Se16  1  0.50000000  0.85726900  0.06130300  1
  Se  Se17  1  0.00000000  0.64273100  0.93869700  1
  Se  Se18  1  0.50000000  0.85726900  0.43869700  1
  Se  Se19  1  0.00000000  0.64273100  0.56130300  1
