# generated using pymatgen
data_Ge(Te2As)2
_symmetry_space_group_name_H-M   'P 1'
_cell_length_a   4.12709028
_cell_length_b   4.12709028
_cell_length_c   41.36884945
_cell_angle_alpha   90.00000000
_cell_angle_beta   90.00000000
_cell_angle_gamma   120.00000000
_symmetry_Int_Tables_number   1
_chemical_formula_structural   Ge(Te2As)2
_chemical_formula_sum   'Ge3 Te12 As6'
_cell_volume   610.22783398
_cell_formula_units_Z   3
loop_
 _symmetry_equiv_pos_site_id
 _symmetry_equiv_pos_as_xyz
  1  'x, y, z'
loop_
 _atom_site_type_symbol
 _atom_site_label
 _atom_site_symmetry_multiplicity
 _atom_site_fract_x
 _atom_site_fract_y
 _atom_site_fract_z
 _atom_site_occupancy
  Ge  Ge0  1  0.00000000  0.00000000  0.00000000  1
  Ge  Ge1  1  0.66666667  0.33333333  0.33333333  1
  Ge  Ge2  1  0.33333333  0.66666667  0.66666667  1
  Te  Te3  1  0.00000000  0.00000000  0.12567600  1
  Te  Te4  1  0.00000000  0.00000000  0.29059300  1
  Te  Te5  1  0.66666667  0.33333333  0.20765733  1
  Te  Te6  1  0.66666667  0.33333333  0.04274033  1
  Te  Te7  1  0.66666667  0.33333333  0.45900933  1
  Te  Te8  1  0.66666667  0.33333333  0.62392633  1
  Te  Te9  1  0.33333333  0.66666667  0.54099067  1
  Te  Te10  1  0.33333333  0.66666667  0.37607367  1
  Te  Te11  1  0.33333333  0.66666667  0.79234267  1
  Te  Te12  1  0.33333333  0.66666667  0.95725967  1
  Te  Te13  1  0.00000000  0.00000000  0.87432400  1
  Te  Te14  1  0.00000000  0.00000000  0.70940700  1
  As  As15  1  0.33333333  0.66666667  0.24547667  1
  As  As16  1  0.33333333  0.66666667  0.08785667  1
  As  As17  1  0.00000000  0.00000000  0.57881000  1
  As  As18  1  0.00000000  0.00000000  0.42119000  1
  As  As19  1  0.66666667  0.33333333  0.91214333  1
  As  As20  1  0.66666667  0.33333333  0.75452333  1
