# generated using pymatgen
data_ZnTeO3
_symmetry_space_group_name_H-M   'P 1'
_cell_length_a   6.45244500
_cell_length_b   7.54967200
_cell_length_c   12.42932300
_cell_angle_alpha   90.00000000
_cell_angle_beta   90.00000000
_cell_angle_gamma   90.00000000
_symmetry_Int_Tables_number   1
_chemical_formula_structural   ZnTeO3
_chemical_formula_sum   'Zn8 Te8 O24'
_cell_volume   605.48009354
_cell_formula_units_Z   8
loop_
 _symmetry_equiv_pos_site_id
 _symmetry_equiv_pos_as_xyz
  1  'x, y, z'
loop_
 _atom_site_type_symbol
 _atom_site_label
 _atom_site_symmetry_multiplicity
 _atom_site_fract_x
 _atom_site_fract_y
 _atom_site_fract_z
 _atom_site_occupancy
  Zn  Zn0  1  0.87882200  0.89081700  0.58998700  1
  Zn  Zn1  1  0.37882200  0.10918300  0.91001300  1
  Zn  Zn2  1  0.62117800  0.39081700  0.41001300  1
  Zn  Zn3  1  0.12117800  0.60918300  0.08998700  1
  Zn  Zn4  1  0.12117800  0.10918300  0.41001300  1
  Zn  Zn5  1  0.62117800  0.89081700  0.08998700  1
  Zn  Zn6  1  0.37882200  0.60918300  0.58998700  1
  Zn  Zn7  1  0.87882200  0.39081700  0.91001300  1
  Te  Te8  1  0.90783300  0.94182000  0.85601700  1
  Te  Te9  1  0.40783300  0.05818000  0.64398300  1
  Te  Te10  1  0.59216700  0.44182000  0.14398300  1
  Te  Te11  1  0.09216700  0.55818000  0.35601700  1
  Te  Te12  1  0.09216700  0.05818000  0.14398300  1
  Te  Te13  1  0.59216700  0.94182000  0.35601700  1
  Te  Te14  1  0.40783300  0.55818000  0.85601700  1
  Te  Te15  1  0.90783300  0.44182000  0.64398300  1
  O  O16  1  0.52521500  0.34224500  0.91107400  1
  O  O17  1  0.02521500  0.65775500  0.58892600  1
  O  O18  1  0.97478500  0.84224500  0.08892600  1
  O  O19  1  0.47478500  0.15775500  0.41107400  1
  O  O20  1  0.47478500  0.65775500  0.08892600  1
  O  O21  1  0.97478500  0.34224500  0.41107400  1
  O  O22  1  0.02521500  0.15775500  0.91107400  1
  O  O23  1  0.52521500  0.84224500  0.58892600  1
  O  O24  1  0.65363900  0.46077900  0.56595100  1
  O  O25  1  0.15363900  0.53922100  0.93404900  1
  O  O26  1  0.84636100  0.96077900  0.43404900  1
  O  O27  1  0.34636100  0.03922100  0.06595100  1
  O  O28  1  0.34636100  0.53922100  0.43404900  1
  O  O29  1  0.84636100  0.46077900  0.06595100  1
  O  O30  1  0.15363900  0.03922100  0.56595100  1
  O  O31  1  0.65363900  0.96077900  0.93404900  1
  O  O32  1  0.79956600  0.52821200  0.77660400  1
  O  O33  1  0.29956600  0.47178800  0.72339600  1
  O  O34  1  0.70043400  0.02821200  0.22339600  1
  O  O35  1  0.20043400  0.97178800  0.27660400  1
  O  O36  1  0.20043400  0.47178800  0.22339600  1
  O  O37  1  0.70043400  0.52821200  0.27660400  1
  O  O38  1  0.29956600  0.97178800  0.77660400  1
  O  O39  1  0.79956600  0.02821200  0.72339600  1
