# generated using pymatgen
data_KPrS2
_symmetry_space_group_name_H-M   'P 1'
_cell_length_a   4.23350010
_cell_length_b   4.23350010
_cell_length_c   22.20080164
_cell_angle_alpha   90.00000000
_cell_angle_beta   90.00000000
_cell_angle_gamma   120.00000000
_symmetry_Int_Tables_number   1
_chemical_formula_structural   KPrS2
_chemical_formula_sum   'K3 Pr3 S6'
_cell_volume   344.58664140
_cell_formula_units_Z   3
loop_
 _symmetry_equiv_pos_site_id
 _symmetry_equiv_pos_as_xyz
  1  'x, y, z'
loop_
 _atom_site_type_symbol
 _atom_site_label
 _atom_site_symmetry_multiplicity
 _atom_site_fract_x
 _atom_site_fract_y
 _atom_site_fract_z
 _atom_site_occupancy
  K  K0  1  0.33333333  0.66666667  0.16666667  1
  K  K1  1  1.00000000  1.00000000  0.50000000  1
  K  K2  1  0.66666667  0.33333333  0.83333333  1
  Pr  Pr3  1  0.00000000  0.00000000  0.00000000  1
  Pr  Pr4  1  0.66666667  0.33333333  0.33333333  1
  Pr  Pr5  1  0.33333333  0.66666667  0.66666667  1
  S  S6  1  0.00000000  0.00000000  0.26378400  1
  S  S7  1  0.66666667  0.33333333  0.06954933  1
  S  S8  1  0.66666667  0.33333333  0.59711733  1
  S  S9  1  0.33333333  0.66666667  0.40288267  1
  S  S10  1  0.33333333  0.66666667  0.93045067  1
  S  S11  1  0.00000000  0.00000000  0.73621600  1
