# generated using pymatgen
data_Na6Si2Se7
_symmetry_space_group_name_H-M   'P 1'
_cell_length_a   9.48597200
_cell_length_b   10.94037400
_cell_length_c   15.98160302
_cell_angle_alpha   90.00000000
_cell_angle_beta   104.68831493
_cell_angle_gamma   90.00000000
_symmetry_Int_Tables_number   1
_chemical_formula_structural   Na6Si2Se7
_chemical_formula_sum   'Na24 Si8 Se28'
_cell_volume   1604.36907339
_cell_formula_units_Z   4
loop_
 _symmetry_equiv_pos_site_id
 _symmetry_equiv_pos_as_xyz
  1  'x, y, z'
loop_
 _atom_site_type_symbol
 _atom_site_label
 _atom_site_symmetry_multiplicity
 _atom_site_fract_x
 _atom_site_fract_y
 _atom_site_fract_z
 _atom_site_occupancy
  Na  Na0  1  0.50000000  0.91845400  0.25000000  1
  Na  Na1  1  0.50000000  0.08154600  0.75000000  1
  Na  Na2  1  0.50000000  0.00000000  0.00000000  1
  Na  Na3  1  0.50000000  0.00000000  0.50000000  1
  Na  Na4  1  0.61931250  0.35215450  0.07141400  1
  Na  Na5  1  0.38068750  0.35215450  0.42858600  1
  Na  Na6  1  0.38068750  0.64784550  0.92858600  1
  Na  Na7  1  0.61931250  0.64784550  0.57141400  1
  Na  Na8  1  0.73320200  0.22189000  0.35789000  1
  Na  Na9  1  0.26679800  0.22189000  0.14211000  1
  Na  Na10  1  0.26679800  0.77811000  0.64211000  1
  Na  Na11  1  0.73320200  0.77811000  0.85789000  1
  Na  Na12  1  0.00000000  0.41845400  0.25000000  1
  Na  Na13  1  0.00000000  0.58154600  0.75000000  1
  Na  Na14  1  0.00000000  0.50000000  0.00000000  1
  Na  Na15  1  0.00000000  0.50000000  0.50000000  1
  Na  Na16  1  0.11931250  0.85215450  0.07141400  1
  Na  Na17  1  0.88068750  0.85215450  0.42858600  1
  Na  Na18  1  0.88068750  0.14784550  0.92858600  1
  Na  Na19  1  0.11931250  0.14784550  0.57141400  1
  Na  Na20  1  0.23320200  0.72189000  0.35789000  1
  Na  Na21  1  0.76679800  0.72189000  0.14211000  1
  Na  Na22  1  0.76679800  0.27811000  0.64211000  1
  Na  Na23  1  0.23320200  0.27811000  0.85789000  1
  Si  Si24  1  0.84349000  0.07964700  0.14077800  1
  Si  Si25  1  0.15651000  0.07964700  0.35922200  1
  Si  Si26  1  0.84349000  0.92035300  0.64077800  1
  Si  Si27  1  0.15651000  0.92035300  0.85922200  1
  Si  Si28  1  0.34349000  0.57964700  0.14077800  1
  Si  Si29  1  0.65651000  0.57964700  0.35922200  1
  Si  Si30  1  0.34349000  0.42035300  0.64077800  1
  Si  Si31  1  0.65651000  0.42035300  0.85922200  1
  Se  Se32  1  0.50000000  0.46396800  0.25000000  1
  Se  Se33  1  0.50000000  0.53603200  0.75000000  1
  Se  Se34  1  0.44567950  0.75440450  0.10623500  1
  Se  Se35  1  0.55432050  0.75440450  0.39376500  1
  Se  Se36  1  0.55432050  0.24559550  0.89376500  1
  Se  Se37  1  0.44567950  0.24559550  0.60623500  1
  Se  Se38  1  0.80547400  0.93528500  0.03284800  1
  Se  Se39  1  0.19452600  0.93528500  0.46715200  1
  Se  Se40  1  0.19452600  0.06471500  0.96715200  1
  Se  Se41  1  0.80547400  0.06471500  0.53284800  1
  Se  Se42  1  0.63221300  0.12369200  0.17890400  1
  Se  Se43  1  0.36778700  0.12369200  0.32109600  1
  Se  Se44  1  0.36778700  0.87630800  0.82109600  1
  Se  Se45  1  0.63221300  0.87630800  0.67890400  1
  Se  Se46  1  0.00000000  0.96396800  0.25000000  1
  Se  Se47  1  0.00000000  0.03603200  0.75000000  1
  Se  Se48  1  0.94567950  0.25440450  0.10623500  1
  Se  Se49  1  0.05432050  0.25440450  0.39376500  1
  Se  Se50  1  0.05432050  0.74559550  0.89376500  1
  Se  Se51  1  0.94567950  0.74559550  0.60623500  1
  Se  Se52  1  0.30547400  0.43528500  0.03284800  1
  Se  Se53  1  0.69452600  0.43528500  0.46715200  1
  Se  Se54  1  0.69452600  0.56471500  0.96715200  1
  Se  Se55  1  0.30547400  0.56471500  0.53284800  1
  Se  Se56  1  0.13221300  0.62369200  0.17890400  1
  Se  Se57  1  0.86778700  0.62369200  0.32109600  1
  Se  Se58  1  0.86778700  0.37630800  0.82109600  1
  Se  Se59  1  0.13221300  0.37630800  0.67890400  1
