# generated using pymatgen
data_CsCa10(PO4)7
_symmetry_space_group_name_H-M   'P 1'
_cell_length_a   10.68435602
_cell_length_b   10.68435602
_cell_length_c   37.49407544
_cell_angle_alpha   90.00000000
_cell_angle_beta   90.00000000
_cell_angle_gamma   120.00000000
_symmetry_Int_Tables_number   1
_chemical_formula_structural   CsCa10(PO4)7
_chemical_formula_sum   'Cs6 Ca60 P42 O168'
_cell_volume   3706.72172053
_cell_formula_units_Z   6
loop_
 _symmetry_equiv_pos_site_id
 _symmetry_equiv_pos_as_xyz
  1  'x, y, z'
loop_
 _atom_site_type_symbol
 _atom_site_label
 _atom_site_symmetry_multiplicity
 _atom_site_fract_x
 _atom_site_fract_y
 _atom_site_fract_z
 _atom_site_occupancy
  Cs  Cs0  1  0.33333333  0.66666667  0.00037667  1
  Cs  Cs1  1  0.66666667  0.33333333  0.16704333  1
  Cs  Cs2  1  0.00000000  0.00000000  0.33371000  1
  Cs  Cs3  1  0.33333333  0.66666667  0.50037667  1
  Cs  Cs4  1  0.66666667  0.33333333  0.66704333  1
  Cs  Cs5  1  0.00000000  0.00000000  0.83371000  1
  Ca  Ca6  1  0.00000000  0.00000000  0.01320700  1
  Ca  Ca7  1  0.33333333  0.66666667  0.17987367  1
  Ca  Ca8  1  0.27360233  0.14268067  0.08177667  1
  Ca  Ca9  1  0.86907833  0.72639767  0.08177667  1
  Ca  Ca10  1  0.85731933  0.13092167  0.08177667  1
  Ca  Ca11  1  0.60693567  0.79758833  0.24844333  1
  Ca  Ca12  1  0.19065267  0.39306433  0.24844333  1
  Ca  Ca13  1  0.20241167  0.80934733  0.24844333  1
  Ca  Ca14  1  0.45578333  0.51336867  0.11232267  1
  Ca  Ca15  1  0.05758533  0.54421667  0.11232267  1
  Ca  Ca16  1  0.48663133  0.94241467  0.11232267  1
  Ca  Ca17  1  0.78911667  0.60908133  0.27898933  1
  Ca  Ca18  1  0.81996467  0.21088333  0.27898933  1
  Ca  Ca19  1  0.39091867  0.18003533  0.27898933  1
  Ca  Ca20  1  0.54884300  0.47369600  0.02053500  1
  Ca  Ca21  1  0.92485300  0.45115700  0.02053500  1
  Ca  Ca22  1  0.52630400  0.07514700  0.02053500  1
  Ca  Ca23  1  0.88217633  0.74181367  0.18720167  1
  Ca  Ca24  1  0.85963733  0.11782367  0.18720167  1
  Ca  Ca25  1  0.25818633  0.14036267  0.18720167  1
  Ca  Ca26  1  0.66666667  0.33333333  0.34654033  1
  Ca  Ca27  1  0.00000000  0.00000000  0.51320700  1
  Ca  Ca28  1  0.94026900  0.47601400  0.41511000  1
  Ca  Ca29  1  0.53574500  0.05973100  0.41511000  1
  Ca  Ca30  1  0.52398600  0.46425500  0.41511000  1
  Ca  Ca31  1  0.27360233  0.13092167  0.58177667  1
  Ca  Ca32  1  0.85731933  0.72639767  0.58177667  1
  Ca  Ca33  1  0.86907833  0.14268067  0.58177667  1
  Ca  Ca34  1  0.12245000  0.84670200  0.44565600  1
  Ca  Ca35  1  0.72425200  0.87755000  0.44565600  1
  Ca  Ca36  1  0.15329800  0.27574800  0.44565600  1
  Ca  Ca37  1  0.45578333  0.94241467  0.61232267  1
  Ca  Ca38  1  0.48663133  0.54421667  0.61232267  1
  Ca  Ca39  1  0.05758533  0.51336867  0.61232267  1
  Ca  Ca40  1  0.21550967  0.80702933  0.35386833  1
  Ca  Ca41  1  0.59151967  0.78449033  0.35386833  1
  Ca  Ca42  1  0.19297067  0.40848033  0.35386833  1
  Ca  Ca43  1  0.54884300  0.07514700  0.52053500  1
  Ca  Ca44  1  0.52630400  0.45115700  0.52053500  1
  Ca  Ca45  1  0.92485300  0.47369600  0.52053500  1
  Ca  Ca46  1  0.33333333  0.66666667  0.67987367  1
  Ca  Ca47  1  0.66666667  0.33333333  0.84654033  1
  Ca  Ca48  1  0.60693567  0.80934733  0.74844333  1
  Ca  Ca49  1  0.20241167  0.39306433  0.74844333  1
  Ca  Ca50  1  0.19065267  0.79758833  0.74844333  1
  Ca  Ca51  1  0.94026900  0.46425500  0.91511000  1
  Ca  Ca52  1  0.52398600  0.05973100  0.91511000  1
  Ca  Ca53  1  0.53574500  0.47601400  0.91511000  1
  Ca  Ca54  1  0.78911667  0.18003533  0.77898933  1
  Ca  Ca55  1  0.39091867  0.21088333  0.77898933  1
  Ca  Ca56  1  0.81996467  0.60908133  0.77898933  1
  Ca  Ca57  1  0.12245000  0.27574800  0.94565600  1
  Ca  Ca58  1  0.15329800  0.87755000  0.94565600  1
  Ca  Ca59  1  0.72425200  0.84670200  0.94565600  1
  Ca  Ca60  1  0.88217633  0.14036267  0.68720167  1
  Ca  Ca61  1  0.25818633  0.11782367  0.68720167  1
  Ca  Ca62  1  0.85963733  0.74181367  0.68720167  1
  Ca  Ca63  1  0.21550967  0.40848033  0.85386833  1
  Ca  Ca64  1  0.19297067  0.78449033  0.85386833  1
  Ca  Ca65  1  0.59151967  0.80702933  0.85386833  1
  P  P66  1  0.66666667  0.33333333  0.07752333  1
  P  P67  1  0.00000000  0.00000000  0.24419000  1
  P  P68  1  0.14131867  0.32083733  0.14736833  1
  P  P69  1  0.17951867  0.85868133  0.14736833  1
  P  P70  1  0.67916267  0.82048133  0.14736833  1
  P  P71  1  0.47465200  0.48714800  0.31403500  1
  P  P72  1  0.01249600  0.52534800  0.31403500  1
  P  P73  1  0.51285200  0.98750400  0.31403500  1
  P  P74  1  0.15385967  0.34397333  0.04546333  1
  P  P75  1  0.19011367  0.84614033  0.04546333  1
  P  P76  1  0.65602667  0.80988633  0.04546333  1
  P  P77  1  0.48719300  0.47655300  0.21213000  1
  P  P78  1  0.98936000  0.51280700  0.21213000  1
  P  P79  1  0.52344700  0.01064000  0.21213000  1
  P  P80  1  0.33333333  0.66666667  0.41085667  1
  P  P81  1  0.66666667  0.33333333  0.57752333  1
  P  P82  1  0.80798533  0.65417067  0.48070167  1
  P  P83  1  0.84618533  0.19201467  0.48070167  1
  P  P84  1  0.34582933  0.15381467  0.48070167  1
  P  P85  1  0.14131867  0.82048133  0.64736833  1
  P  P86  1  0.67916267  0.85868133  0.64736833  1
  P  P87  1  0.17951867  0.32083733  0.64736833  1
  P  P88  1  0.82052633  0.67730667  0.37879667  1
  P  P89  1  0.85678033  0.17947367  0.37879667  1
  P  P90  1  0.32269333  0.14321967  0.37879667  1
  P  P91  1  0.15385967  0.80988633  0.54546333  1
  P  P92  1  0.65602667  0.84614033  0.54546333  1
  P  P93  1  0.19011367  0.34397333  0.54546333  1
  P  P94  1  0.00000000  0.00000000  0.74419000  1
  P  P95  1  0.33333333  0.66666667  0.91085667  1
  P  P96  1  0.47465200  0.98750400  0.81403500  1
  P  P97  1  0.51285200  0.52534800  0.81403500  1
  P  P98  1  0.01249600  0.48714800  0.81403500  1
  P  P99  1  0.80798533  0.15381467  0.98070167  1
  P  P100  1  0.34582933  0.19201467  0.98070167  1
  P  P101  1  0.84618533  0.65417067  0.98070167  1
  P  P102  1  0.48719300  0.01064000  0.71213000  1
  P  P103  1  0.52344700  0.51280700  0.71213000  1
  P  P104  1  0.98936000  0.47655300  0.71213000  1
  P  P105  1  0.82052633  0.14321967  0.87879667  1
  P  P106  1  0.32269333  0.17947367  0.87879667  1
  P  P107  1  0.85678033  0.67730667  0.87879667  1
  O  O108  1  0.66666667  0.33333333  0.03581833  1
  O  O109  1  0.00000000  0.00000000  0.20248500  1
  O  O110  1  0.53507067  0.34707033  0.09041133  1
  O  O111  1  0.81199967  0.46492933  0.09041133  1
  O  O112  1  0.65292967  0.18800033  0.09041133  1
  O  O113  1  0.86840400  0.85466700  0.25707800  1
  O  O114  1  0.98626300  0.13159600  0.25707800  1
  O  O115  1  0.14533300  0.01373700  0.25707800  1
  O  O116  1  0.22932267  0.48423833  0.13696033  1
  O  O117  1  0.25491567  0.77067733  0.13696033  1
  O  O118  1  0.51576167  0.74508433  0.13696033  1
  O  O119  1  0.56265600  0.41175100  0.30362700  1
  O  O120  1  0.84909500  0.43734400  0.30362700  1
  O  O121  1  0.58824900  0.15090500  0.30362700  1
  O  O122  1  0.98237767  0.26009833  0.13487833  1
  O  O123  1  0.27772067  0.01762233  0.13487833  1
  O  O124  1  0.73990167  0.72227933  0.13487833  1
  O  O125  1  0.31571100  0.38894600  0.30154500  1
  O  O126  1  0.07323500  0.68428900  0.30154500  1
  O  O127  1  0.61105400  0.92676500  0.30154500  1
  O  O128  1  0.13705233  0.29787467  0.18837767  1
  O  O129  1  0.16082233  0.86294767  0.18837767  1
  O  O130  1  0.70212533  0.83917767  0.18837767  1
  O  O131  1  0.80371900  0.17251100  0.02171100  1
  O  O132  1  0.36879200  0.19628100  0.02171100  1
  O  O133  1  0.82748900  0.63120800  0.02171100  1
  O  O134  1  0.21736300  0.24384200  0.13060200  1
  O  O135  1  0.02647900  0.78263700  0.13060200  1
  O  O136  1  0.75615800  0.97352100  0.13060200  1
  O  O137  1  0.55069633  0.64018767  0.29726867  1
  O  O138  1  0.08949133  0.44930367  0.29726867  1
  O  O139  1  0.35981233  0.91050867  0.29726867  1
  O  O140  1  0.05702467  0.39641033  0.06431233  1
  O  O141  1  0.33938567  0.94297533  0.06431233  1
  O  O142  1  0.60358967  0.66061433  0.06431233  1
  O  O143  1  0.39035800  0.32728100  0.23097900  1
  O  O144  1  0.93692300  0.60964200  0.23097900  1
  O  O145  1  0.67271900  0.06307700  0.23097900  1
  O  O146  1  0.08712367  0.18075033  0.05605733  1
  O  O147  1  0.09362667  0.91287633  0.05605733  1
  O  O148  1  0.81924967  0.90637333  0.05605733  1
  O  O149  1  0.42045700  0.57304000  0.22272400  1
  O  O150  1  0.15258300  0.57954300  0.22272400  1
  O  O151  1  0.42696000  0.84741700  0.22272400  1
  O  O152  1  0.31394367  0.42612133  0.05773633  1
  O  O153  1  0.11217767  0.68605633  0.05773633  1
  O  O154  1  0.57387867  0.88782233  0.05773633  1
  O  O155  1  0.64727700  0.55448900  0.22440300  1
  O  O156  1  0.90721200  0.35272300  0.22440300  1
  O  O157  1  0.44551100  0.09278800  0.22440300  1
  O  O158  1  0.14087700  0.35982500  0.00495500  1
  O  O159  1  0.21894800  0.85912300  0.00495500  1
  O  O160  1  0.64017500  0.78105200  0.00495500  1
  O  O161  1  0.47421033  0.44771867  0.17162167  1
  O  O162  1  0.97350833  0.52578967  0.17162167  1
  O  O163  1  0.55228133  0.02649167  0.17162167  1
  O  O164  1  0.33333333  0.66666667  0.36915167  1
  O  O165  1  0.66666667  0.33333333  0.53581833  1
  O  O166  1  0.20173733  0.68040367  0.42374467  1
  O  O167  1  0.47866633  0.79826267  0.42374467  1
  O  O168  1  0.31959633  0.52133367  0.42374467  1
  O  O169  1  0.53507067  0.18800033  0.59041133  1
  O  O170  1  0.65292967  0.46492933  0.59041133  1
  O  O171  1  0.81199967  0.34707033  0.59041133  1
  O  O172  1  0.89598933  0.81757167  0.47029367  1
  O  O173  1  0.92158233  0.10401067  0.47029367  1
  O  O174  1  0.18242833  0.07841767  0.47029367  1
  O  O175  1  0.22932267  0.74508433  0.63696033  1
  O  O176  1  0.51576167  0.77067733  0.63696033  1
  O  O177  1  0.25491567  0.48423833  0.63696033  1
  O  O178  1  0.64904433  0.59343167  0.46821167  1
  O  O179  1  0.94438733  0.35095567  0.46821167  1
  O  O180  1  0.40656833  0.05561267  0.46821167  1
  O  O181  1  0.98237767  0.72227933  0.63487833  1
  O  O182  1  0.73990167  0.01762233  0.63487833  1
  O  O183  1  0.27772067  0.26009833  0.63487833  1
  O  O184  1  0.80371900  0.63120800  0.52171100  1
  O  O185  1  0.82748900  0.19628100  0.52171100  1
  O  O186  1  0.36879200  0.17251100  0.52171100  1
  O  O187  1  0.47038567  0.50584433  0.35504433  1
  O  O188  1  0.03545867  0.52961433  0.35504433  1
  O  O189  1  0.49415567  0.96454133  0.35504433  1
  O  O190  1  0.88402967  0.57717533  0.46393533  1
  O  O191  1  0.69314567  0.11597033  0.46393533  1
  O  O192  1  0.42282467  0.30685433  0.46393533  1
  O  O193  1  0.21736300  0.97352100  0.63060200  1
  O  O194  1  0.75615800  0.78263700  0.63060200  1
  O  O195  1  0.02647900  0.24384200  0.63060200  1
  O  O196  1  0.72369133  0.72974367  0.39764567  1
  O  O197  1  0.00605233  0.27630867  0.39764567  1
  O  O198  1  0.27025633  0.99394767  0.39764567  1
  O  O199  1  0.05702467  0.66061433  0.56431233  1
  O  O200  1  0.60358967  0.94297533  0.56431233  1
  O  O201  1  0.33938567  0.39641033  0.56431233  1
  O  O202  1  0.75379033  0.51408367  0.38939067  1
  O  O203  1  0.76029333  0.24620967  0.38939067  1
  O  O204  1  0.48591633  0.23970667  0.38939067  1
  O  O205  1  0.08712367  0.90637333  0.55605733  1
  O  O206  1  0.81924967  0.91287633  0.55605733  1
  O  O207  1  0.09362667  0.18075033  0.55605733  1
  O  O208  1  0.98061033  0.75945467  0.39106967  1
  O  O209  1  0.77884433  0.01938967  0.39106967  1
  O  O210  1  0.24054533  0.22115567  0.39106967  1
  O  O211  1  0.31394367  0.88782233  0.55773633  1
  O  O212  1  0.57387867  0.68605633  0.55773633  1
  O  O213  1  0.11217767  0.42612133  0.55773633  1
  O  O214  1  0.80754367  0.69315833  0.33828833  1
  O  O215  1  0.88561467  0.19245633  0.33828833  1
  O  O216  1  0.30684167  0.11438533  0.33828833  1
  O  O217  1  0.14087700  0.78105200  0.50495500  1
  O  O218  1  0.64017500  0.85912300  0.50495500  1
  O  O219  1  0.21894800  0.35982500  0.50495500  1
  O  O220  1  0.00000000  0.00000000  0.70248500  1
  O  O221  1  0.33333333  0.66666667  0.86915167  1
  O  O222  1  0.86840400  0.01373700  0.75707800  1
  O  O223  1  0.14533300  0.13159600  0.75707800  1
  O  O224  1  0.98626300  0.85466700  0.75707800  1
  O  O225  1  0.20173733  0.52133367  0.92374467  1
  O  O226  1  0.31959633  0.79826267  0.92374467  1
  O  O227  1  0.47866633  0.68040367  0.92374467  1
  O  O228  1  0.56265600  0.15090500  0.80362700  1
  O  O229  1  0.58824900  0.43734400  0.80362700  1
  O  O230  1  0.84909500  0.41175100  0.80362700  1
  O  O231  1  0.89598933  0.07841767  0.97029367  1
  O  O232  1  0.18242833  0.10401067  0.97029367  1
  O  O233  1  0.92158233  0.81757167  0.97029367  1
  O  O234  1  0.31571100  0.92676500  0.80154500  1
  O  O235  1  0.61105400  0.68428900  0.80154500  1
  O  O236  1  0.07323500  0.38894600  0.80154500  1
  O  O237  1  0.64904433  0.05561267  0.96821167  1
  O  O238  1  0.40656833  0.35095567  0.96821167  1
  O  O239  1  0.94438733  0.59343167  0.96821167  1
  O  O240  1  0.47038567  0.96454133  0.85504433  1
  O  O241  1  0.49415567  0.52961433  0.85504433  1
  O  O242  1  0.03545867  0.50584433  0.85504433  1
  O  O243  1  0.13705233  0.83917767  0.68837767  1
  O  O244  1  0.70212533  0.86294767  0.68837767  1
  O  O245  1  0.16082233  0.29787467  0.68837767  1
  O  O246  1  0.55069633  0.91050867  0.79726867  1
  O  O247  1  0.35981233  0.44930367  0.79726867  1
  O  O248  1  0.08949133  0.64018767  0.79726867  1
  O  O249  1  0.88402967  0.30685433  0.96393533  1
  O  O250  1  0.42282467  0.11597033  0.96393533  1
  O  O251  1  0.69314567  0.57717533  0.96393533  1
  O  O252  1  0.39035800  0.06307700  0.73097900  1
  O  O253  1  0.67271900  0.60964200  0.73097900  1
  O  O254  1  0.93692300  0.32728100  0.73097900  1
  O  O255  1  0.72369133  0.99394767  0.89764567  1
  O  O256  1  0.27025633  0.27630867  0.89764567  1
  O  O257  1  0.00605233  0.72974367  0.89764567  1
  O  O258  1  0.42045700  0.84741700  0.72272400  1
  O  O259  1  0.42696000  0.57954300  0.72272400  1
  O  O260  1  0.15258300  0.57304000  0.72272400  1
  O  O261  1  0.75379033  0.23970667  0.88939067  1
  O  O262  1  0.48591633  0.24620967  0.88939067  1
  O  O263  1  0.76029333  0.51408367  0.88939067  1
  O  O264  1  0.64727700  0.09278800  0.72440300  1
  O  O265  1  0.44551100  0.35272300  0.72440300  1
  O  O266  1  0.90721200  0.55448900  0.72440300  1
  O  O267  1  0.98061033  0.22115567  0.89106967  1
  O  O268  1  0.24054533  0.01938967  0.89106967  1
  O  O269  1  0.77884433  0.75945467  0.89106967  1
  O  O270  1  0.47421033  0.02649167  0.67162167  1
  O  O271  1  0.55228133  0.52578967  0.67162167  1
  O  O272  1  0.97350833  0.44771867  0.67162167  1
  O  O273  1  0.80754367  0.11438533  0.83828833  1
  O  O274  1  0.30684167  0.19245633  0.83828833  1
  O  O275  1  0.88561467  0.69315833  0.83828833  1
