# generated using pymatgen
data_Cd2Sb2O7
_symmetry_space_group_name_H-M   'P 1'
_cell_length_a   7.34109200
_cell_length_b   7.50329800
_cell_length_c   10.36649200
_cell_angle_alpha   90.00000000
_cell_angle_beta   90.00000000
_cell_angle_gamma   90.00000000
_symmetry_Int_Tables_number   1
_chemical_formula_structural   Cd2Sb2O7
_chemical_formula_sum   'Cd8 Sb8 O28'
_cell_volume   571.01126849
_cell_formula_units_Z   4
loop_
 _symmetry_equiv_pos_site_id
 _symmetry_equiv_pos_as_xyz
  1  'x, y, z'
loop_
 _atom_site_type_symbol
 _atom_site_label
 _atom_site_symmetry_multiplicity
 _atom_site_fract_x
 _atom_site_fract_y
 _atom_site_fract_z
 _atom_site_occupancy
  Cd  Cd0  1  0.75000000  0.25000000  0.25000000  1
  Cd  Cd1  1  0.25000000  0.25000000  0.25000000  1
  Cd  Cd2  1  0.00000000  0.00000000  0.00000000  1
  Cd  Cd3  1  0.00000000  0.00000000  0.50000000  1
  Cd  Cd4  1  0.25000000  0.75000000  0.75000000  1
  Cd  Cd5  1  0.75000000  0.75000000  0.75000000  1
  Cd  Cd6  1  0.50000000  0.50000000  0.50000000  1
  Cd  Cd7  1  0.50000000  0.50000000  0.00000000  1
  Sb  Sb8  1  0.75000000  0.75000000  0.25000000  1
  Sb  Sb9  1  0.25000000  0.75000000  0.25000000  1
  Sb  Sb10  1  0.50000000  0.00000000  0.50000000  1
  Sb  Sb11  1  0.50000000  0.00000000  0.00000000  1
  Sb  Sb12  1  0.25000000  0.25000000  0.75000000  1
  Sb  Sb13  1  0.75000000  0.25000000  0.75000000  1
  Sb  Sb14  1  0.00000000  0.50000000  0.00000000  1
  Sb  Sb15  1  0.00000000  0.50000000  0.50000000  1
  O  O16  1  0.70772800  0.93721500  0.38239000  1
  O  O17  1  0.70772800  0.06278500  0.61761000  1
  O  O18  1  0.29227200  0.93721500  0.11761000  1
  O  O19  1  0.29227200  0.06278500  0.88239000  1
  O  O20  1  0.29227200  0.06278500  0.61761000  1
  O  O21  1  0.29227200  0.93721500  0.38239000  1
  O  O22  1  0.70772800  0.06278500  0.88239000  1
  O  O23  1  0.70772800  0.93721500  0.11761000  1
  O  O24  1  0.00000000  0.15234200  0.75000000  1
  O  O25  1  0.00000000  0.84765800  0.25000000  1
  O  O26  1  0.50000000  0.23617000  0.40293100  1
  O  O27  1  0.50000000  0.76383000  0.59706900  1
  O  O28  1  0.00000000  0.73617000  0.59706900  1
  O  O29  1  0.00000000  0.26383000  0.40293100  1
  O  O30  1  0.20772800  0.43721500  0.88239000  1
  O  O31  1  0.20772800  0.56278500  0.11761000  1
  O  O32  1  0.79227200  0.43721500  0.61761000  1
  O  O33  1  0.79227200  0.56278500  0.38239000  1
  O  O34  1  0.79227200  0.56278500  0.11761000  1
  O  O35  1  0.79227200  0.43721500  0.88239000  1
  O  O36  1  0.20772800  0.56278500  0.38239000  1
  O  O37  1  0.20772800  0.43721500  0.61761000  1
  O  O38  1  0.50000000  0.65234200  0.25000000  1
  O  O39  1  0.50000000  0.34765800  0.75000000  1
  O  O40  1  0.00000000  0.73617000  0.90293100  1
  O  O41  1  0.00000000  0.26383000  0.09706900  1
  O  O42  1  0.50000000  0.23617000  0.09706900  1
  O  O43  1  0.50000000  0.76383000  0.90293100  1
