# generated using pymatgen
data_GeSe2
_symmetry_space_group_name_H-M   'P 1'
_cell_length_a   6.07063400
_cell_length_b   6.07063400
_cell_length_c   9.65054200
_cell_angle_alpha   90.00000000
_cell_angle_beta   90.00000000
_cell_angle_gamma   90.00000000
_symmetry_Int_Tables_number   1
_chemical_formula_structural   GeSe2
_chemical_formula_sum   'Ge4 Se8'
_cell_volume   355.64753672
_cell_formula_units_Z   4
loop_
 _symmetry_equiv_pos_site_id
 _symmetry_equiv_pos_as_xyz
  1  'x, y, z'
loop_
 _atom_site_type_symbol
 _atom_site_label
 _atom_site_symmetry_multiplicity
 _atom_site_fract_x
 _atom_site_fract_y
 _atom_site_fract_z
 _atom_site_occupancy
  Ge  Ge0  1  0.00000000  0.00000000  0.00000000  1
  Ge  Ge1  1  0.00000000  0.50000000  0.25000000  1
  Ge  Ge2  1  0.50000000  0.50000000  0.50000000  1
  Ge  Ge3  1  0.50000000  0.00000000  0.75000000  1
  Se  Se4  1  0.23392100  0.25000000  0.12500000  1
  Se  Se5  1  0.75000000  0.26607900  0.37500000  1
  Se  Se6  1  0.25000000  0.73392100  0.37500000  1
  Se  Se7  1  0.76607900  0.75000000  0.12500000  1
  Se  Se8  1  0.73392100  0.75000000  0.62500000  1
  Se  Se9  1  0.25000000  0.76607900  0.87500000  1
  Se  Se10  1  0.75000000  0.23392100  0.87500000  1
  Se  Se11  1  0.26607900  0.25000000  0.62500000  1
