# generated using pymatgen
data_Cs2LiAsO4
_symmetry_space_group_name_H-M   'P 1'
_cell_length_a   6.06785400
_cell_length_b   12.56826200
_cell_length_c   8.32893200
_cell_angle_alpha   90.00000000
_cell_angle_beta   90.00000000
_cell_angle_gamma   90.00000000
_symmetry_Int_Tables_number   1
_chemical_formula_structural   Cs2LiAsO4
_chemical_formula_sum   'Cs8 Li4 As4 O16'
_cell_volume   635.18416760
_cell_formula_units_Z   4
loop_
 _symmetry_equiv_pos_site_id
 _symmetry_equiv_pos_as_xyz
  1  'x, y, z'
loop_
 _atom_site_type_symbol
 _atom_site_label
 _atom_site_symmetry_multiplicity
 _atom_site_fract_x
 _atom_site_fract_y
 _atom_site_fract_z
 _atom_site_occupancy
  Cs  Cs0  1  0.00000000  0.06779300  0.14714900  1
  Cs  Cs1  1  0.50000000  0.43220700  0.64714900  1
  Cs  Cs2  1  0.50000000  0.10521100  0.50448800  1
  Cs  Cs3  1  0.00000000  0.39478900  0.00448800  1
  Cs  Cs4  1  0.50000000  0.56779300  0.14714900  1
  Cs  Cs5  1  0.00000000  0.93220700  0.64714900  1
  Cs  Cs6  1  0.00000000  0.60521100  0.50448800  1
  Cs  Cs7  1  0.50000000  0.89478900  0.00448800  1
  Li  Li8  1  0.50000000  0.29301700  0.23071000  1
  Li  Li9  1  0.00000000  0.20698300  0.73071000  1
  Li  Li10  1  0.00000000  0.79301700  0.23071000  1
  Li  Li11  1  0.50000000  0.70698300  0.73071000  1
  As  As12  1  0.50000000  0.19686400  0.94565000  1
  As  As13  1  0.00000000  0.30313600  0.44565000  1
  As  As14  1  0.00000000  0.69686400  0.94565000  1
  As  As15  1  0.50000000  0.80313600  0.44565000  1
  O  O16  1  0.73292050  0.15930850  0.84093600  1
  O  O17  1  0.76707950  0.34069150  0.34093600  1
  O  O18  1  0.50000000  0.13819300  0.13442500  1
  O  O19  1  0.00000000  0.36180700  0.63442500  1
  O  O20  1  0.26707950  0.15930850  0.84093600  1
  O  O21  1  0.23292050  0.34069150  0.34093600  1
  O  O22  1  0.00000000  0.16746600  0.48720500  1
  O  O23  1  0.50000000  0.33253400  0.98720500  1
  O  O24  1  0.23292050  0.65930850  0.84093600  1
  O  O25  1  0.26707950  0.84069150  0.34093600  1
  O  O26  1  0.00000000  0.63819300  0.13442500  1
  O  O27  1  0.50000000  0.86180700  0.63442500  1
  O  O28  1  0.76707950  0.65930850  0.84093600  1
  O  O29  1  0.73292050  0.84069150  0.34093600  1
  O  O30  1  0.50000000  0.66746600  0.48720500  1
  O  O31  1  0.00000000  0.83253400  0.98720500  1
