# generated using pymatgen
data_MgSiO3
_symmetry_space_group_name_H-M   'P 1'
_cell_length_a   5.12991500
_cell_length_b   8.95256200
_cell_length_c   18.53411000
_cell_angle_alpha   90.00000000
_cell_angle_beta   90.00000000
_cell_angle_gamma   90.00000000
_symmetry_Int_Tables_number   1
_chemical_formula_structural   MgSiO3
_chemical_formula_sum   'Mg16 Si16 O48'
_cell_volume   851.19535054
_cell_formula_units_Z   16
loop_
 _symmetry_equiv_pos_site_id
 _symmetry_equiv_pos_as_xyz
  1  'x, y, z'
loop_
 _atom_site_type_symbol
 _atom_site_label
 _atom_site_symmetry_multiplicity
 _atom_site_fract_x
 _atom_site_fract_y
 _atom_site_fract_z
 _atom_site_occupancy
  Mg  Mg0  1  0.10101400  0.59668700  0.87552000  1
  Mg  Mg1  1  0.89898600  0.40331300  0.37552000  1
  Mg  Mg2  1  0.39898600  0.59668700  0.37552000  1
  Mg  Mg3  1  0.60101400  0.40331300  0.87552000  1
  Mg  Mg4  1  0.10207300  0.23076900  0.87640600  1
  Mg  Mg5  1  0.89792700  0.76923100  0.37640600  1
  Mg  Mg6  1  0.39792700  0.23076900  0.37640600  1
  Mg  Mg7  1  0.60207300  0.76923100  0.87640600  1
  Mg  Mg8  1  0.80621300  0.90211800  0.12572300  1
  Mg  Mg9  1  0.19378700  0.09788200  0.62572300  1
  Mg  Mg10  1  0.69378700  0.90211800  0.62572300  1
  Mg  Mg11  1  0.30621300  0.09788200  0.12572300  1
  Mg  Mg12  1  0.30435400  0.73487900  0.12092600  1
  Mg  Mg13  1  0.69564600  0.26512100  0.62092600  1
  Mg  Mg14  1  0.19564600  0.73487900  0.62092600  1
  Mg  Mg15  1  0.80435400  0.26512100  0.12092600  1
  Si  Si16  1  0.97208700  0.40978000  0.72857200  1
  Si  Si17  1  0.02791300  0.59022000  0.22857200  1
  Si  Si18  1  0.52791300  0.40978000  0.22857200  1
  Si  Si19  1  0.47208700  0.59022000  0.72857200  1
  Si  Si20  1  0.03209700  0.90878100  0.77279100  1
  Si  Si21  1  0.96790300  0.09121900  0.27279100  1
  Si  Si22  1  0.46790300  0.90878100  0.27279100  1
  Si  Si23  1  0.53209700  0.09121900  0.77279100  1
  Si  Si24  1  0.24362800  0.41148000  0.52551500  1
  Si  Si25  1  0.75637200  0.58852000  0.02551500  1
  Si  Si26  1  0.25637200  0.41148000  0.02551500  1
  Si  Si27  1  0.74362800  0.58852000  0.52551500  1
  Si  Si28  1  0.85263700  0.08896300  0.47464000  1
  Si  Si29  1  0.14736300  0.91103700  0.97464000  1
  Si  Si30  1  0.64736300  0.08896300  0.97464000  1
  Si  Si31  1  0.35263700  0.91103700  0.47464000  1
  O  O32  1  0.95340100  0.41019000  0.81655700  1
  O  O33  1  0.04659900  0.58981000  0.31655700  1
  O  O34  1  0.54659900  0.41019000  0.31655700  1
  O  O35  1  0.45340100  0.58981000  0.81655700  1
  O  O36  1  0.01279800  0.25542200  0.68666200  1
  O  O37  1  0.98720200  0.74457800  0.18666200  1
  O  O38  1  0.48720200  0.25542200  0.18666200  1
  O  O39  1  0.51279800  0.74457800  0.68666200  1
  O  O40  1  0.17626400  0.53994700  0.69802600  1
  O  O41  1  0.82373600  0.46005300  0.19802600  1
  O  O42  1  0.32373600  0.53994700  0.19802600  1
  O  O43  1  0.67626400  0.46005300  0.69802600  1
  O  O44  1  0.03080500  0.90833000  0.68439100  1
  O  O45  1  0.96919500  0.09167000  0.18439100  1
  O  O46  1  0.46919500  0.90833000  0.18439100  1
  O  O47  1  0.53080500  0.09167000  0.68439100  1
  O  O48  1  0.92533500  0.76098200  0.81267200  1
  O  O49  1  0.07466500  0.23901800  0.31267200  1
  O  O50  1  0.57466500  0.76098200  0.31267200  1
  O  O51  1  0.42533500  0.23901800  0.81267200  1
  O  O52  1  0.83622500  0.04971800  0.80089700  1
  O  O53  1  0.16377500  0.95028200  0.30089700  1
  O  O54  1  0.66377500  0.04971800  0.30089700  1
  O  O55  1  0.33622500  0.95028200  0.80089700  1
  O  O56  1  0.23912500  0.40867400  0.43724700  1
  O  O57  1  0.76087500  0.59132600  0.93724700  1
  O  O58  1  0.26087500  0.40867400  0.93724700  1
  O  O59  1  0.73912500  0.59132600  0.43724700  1
  O  O60  1  0.36099100  0.26767400  0.56591700  1
  O  O61  1  0.63900900  0.73232600  0.06591700  1
  O  O62  1  0.13900900  0.26767400  0.06591700  1
  O  O63  1  0.86099100  0.73232600  0.56591700  1
  O  O64  1  0.93285200  0.44334100  0.55240300  1
  O  O65  1  0.06714800  0.55665900  0.05240300  1
  O  O66  1  0.56714800  0.44334100  0.05240300  1
  O  O67  1  0.43285200  0.55665900  0.55240300  1
  O  O68  1  0.85699700  0.09026300  0.56288500  1
  O  O69  1  0.14300300  0.90973700  0.06288500  1
  O  O70  1  0.64300300  0.09026300  0.06288500  1
  O  O71  1  0.35699700  0.90973700  0.56288500  1
  O  O72  1  0.73376000  0.23211600  0.43432600  1
  O  O73  1  0.26624000  0.76788400  0.93432600  1
  O  O74  1  0.76624000  0.23211600  0.93432600  1
  O  O75  1  0.23376000  0.76788400  0.43432600  1
  O  O76  1  0.16453800  0.05728800  0.44792400  1
  O  O77  1  0.83546200  0.94271200  0.94792400  1
  O  O78  1  0.33546200  0.05728800  0.94792400  1
  O  O79  1  0.66453800  0.94271200  0.44792400  1
