# generated using pymatgen
data_Sr2NiTeO6
_symmetry_space_group_name_H-M   'P 1'
_cell_length_a   9.78714417
_cell_length_b   5.64530197
_cell_length_c   5.71497339
_cell_angle_alpha   90.00000000
_cell_angle_beta   125.50712846
_cell_angle_gamma   90.00000000
_symmetry_Int_Tables_number   1
_chemical_formula_structural   Sr2NiTeO6
_chemical_formula_sum   'Sr4 Ni2 Te2 O12'
_cell_volume   257.04245619
_cell_formula_units_Z   2
loop_
 _symmetry_equiv_pos_site_id
 _symmetry_equiv_pos_as_xyz
  1  'x, y, z'
loop_
 _atom_site_type_symbol
 _atom_site_label
 _atom_site_symmetry_multiplicity
 _atom_site_fract_x
 _atom_site_fract_y
 _atom_site_fract_z
 _atom_site_occupancy
  Sr  Sr0  1  0.75018300  0.00000000  0.24596800  1
  Sr  Sr1  1  0.24981700  0.00000000  0.75403200  1
  Sr  Sr2  1  0.25018300  0.50000000  0.24596800  1
  Sr  Sr3  1  0.74981700  0.50000000  0.75403200  1
  Ni  Ni4  1  0.00000000  0.50000000  0.50000000  1
  Ni  Ni5  1  0.50000000  0.00000000  0.50000000  1
  Te  Te6  1  0.00000000  0.00000000  0.00000000  1
  Te  Te7  1  0.50000000  0.50000000  0.00000000  1
  O  O8  1  0.25956400  0.50000000  0.69668200  1
  O  O9  1  0.74043600  0.50000000  0.30331800  1
  O  O10  1  0.96599000  0.75753900  0.20476700  1
  O  O11  1  0.03401000  0.75753900  0.79523300  1
  O  O12  1  0.03401000  0.24246100  0.79523300  1
  O  O13  1  0.96599000  0.24246100  0.20476700  1
  O  O14  1  0.75956400  0.00000000  0.69668200  1
  O  O15  1  0.24043600  0.00000000  0.30331800  1
  O  O16  1  0.46599000  0.25753900  0.20476700  1
  O  O17  1  0.53401000  0.25753900  0.79523300  1
  O  O18  1  0.53401000  0.74246100  0.79523300  1
  O  O19  1  0.46599000  0.74246100  0.20476700  1
