# generated using pymatgen
data_SrAl2B2O7
_symmetry_space_group_name_H-M   'P 1'
_cell_length_a   4.94296388
_cell_length_b   4.94296388
_cell_length_c   24.37707637
_cell_angle_alpha   90.00000000
_cell_angle_beta   90.00000000
_cell_angle_gamma   120.00000000
_symmetry_Int_Tables_number   1
_chemical_formula_structural   SrAl2B2O7
_chemical_formula_sum   'Sr3 Al6 B6 O21'
_cell_volume   515.80687085
_cell_formula_units_Z   3
loop_
 _symmetry_equiv_pos_site_id
 _symmetry_equiv_pos_as_xyz
  1  'x, y, z'
loop_
 _atom_site_type_symbol
 _atom_site_label
 _atom_site_symmetry_multiplicity
 _atom_site_fract_x
 _atom_site_fract_y
 _atom_site_fract_z
 _atom_site_occupancy
  Sr  Sr0  1  0.00000000  0.00000000  0.00000000  1
  Sr  Sr1  1  0.66666667  0.33333333  0.33333333  1
  Sr  Sr2  1  0.33333333  0.66666667  0.66666667  1
  Al  Al3  1  0.33333333  0.66666667  0.09732167  1
  Al  Al4  1  0.33333333  0.66666667  0.23601167  1
  Al  Al5  1  0.00000000  0.00000000  0.43065500  1
  Al  Al6  1  1.00000000  0.00000000  0.56934500  1
  Al  Al7  1  0.66666667  0.33333333  0.76398833  1
  Al  Al8  1  0.66666667  0.33333333  0.90267833  1
  B  B9  1  0.00000000  0.00000000  0.26468300  1
  B  B10  1  0.66666667  0.33333333  0.06865033  1
  B  B11  1  0.66666667  0.33333333  0.59801633  1
  B  B12  1  0.33333333  0.66666667  0.40198367  1
  B  B13  1  0.33333333  0.66666667  0.93134967  1
  B  B14  1  0.00000000  0.00000000  0.73531700  1
  O  O15  1  0.97022567  0.39089633  0.06615833  1
  O  O16  1  0.42067067  0.02977433  0.06615833  1
  O  O17  1  0.60910367  0.57932933  0.06615833  1
  O  O18  1  0.33333333  0.66666667  0.16666667  1
  O  O19  1  0.05756300  0.30355900  0.26717500  1
  O  O20  1  0.24599600  0.94243700  0.26717500  1
  O  O21  1  0.69644100  0.75400400  0.26717500  1
  O  O22  1  0.63689233  0.72422967  0.39949167  1
  O  O23  1  0.08733733  0.36310767  0.39949167  1
  O  O24  1  0.27577033  0.91266267  0.39949167  1
  O  O25  1  0.00000000  0.00000000  0.50000000  1
  O  O26  1  0.72422967  0.63689233  0.60050833  1
  O  O27  1  0.91266267  0.27577033  0.60050833  1
  O  O28  1  0.36310767  0.08733733  0.60050833  1
  O  O29  1  0.30355900  0.05756300  0.73282500  1
  O  O30  1  0.75400400  0.69644100  0.73282500  1
  O  O31  1  0.94243700  0.24599600  0.73282500  1
  O  O32  1  0.66666667  0.33333333  0.83333333  1
  O  O33  1  0.39089633  0.97022567  0.93384167  1
  O  O34  1  0.57932933  0.60910367  0.93384167  1
  O  O35  1  0.02977433  0.42067067  0.93384167  1
