# generated using pymatgen
data_Ge5P6O25
_symmetry_space_group_name_H-M   'P 1'
_cell_length_a   8.13256635
_cell_length_b   8.13256635
_cell_length_c   25.19380764
_cell_angle_alpha   90.00000000
_cell_angle_beta   90.00000000
_cell_angle_gamma   120.00000000
_symmetry_Int_Tables_number   1
_chemical_formula_structural   Ge5P6O25
_chemical_formula_sum   'Ge15 P18 O75'
_cell_volume   1443.04432288
_cell_formula_units_Z   3
loop_
 _symmetry_equiv_pos_site_id
 _symmetry_equiv_pos_as_xyz
  1  'x, y, z'
loop_
 _atom_site_type_symbol
 _atom_site_label
 _atom_site_symmetry_multiplicity
 _atom_site_fract_x
 _atom_site_fract_y
 _atom_site_fract_z
 _atom_site_occupancy
  Ge  Ge0  1  0.33333333  0.66666667  0.09866467  1
  Ge  Ge1  1  0.33333333  0.66666667  0.23466867  1
  Ge  Ge2  1  0.00000000  0.00000000  0.17730500  1
  Ge  Ge3  1  0.66666667  0.33333333  0.15602833  1
  Ge  Ge4  1  0.00000000  0.00000000  0.00000000  1
  Ge  Ge5  1  0.00000000  0.00000000  0.43199800  1
  Ge  Ge6  1  0.00000000  0.00000000  0.56800200  1
  Ge  Ge7  1  0.66666667  0.33333333  0.51063833  1
  Ge  Ge8  1  0.33333333  0.66666667  0.48936167  1
  Ge  Ge9  1  0.66666667  0.33333333  0.33333333  1
  Ge  Ge10  1  0.66666667  0.33333333  0.76533133  1
  Ge  Ge11  1  0.66666667  0.33333333  0.90133533  1
  Ge  Ge12  1  0.33333333  0.66666667  0.84397167  1
  Ge  Ge13  1  0.00000000  0.00000000  0.82269500  1
  Ge  Ge14  1  0.33333333  0.66666667  0.66666667  1
  P  P15  1  0.97858067  0.71104233  0.09126633  1
  P  P16  1  0.73246167  0.02141933  0.09126633  1
  P  P17  1  0.28895767  0.26753833  0.09126633  1
  P  P18  1  0.68808600  0.62229100  0.24206700  1
  P  P19  1  0.93420500  0.31191400  0.24206700  1
  P  P20  1  0.37770900  0.06579500  0.24206700  1
  P  P21  1  0.64524733  0.04437567  0.42459967  1
  P  P22  1  0.39912833  0.35475267  0.42459967  1
  P  P23  1  0.95562433  0.60087167  0.42459967  1
  P  P24  1  0.35475267  0.95562433  0.57540033  1
  P  P25  1  0.60087167  0.64524733  0.57540033  1
  P  P26  1  0.04437567  0.39912833  0.57540033  1
  P  P27  1  0.31191400  0.37770900  0.75793300  1
  P  P28  1  0.06579500  0.68808600  0.75793300  1
  P  P29  1  0.62229100  0.93420500  0.75793300  1
  P  P30  1  0.02141933  0.28895767  0.90873367  1
  P  P31  1  0.26753833  0.97858067  0.90873367  1
  P  P32  1  0.71104233  0.73246167  0.90873367  1
  O  O33  1  0.79481067  0.54503533  0.11208633  1
  O  O34  1  0.75022467  0.20518933  0.11208633  1
  O  O35  1  0.45496467  0.24977533  0.11208633  1
  O  O36  1  0.87185600  0.78829800  0.22124700  1
  O  O37  1  0.91644200  0.12814400  0.22124700  1
  O  O38  1  0.21170200  0.08355800  0.22124700  1
  O  O39  1  0.11944767  0.63926433  0.07284133  1
  O  O40  1  0.51981667  0.88055233  0.07284133  1
  O  O41  1  0.36073567  0.48018333  0.07284133  1
  O  O42  1  0.54721900  0.69406900  0.26049200  1
  O  O43  1  0.14685000  0.45278100  0.26049200  1
  O  O44  1  0.33333333  0.66666667  0.16666667  1
  O  O45  1  0.53216767  0.11155633  0.19950633  1
  O  O46  1  0.88844367  0.42061133  0.19950633  1
  O  O47  1  0.57938867  0.46783233  0.19950633  1
  O  O48  1  0.13449900  0.22177700  0.13382700  1
  O  O49  1  0.77822300  0.91272200  0.13382700  1
  O  O50  1  0.08727800  0.86550100  0.13382700  1
  O  O51  1  0.44701233  0.18892767  0.29193167  1
  O  O52  1  0.81107233  0.25808467  0.29193167  1
  O  O53  1  0.74191533  0.55298767  0.29193167  1
  O  O54  1  0.21965433  0.14440567  0.04140167  1
  O  O55  1  0.85559433  0.07524867  0.04140167  1
  O  O56  1  0.92475133  0.78034567  0.04140167  1
  O  O57  1  0.30593100  0.85315000  0.26049200  1
  O  O58  1  0.46147733  0.87836867  0.44541967  1
  O  O59  1  0.41689133  0.53852267  0.44541967  1
  O  O60  1  0.12163133  0.58310867  0.44541967  1
  O  O61  1  0.53852267  0.12163133  0.55458033  1
  O  O62  1  0.58310867  0.46147733  0.55458033  1
  O  O63  1  0.87836867  0.41689133  0.55458033  1
  O  O64  1  0.78611433  0.97259767  0.40617467  1
  O  O65  1  0.18648333  0.21388567  0.40617467  1
  O  O66  1  0.02740233  0.81351667  0.40617467  1
  O  O67  1  0.21388567  0.02740233  0.59382533  1
  O  O68  1  0.81351667  0.78611433  0.59382533  1
  O  O69  1  1.00000000  0.00000000  0.50000000  1
  O  O70  1  0.19883433  0.44488967  0.53283967  1
  O  O71  1  0.55511033  0.75394467  0.53283967  1
  O  O72  1  0.24605533  0.80116567  0.53283967  1
  O  O73  1  0.80116567  0.55511033  0.46716033  1
  O  O74  1  0.44488967  0.24605533  0.46716033  1
  O  O75  1  0.75394467  0.19883433  0.46716033  1
  O  O76  1  0.11367900  0.52226100  0.62526500  1
  O  O77  1  0.47773900  0.59141800  0.62526500  1
  O  O78  1  0.40858200  0.88632100  0.62526500  1
  O  O79  1  0.88632100  0.47773900  0.37473500  1
  O  O80  1  0.52226100  0.40858200  0.37473500  1
  O  O81  1  0.59141800  0.11367900  0.37473500  1
  O  O82  1  0.97259767  0.18648333  0.59382533  1
  O  O83  1  0.12814400  0.21170200  0.77875300  1
  O  O84  1  0.08355800  0.87185600  0.77875300  1
  O  O85  1  0.78829800  0.91644200  0.77875300  1
  O  O86  1  0.20518933  0.45496467  0.88791367  1
  O  O87  1  0.24977533  0.79481067  0.88791367  1
  O  O88  1  0.54503533  0.75022467  0.88791367  1
  O  O89  1  0.45278100  0.30593100  0.73950800  1
  O  O90  1  0.85315000  0.54721900  0.73950800  1
  O  O91  1  0.69406900  0.14685000  0.73950800  1
  O  O92  1  0.88055233  0.36073567  0.92715867  1
  O  O93  1  0.48018333  0.11944767  0.92715867  1
  O  O94  1  0.66666667  0.33333333  0.83333333  1
  O  O95  1  0.86550100  0.77822300  0.86617300  1
  O  O96  1  0.22177700  0.08727800  0.86617300  1
  O  O97  1  0.91272200  0.13449900  0.86617300  1
  O  O98  1  0.46783233  0.88844367  0.80049367  1
  O  O99  1  0.11155633  0.57938867  0.80049367  1
  O  O100  1  0.42061133  0.53216767  0.80049367  1
  O  O101  1  0.78034567  0.85559433  0.95859833  1
  O  O102  1  0.14440567  0.92475133  0.95859833  1
  O  O103  1  0.07524867  0.21965433  0.95859833  1
  O  O104  1  0.55298767  0.81107233  0.70806833  1
  O  O105  1  0.18892767  0.74191533  0.70806833  1
  O  O106  1  0.25808467  0.44701233  0.70806833  1
  O  O107  1  0.63926433  0.51981667  0.92715867  1
