# generated using pymatgen
data_BaV2(NiO4)2
_symmetry_space_group_name_H-M   'P 1'
_cell_length_a   5.08776088
_cell_length_b   5.08776088
_cell_length_c   23.13207578
_cell_angle_alpha   90.00000000
_cell_angle_beta   90.00000000
_cell_angle_gamma   120.00000000
_symmetry_Int_Tables_number   1
_chemical_formula_structural   BaV2(NiO4)2
_chemical_formula_sum   'Ba3 V6 Ni6 O24'
_cell_volume   518.55953102
_cell_formula_units_Z   3
loop_
 _symmetry_equiv_pos_site_id
 _symmetry_equiv_pos_as_xyz
  1  'x, y, z'
loop_
 _atom_site_type_symbol
 _atom_site_label
 _atom_site_symmetry_multiplicity
 _atom_site_fract_x
 _atom_site_fract_y
 _atom_site_fract_z
 _atom_site_occupancy
  Ba  Ba0  1  0.66666667  0.33333333  0.33333333  1
  Ba  Ba1  1  0.33333333  0.66666667  0.66666667  1
  Ba  Ba2  1  0.00000000  1.00000000  0.00000000  1
  V  V3  1  0.33333333  0.66666667  0.09249100  1
  V  V4  1  0.33333333  0.66666667  0.24084233  1
  V  V5  1  0.00000000  0.00000000  0.42582433  1
  V  V6  1  0.00000000  0.00000000  0.57417567  1
  V  V7  1  0.66666667  0.33333333  0.75915767  1
  V  V8  1  0.66666667  0.33333333  0.90750900  1
  Ni  Ni9  1  0.66666667  0.33333333  0.16390733  1
  Ni  Ni10  1  0.00000000  0.00000000  0.16942600  1
  Ni  Ni11  1  0.33333333  0.66666667  0.49724067  1
  Ni  Ni12  1  0.66666667  0.33333333  0.50275933  1
  Ni  Ni13  1  0.00000000  0.00000000  0.83057400  1
  Ni  Ni14  1  0.33333333  0.66666667  0.83609267  1
  O  O15  1  0.33333333  0.66666667  0.01912700  1
  O  O16  1  0.33333333  0.66666667  0.31420633  1
  O  O17  1  0.32184067  0.99270833  0.11485433  1
  O  O18  1  0.67086767  0.67815933  0.11485433  1
  O  O19  1  0.00729167  0.32913233  0.11485433  1
  O  O20  1  0.34482600  0.34062500  0.21847900  1
  O  O21  1  0.99579900  0.65517400  0.21847900  1
  O  O22  1  0.65937500  0.00420100  0.21847900  1
  O  O23  1  0.00000000  0.00000000  0.35246033  1
  O  O24  1  0.00000000  0.00000000  0.64753967  1
  O  O25  1  0.98850733  0.32604167  0.44818767  1
  O  O26  1  0.33753433  0.01149267  0.44818767  1
  O  O27  1  0.67395833  0.66246567  0.44818767  1
  O  O28  1  0.01149267  0.67395833  0.55181233  1
  O  O29  1  0.66246567  0.98850733  0.55181233  1
  O  O30  1  0.32604167  0.33753433  0.55181233  1
  O  O31  1  0.66666667  0.33333333  0.68579367  1
  O  O32  1  0.66666667  0.33333333  0.98087300  1
  O  O33  1  0.65517400  0.65937500  0.78152100  1
  O  O34  1  0.00420100  0.34482600  0.78152100  1
  O  O35  1  0.34062500  0.99579900  0.78152100  1
  O  O36  1  0.67815933  0.00729167  0.88514567  1
  O  O37  1  0.32913233  0.32184067  0.88514567  1
  O  O38  1  0.99270833  0.67086767  0.88514567  1
