# generated using pymatgen
data_K3Na2SnAs3
_symmetry_space_group_name_H-M   'P 1'
_cell_length_a   6.86557200
_cell_length_b   20.66716200
_cell_length_c   15.61491100
_cell_angle_alpha   90.00000000
_cell_angle_beta   90.00000000
_cell_angle_gamma   90.00000000
_symmetry_Int_Tables_number   1
_chemical_formula_structural   K3Na2SnAs3
_chemical_formula_sum   'K24 Na16 Sn8 As24'
_cell_volume   2215.62921440
_cell_formula_units_Z   8
loop_
 _symmetry_equiv_pos_site_id
 _symmetry_equiv_pos_as_xyz
  1  'x, y, z'
loop_
 _atom_site_type_symbol
 _atom_site_label
 _atom_site_symmetry_multiplicity
 _atom_site_fract_x
 _atom_site_fract_y
 _atom_site_fract_z
 _atom_site_occupancy
  K  K0  1  0.23280950  0.16669250  0.82455500  1
  K  K1  1  0.74030200  0.00000000  0.32230000  1
  K  K2  1  0.75969800  0.00000000  0.82230000  1
  K  K3  1  0.25969800  0.00000000  0.67770000  1
  K  K4  1  0.23280950  0.33330750  0.67544500  1
  K  K5  1  0.76719050  0.33330750  0.32455500  1
  K  K6  1  0.76719050  0.16669250  0.17544500  1
  K  K7  1  0.26719050  0.33330750  0.17544500  1
  K  K8  1  0.26719050  0.16669250  0.32455500  1
  K  K9  1  0.73280950  0.16669250  0.67544500  1
  K  K10  1  0.73280950  0.33330750  0.82455500  1
  K  K11  1  0.24030200  0.00000000  0.17770000  1
  K  K12  1  0.73280950  0.66669250  0.82455500  1
  K  K13  1  0.24030200  0.50000000  0.32230000  1
  K  K14  1  0.25969800  0.50000000  0.82230000  1
  K  K15  1  0.75969800  0.50000000  0.67770000  1
  K  K16  1  0.73280950  0.83330750  0.67544500  1
  K  K17  1  0.26719050  0.83330750  0.32455500  1
  K  K18  1  0.26719050  0.66669250  0.17544500  1
  K  K19  1  0.76719050  0.83330750  0.17544500  1
  K  K20  1  0.76719050  0.66669250  0.32455500  1
  K  K21  1  0.23280950  0.66669250  0.67544500  1
  K  K22  1  0.23280950  0.83330750  0.82455500  1
  K  K23  1  0.74030200  0.50000000  0.17770000  1
  Na  Na24  1  0.50000000  0.41864000  0.00000000  1
  Na  Na25  1  0.00000000  0.41864000  0.50000000  1
  Na  Na26  1  0.00000000  0.08136000  0.00000000  1
  Na  Na27  1  0.00000000  0.24522700  0.00000000  1
  Na  Na28  1  0.00000000  0.25477300  0.50000000  1
  Na  Na29  1  0.50000000  0.25477300  0.00000000  1
  Na  Na30  1  0.50000000  0.24522700  0.50000000  1
  Na  Na31  1  0.50000000  0.08136000  0.50000000  1
  Na  Na32  1  0.00000000  0.91864000  0.00000000  1
  Na  Na33  1  0.50000000  0.91864000  0.50000000  1
  Na  Na34  1  0.50000000  0.58136000  0.00000000  1
  Na  Na35  1  0.50000000  0.74522700  0.00000000  1
  Na  Na36  1  0.50000000  0.75477300  0.50000000  1
  Na  Na37  1  0.00000000  0.75477300  0.00000000  1
  Na  Na38  1  0.00000000  0.74522700  0.50000000  1
  Na  Na39  1  0.00000000  0.58136000  0.50000000  1
  Sn  Sn40  1  0.50000000  0.41140300  0.50000000  1
  Sn  Sn41  1  0.50000000  0.08859700  0.00000000  1
  Sn  Sn42  1  0.00000000  0.08859700  0.50000000  1
  Sn  Sn43  1  0.00000000  0.41140300  0.00000000  1
  Sn  Sn44  1  0.00000000  0.91140300  0.50000000  1
  Sn  Sn45  1  0.00000000  0.58859700  0.00000000  1
  Sn  Sn46  1  0.50000000  0.58859700  0.50000000  1
  Sn  Sn47  1  0.50000000  0.91140300  0.00000000  1
  As  As48  1  0.77739450  0.15888150  0.39425400  1
  As  As49  1  0.77739450  0.34111850  0.10574600  1
  As  As50  1  0.22260550  0.34111850  0.89425400  1
  As  As51  1  0.22260550  0.15888150  0.60574600  1
  As  As52  1  0.72260550  0.34111850  0.60574600  1
  As  As53  1  0.72260550  0.15888150  0.89425400  1
  As  As54  1  0.27739450  0.15888150  0.10574600  1
  As  As55  1  0.27739450  0.34111850  0.39425400  1
  As  As56  1  0.79392200  0.00000000  0.59486400  1
  As  As57  1  0.29392200  0.00000000  0.90513600  1
  As  As58  1  0.70607800  0.00000000  0.09486400  1
  As  As59  1  0.20607800  0.00000000  0.40513600  1
  As  As60  1  0.27739450  0.65888150  0.39425400  1
  As  As61  1  0.27739450  0.84111850  0.10574600  1
  As  As62  1  0.72260550  0.84111850  0.89425400  1
  As  As63  1  0.72260550  0.65888150  0.60574600  1
  As  As64  1  0.22260550  0.84111850  0.60574600  1
  As  As65  1  0.22260550  0.65888150  0.89425400  1
  As  As66  1  0.77739450  0.65888150  0.10574600  1
  As  As67  1  0.77739450  0.84111850  0.39425400  1
  As  As68  1  0.29392200  0.50000000  0.59486400  1
  As  As69  1  0.79392200  0.50000000  0.90513600  1
  As  As70  1  0.20607800  0.50000000  0.09486400  1
  As  As71  1  0.70607800  0.50000000  0.40513600  1
