# generated using pymatgen
data_CsNa3Li12(GeO4)4
_symmetry_space_group_name_H-M   'P 1'
_cell_length_a   11.33148400
_cell_length_b   11.33148400
_cell_length_c   6.56140400
_cell_angle_alpha   90.00000000
_cell_angle_beta   90.00000000
_cell_angle_gamma   90.00000000
_symmetry_Int_Tables_number   1
_chemical_formula_structural   CsNa3Li12(GeO4)4
_chemical_formula_sum   'Cs2 Na6 Li24 Ge8 O32'
_cell_volume   842.50087160
_cell_formula_units_Z   2
loop_
 _symmetry_equiv_pos_site_id
 _symmetry_equiv_pos_as_xyz
  1  'x, y, z'
loop_
 _atom_site_type_symbol
 _atom_site_label
 _atom_site_symmetry_multiplicity
 _atom_site_fract_x
 _atom_site_fract_y
 _atom_site_fract_z
 _atom_site_occupancy
  Cs  Cs0  1  0.00000000  0.00000000  0.00000000  1
  Cs  Cs1  1  0.50000000  0.50000000  0.50000000  1
  Na  Na2  1  0.50000000  0.00000000  0.25000000  1
  Na  Na3  1  0.50000000  0.00000000  0.75000000  1
  Na  Na4  1  0.00000000  0.00000000  0.50000000  1
  Na  Na5  1  0.00000000  0.50000000  0.75000000  1
  Na  Na6  1  0.00000000  0.50000000  0.25000000  1
  Na  Na7  1  0.50000000  0.50000000  0.00000000  1
  Li  Li8  1  0.71553400  0.07748800  0.00000000  1
  Li  Li9  1  0.57748800  0.78446600  0.50000000  1
  Li  Li10  1  0.42251200  0.21553400  0.50000000  1
  Li  Li11  1  0.28446600  0.92251200  0.00000000  1
  Li  Li12  1  0.76663050  0.89801650  0.25553050  1
  Li  Li13  1  0.39801650  0.73336950  0.75553050  1
  Li  Li14  1  0.60198350  0.26663050  0.75553050  1
  Li  Li15  1  0.23336950  0.10198350  0.25553050  1
  Li  Li16  1  0.39801650  0.73336950  0.24446950  1
  Li  Li17  1  0.76663050  0.89801650  0.74446950  1
  Li  Li18  1  0.23336950  0.10198350  0.74446950  1
  Li  Li19  1  0.60198350  0.26663050  0.24446950  1
  Li  Li20  1  0.21553400  0.57748800  0.50000000  1
  Li  Li21  1  0.07748800  0.28446600  0.00000000  1
  Li  Li22  1  0.92251200  0.71553400  0.00000000  1
  Li  Li23  1  0.78446600  0.42251200  0.50000000  1
  Li  Li24  1  0.26663050  0.39801650  0.75553050  1
  Li  Li25  1  0.89801650  0.23336950  0.25553050  1
  Li  Li26  1  0.10198350  0.76663050  0.25553050  1
  Li  Li27  1  0.73336950  0.60198350  0.75553050  1
  Li  Li28  1  0.89801650  0.23336950  0.74446950  1
  Li  Li29  1  0.26663050  0.39801650  0.24446950  1
  Li  Li30  1  0.73336950  0.60198350  0.24446950  1
  Li  Li31  1  0.10198350  0.76663050  0.74446950  1
  Ge  Ge32  1  0.71886800  0.08044000  0.50000000  1
  Ge  Ge33  1  0.58044000  0.78113200  0.00000000  1
  Ge  Ge34  1  0.41956000  0.21886800  0.00000000  1
  Ge  Ge35  1  0.28113200  0.91956000  0.50000000  1
  Ge  Ge36  1  0.21886800  0.58044000  0.00000000  1
  Ge  Ge37  1  0.08044000  0.28113200  0.50000000  1
  Ge  Ge38  1  0.91956000  0.71886800  0.50000000  1
  Ge  Ge39  1  0.78113200  0.41956000  0.00000000  1
  O  O40  1  0.43233900  0.83852600  0.00000000  1
  O  O41  1  0.59816200  0.17991500  0.50000000  1
  O  O42  1  0.32008500  0.09816200  0.00000000  1
  O  O43  1  0.40183800  0.82008500  0.50000000  1
  O  O44  1  0.58783300  0.69366900  0.22516200  1
  O  O45  1  0.19366900  0.91216700  0.72516200  1
  O  O46  1  0.80633100  0.08783300  0.72516200  1
  O  O47  1  0.41216700  0.30633100  0.22516200  1
  O  O48  1  0.41216700  0.30633100  0.77483800  1
  O  O49  1  0.80633100  0.08783300  0.27483800  1
  O  O50  1  0.19366900  0.91216700  0.27483800  1
  O  O51  1  0.58783300  0.69366900  0.77483800  1
  O  O52  1  0.66147400  0.93233900  0.50000000  1
  O  O53  1  0.56766100  0.16147400  0.00000000  1
  O  O54  1  0.67991500  0.90183800  0.00000000  1
  O  O55  1  0.33852600  0.06766100  0.50000000  1
  O  O56  1  0.93233900  0.33852600  0.50000000  1
  O  O57  1  0.09816200  0.67991500  0.00000000  1
  O  O58  1  0.82008500  0.59816200  0.50000000  1
  O  O59  1  0.90183800  0.32008500  0.00000000  1
  O  O60  1  0.08783300  0.19366900  0.72516200  1
  O  O61  1  0.69366900  0.41216700  0.22516200  1
  O  O62  1  0.30633100  0.58783300  0.22516200  1
  O  O63  1  0.91216700  0.80633100  0.72516200  1
  O  O64  1  0.91216700  0.80633100  0.27483800  1
  O  O65  1  0.30633100  0.58783300  0.77483800  1
  O  O66  1  0.69366900  0.41216700  0.77483800  1
  O  O67  1  0.08783300  0.19366900  0.27483800  1
  O  O68  1  0.16147400  0.43233900  0.00000000  1
  O  O69  1  0.06766100  0.66147400  0.50000000  1
  O  O70  1  0.17991500  0.40183800  0.50000000  1
  O  O71  1  0.83852600  0.56766100  0.00000000  1
