# generated using pymatgen
data_LaSc3(BO3)4
_symmetry_space_group_name_H-M   'P 1'
_cell_length_a   9.90145672
_cell_length_b   9.90145672
_cell_length_c   8.05899920
_cell_angle_alpha   90.00000000
_cell_angle_beta   90.00000000
_cell_angle_gamma   120.00000000
_symmetry_Int_Tables_number   1
_chemical_formula_structural   LaSc3(BO3)4
_chemical_formula_sum   'La3 Sc9 B12 O36'
_cell_volume   684.24231994
_cell_formula_units_Z   3
loop_
 _symmetry_equiv_pos_site_id
 _symmetry_equiv_pos_as_xyz
  1  'x, y, z'
loop_
 _atom_site_type_symbol
 _atom_site_label
 _atom_site_symmetry_multiplicity
 _atom_site_fract_x
 _atom_site_fract_y
 _atom_site_fract_z
 _atom_site_occupancy
  La  La0  1  0.00000000  0.00000000  0.50000000  1
  La  La1  1  0.66666667  0.33333333  0.83333333  1
  La  La2  1  0.33333333  0.66666667  0.16666667  1
  Sc  Sc3  1  0.54814000  0.00000000  0.50000000  1
  Sc  Sc4  1  0.00000000  0.54814000  0.50000000  1
  Sc  Sc5  1  0.45186000  0.45186000  0.50000000  1
  Sc  Sc6  1  0.21480667  0.33333333  0.83333333  1
  Sc  Sc7  1  0.66666667  0.88147333  0.83333333  1
  Sc  Sc8  1  0.11852667  0.78519333  0.83333333  1
  Sc  Sc9  1  0.88147333  0.66666667  0.16666667  1
  Sc  Sc10  1  0.33333333  0.21480667  0.16666667  1
  Sc  Sc11  1  0.78519333  0.11852667  0.16666667  1
  B  B12  1  0.00000000  0.00000000  0.00000000  1
  B  B13  1  0.11674667  0.33333333  0.33333333  1
  B  B14  1  0.66666667  0.78341333  0.33333333  1
  B  B15  1  0.21658667  0.88325333  0.33333333  1
  B  B16  1  0.66666667  0.33333333  0.33333333  1
  B  B17  1  0.78341333  0.66666667  0.66666667  1
  B  B18  1  0.33333333  0.11674667  0.66666667  1
  B  B19  1  0.88325333  0.21658667  0.66666667  1
  B  B20  1  0.33333333  0.66666667  0.66666667  1
  B  B21  1  0.45008000  0.00000000  0.00000000  1
  B  B22  1  0.00000000  0.45008000  0.00000000  1
  B  B23  1  0.54992000  0.54992000  0.00000000  1
  O  O24  1  0.52631567  0.33333333  0.33333333  1
  O  O25  1  0.07633767  0.74300433  0.33333333  1
  O  O26  1  0.66666667  0.92366233  0.33333333  1
  O  O27  1  0.25699567  0.33333333  0.33333333  1
  O  O28  1  0.21201967  0.01989433  0.31779833  1
  O  O29  1  0.80787467  0.78798033  0.31779833  1
  O  O30  1  0.98010567  0.19212533  0.31779833  1
  O  O31  1  0.01989433  0.21201967  0.68220167  1
  O  O32  1  0.19212533  0.98010567  0.68220167  1
  O  O33  1  0.78798033  0.80787467  0.68220167  1
  O  O34  1  0.80701767  0.47368433  0.33333333  1
  O  O35  1  0.66666667  0.19298233  0.33333333  1
  O  O36  1  0.19298233  0.66666667  0.66666667  1
  O  O37  1  0.74300433  0.07633767  0.66666667  1
  O  O38  1  0.33333333  0.25699567  0.66666667  1
  O  O39  1  0.92366233  0.66666667  0.66666667  1
  O  O40  1  0.87868633  0.35322767  0.65113167  1
  O  O41  1  0.47454133  0.12131367  0.65113167  1
  O  O42  1  0.64677233  0.52545867  0.65113167  1
  O  O43  1  0.68656100  0.54535300  0.01553500  1
  O  O44  1  0.85879200  0.31343900  0.01553500  1
  O  O45  1  0.45464700  0.14120800  0.01553500  1
  O  O46  1  0.47368433  0.80701767  0.66666667  1
  O  O47  1  0.33333333  0.52631567  0.66666667  1
  O  O48  1  0.85964900  0.00000000  0.00000000  1
  O  O49  1  0.40967100  0.40967100  0.00000000  1
  O  O50  1  0.00000000  0.59032900  0.00000000  1
  O  O51  1  0.59032900  1.00000000  0.00000000  1
  O  O52  1  0.54535300  0.68656100  0.98446500  1
  O  O53  1  0.14120800  0.45464700  0.98446500  1
  O  O54  1  0.31343900  0.85879200  0.98446500  1
  O  O55  1  0.35322767  0.87868633  0.34886833  1
  O  O56  1  0.52545867  0.64677233  0.34886833  1
  O  O57  1  0.12131367  0.47454133  0.34886833  1
  O  O58  1  0.14035100  0.14035100  0.00000000  1
  O  O59  1  0.00000000  0.85964900  0.00000000  1
