# generated using pymatgen
data_La3MnFeS7
_symmetry_space_group_name_H-M   'P 1'
_cell_length_a   10.25793213
_cell_length_b   10.25793213
_cell_length_c   6.03964200
_cell_angle_alpha   90.00000000
_cell_angle_beta   90.00000000
_cell_angle_gamma   120.00000000
_symmetry_Int_Tables_number   1
_chemical_formula_structural   La3MnFeS7
_chemical_formula_sum   'La6 Mn2 Fe2 S14'
_cell_volume   550.37851330
_cell_formula_units_Z   2
loop_
 _symmetry_equiv_pos_site_id
 _symmetry_equiv_pos_as_xyz
  1  'x, y, z'
loop_
 _atom_site_type_symbol
 _atom_site_label
 _atom_site_symmetry_multiplicity
 _atom_site_fract_x
 _atom_site_fract_y
 _atom_site_fract_z
 _atom_site_occupancy
  La  La0  1  0.85951800  0.23555800  0.24075200  1
  La  La1  1  0.62396000  0.85951800  0.74075200  1
  La  La2  1  0.23555800  0.37604000  0.74075200  1
  La  La3  1  0.76444200  0.62396000  0.24075200  1
  La  La4  1  0.37604000  0.14048200  0.24075200  1
  La  La5  1  0.14048200  0.76444200  0.74075200  1
  Mn  Mn6  1  0.00000000  0.00000000  0.01676000  1
  Mn  Mn7  1  0.00000000  0.00000000  0.51676000  1
  Fe  Fe8  1  0.33333333  0.66666667  0.15557400  1
  Fe  Fe9  1  0.66666667  0.33333333  0.65557400  1
  S  S10  1  0.33333333  0.66666667  0.52612000  1
  S  S11  1  0.66666667  0.33333333  0.02612000  1
  S  S12  1  0.58288600  0.10066000  0.51414200  1
  S  S13  1  0.48222600  0.58288600  0.01414200  1
  S  S14  1  0.10066000  0.51777400  0.01414200  1
  S  S15  1  0.89934000  0.48222600  0.51414200  1
  S  S16  1  0.51777400  0.41711400  0.51414200  1
  S  S17  1  0.41711400  0.89934000  0.01414200  1
  S  S18  1  0.91176500  0.14600400  0.77895400  1
  S  S19  1  0.76576100  0.91176500  0.27895400  1
  S  S20  1  0.08823500  0.85399600  0.27895400  1
  S  S21  1  0.23423900  0.08823500  0.77895400  1
  S  S22  1  0.85399600  0.76576100  0.77895400  1
  S  S23  1  0.14600400  0.23423900  0.27895400  1
