# generated using pymatgen
data_HeSiO2
_symmetry_space_group_name_H-M   'P 1'
_cell_length_a   5.19108527
_cell_length_b   5.19108527
_cell_length_c   25.92997320
_cell_angle_alpha   90.00000000
_cell_angle_beta   90.00000000
_cell_angle_gamma   120.00000000
_symmetry_Int_Tables_number   1
_chemical_formula_structural   HeSiO2
_chemical_formula_sum   'He12 Si12 O24'
_cell_volume   605.13047492
_cell_formula_units_Z   12
loop_
 _symmetry_equiv_pos_site_id
 _symmetry_equiv_pos_as_xyz
  1  'x, y, z'
loop_
 _atom_site_type_symbol
 _atom_site_label
 _atom_site_symmetry_multiplicity
 _atom_site_fract_x
 _atom_site_fract_y
 _atom_site_fract_z
 _atom_site_occupancy
  He  He0  1  0.66666667  0.33333333  0.01328833  1
  He  He1  1  0.00000000  0.00000000  0.32004500  1
  He  He2  1  0.00000000  0.00000000  0.17995500  1
  He  He3  1  0.66666667  0.33333333  0.15337833  1
  He  He4  1  0.33333333  0.66666667  0.34662167  1
  He  He5  1  0.66666667  0.33333333  0.65337833  1
  He  He6  1  0.66666667  0.33333333  0.51328833  1
  He  He7  1  0.33333333  0.66666667  0.48671167  1
  He  He8  1  0.00000000  0.00000000  0.67995500  1
  He  He9  1  0.33333333  0.66666667  0.98671167  1
  He  He10  1  0.33333333  0.66666667  0.84662167  1
  He  He11  1  0.00000000  1.00000000  0.82004500  1
  Si  Si12  1  0.66666667  0.33333333  0.27095033  1
  Si  Si13  1  0.00000000  0.00000000  0.06238300  1
  Si  Si14  1  0.33333333  0.66666667  0.10428367  1
  Si  Si15  1  0.33333333  0.66666667  0.22904967  1
  Si  Si16  1  0.33333333  0.66666667  0.60428367  1
  Si  Si17  1  0.66666667  0.33333333  0.39571633  1
  Si  Si18  1  0.00000000  0.00000000  0.43761700  1
  Si  Si19  1  0.00000000  0.00000000  0.56238300  1
  Si  Si20  1  0.00000000  0.00000000  0.93761700  1
  Si  Si21  1  0.33333333  0.66666667  0.72904967  1
  Si  Si22  1  0.66666667  0.33333333  0.77095033  1
  Si  Si23  1  0.66666667  0.33333333  0.89571633  1
  O  O24  1  0.00000000  0.00000000  0.00000000  1
  O  O25  1  0.33333333  0.66666667  0.16666667  1
  O  O26  1  0.00000000  0.55609100  0.25000000  1
  O  O27  1  0.55609100  0.00000000  0.25000000  1
  O  O28  1  0.44390900  0.44390900  0.25000000  1
  O  O29  1  0.66666667  0.77724233  0.08333333  1
  O  O30  1  0.11057567  0.33333333  0.08333333  1
  O  O31  1  0.22275767  0.88942433  0.08333333  1
  O  O32  1  0.66666667  0.33333333  0.33333333  1
  O  O33  1  0.00000000  0.00000000  0.50000000  1
  O  O34  1  0.66666667  0.88942433  0.58333333  1
  O  O35  1  0.22275767  0.33333333  0.58333333  1
  O  O36  1  0.11057567  0.77724233  0.58333333  1
  O  O37  1  0.33333333  0.11057567  0.41666667  1
  O  O38  1  0.77724233  0.66666667  0.41666667  1
  O  O39  1  0.88942433  0.22275767  0.41666667  1
  O  O40  1  0.33333333  0.66666667  0.66666667  1
  O  O41  1  0.66666667  0.33333333  0.83333333  1
  O  O42  1  0.33333333  0.22275767  0.91666667  1
  O  O43  1  0.88942433  0.66666667  0.91666667  1
  O  O44  1  0.77724233  0.11057567  0.91666667  1
  O  O45  1  0.00000000  0.44390900  0.75000000  1
  O  O46  1  0.44390900  0.00000000  0.75000000  1
  O  O47  1  0.55609100  0.55609100  0.75000000  1
