# generated using pymatgen
data_Y3TaO7
_symmetry_space_group_name_H-M   'P 1'
_cell_length_a   7.61552200
_cell_length_b   10.58712400
_cell_length_c   7.48653700
_cell_angle_alpha   90.00000000
_cell_angle_beta   90.00000000
_cell_angle_gamma   90.00000000
_symmetry_Int_Tables_number   1
_chemical_formula_structural   Y3TaO7
_chemical_formula_sum   'Y12 Ta4 O28'
_cell_volume   603.61309380
_cell_formula_units_Z   4
loop_
 _symmetry_equiv_pos_site_id
 _symmetry_equiv_pos_as_xyz
  1  'x, y, z'
loop_
 _atom_site_type_symbol
 _atom_site_label
 _atom_site_symmetry_multiplicity
 _atom_site_fract_x
 _atom_site_fract_y
 _atom_site_fract_z
 _atom_site_occupancy
  Y  Y0  1  0.76734000  0.76764700  0.24062800  1
  Y  Y1  1  0.23266000  0.23235300  0.74062800  1
  Y  Y2  1  0.76734000  0.23235300  0.75937200  1
  Y  Y3  1  0.23266000  0.76764700  0.25937200  1
  Y  Y4  1  0.46144000  0.00000000  0.00000000  1
  Y  Y5  1  0.53856000  0.00000000  0.50000000  1
  Y  Y6  1  0.26734000  0.26764700  0.24062800  1
  Y  Y7  1  0.73266000  0.73235300  0.74062800  1
  Y  Y8  1  0.26734000  0.73235300  0.75937200  1
  Y  Y9  1  0.73266000  0.26764700  0.25937200  1
  Y  Y10  1  0.96144000  0.50000000  0.00000000  1
  Y  Y11  1  0.03856000  0.50000000  0.50000000  1
  Ta  Ta12  1  0.99786400  0.00000000  0.00000000  1
  Ta  Ta13  1  0.00213600  0.00000000  0.50000000  1
  Ta  Ta14  1  0.49786400  0.50000000  0.00000000  1
  Ta  Ta15  1  0.50213600  0.50000000  0.50000000  1
  O  O16  1  0.50000000  0.56712200  0.75000000  1
  O  O17  1  0.50000000  0.43287800  0.25000000  1
  O  O18  1  0.50000000  0.14020300  0.25000000  1
  O  O19  1  0.50000000  0.85979700  0.75000000  1
  O  O20  1  0.50000000  0.12856300  0.75000000  1
  O  O21  1  0.50000000  0.87143700  0.25000000  1
  O  O22  1  0.20503400  0.87722400  0.97661500  1
  O  O23  1  0.79496600  0.12277600  0.47661500  1
  O  O24  1  0.17648950  0.87086750  0.54500000  1
  O  O25  1  0.82351050  0.12913250  0.04500000  1
  O  O26  1  0.17648950  0.12913250  0.45500000  1
  O  O27  1  0.82351050  0.87086750  0.95500000  1
  O  O28  1  0.79496600  0.87722400  0.52338500  1
  O  O29  1  0.20503400  0.12277600  0.02338500  1
  O  O30  1  0.00000000  0.06712200  0.75000000  1
  O  O31  1  0.00000000  0.93287800  0.25000000  1
  O  O32  1  0.00000000  0.64020300  0.25000000  1
  O  O33  1  0.00000000  0.35979700  0.75000000  1
  O  O34  1  0.00000000  0.62856300  0.75000000  1
  O  O35  1  0.00000000  0.37143700  0.25000000  1
  O  O36  1  0.70503400  0.37722400  0.97661500  1
  O  O37  1  0.29496600  0.62277600  0.47661500  1
  O  O38  1  0.67648950  0.37086750  0.54500000  1
  O  O39  1  0.32351050  0.62913250  0.04500000  1
  O  O40  1  0.67648950  0.62913250  0.45500000  1
  O  O41  1  0.32351050  0.37086750  0.95500000  1
  O  O42  1  0.29496600  0.37722400  0.52338500  1
  O  O43  1  0.70503400  0.62277600  0.02338500  1
