# generated using pymatgen
data_K3VO4
_symmetry_space_group_name_H-M   'P 1'
_cell_length_a   5.67725800
_cell_length_b   5.67725800
_cell_length_c   10.45017000
_cell_angle_alpha   90.00000000
_cell_angle_beta   90.00000000
_cell_angle_gamma   90.00000000
_symmetry_Int_Tables_number   1
_chemical_formula_structural   K3VO4
_chemical_formula_sum   'K6 V2 O8'
_cell_volume   336.82212958
_cell_formula_units_Z   2
loop_
 _symmetry_equiv_pos_site_id
 _symmetry_equiv_pos_as_xyz
  1  'x, y, z'
loop_
 _atom_site_type_symbol
 _atom_site_label
 _atom_site_symmetry_multiplicity
 _atom_site_fract_x
 _atom_site_fract_y
 _atom_site_fract_z
 _atom_site_occupancy
  K  K0  1  0.50000000  0.00000000  0.25000000  1
  K  K1  1  0.00000000  0.50000000  0.25000000  1
  K  K2  1  0.50000000  0.50000000  0.00000000  1
  K  K3  1  0.00000000  0.50000000  0.75000000  1
  K  K4  1  0.50000000  0.00000000  0.75000000  1
  K  K5  1  0.00000000  0.00000000  0.50000000  1
  V  V6  1  0.00000000  0.00000000  0.00000000  1
  V  V7  1  0.50000000  0.50000000  0.50000000  1
  O  O8  1  0.17943250  0.82056750  0.09597550  1
  O  O9  1  0.32056750  0.32056750  0.40402450  1
  O  O10  1  0.67943250  0.67943250  0.40402450  1
  O  O11  1  0.82056750  0.17943250  0.09597550  1
  O  O12  1  0.67943250  0.32056750  0.59597550  1
  O  O13  1  0.82056750  0.82056750  0.90402450  1
  O  O14  1  0.17943250  0.17943250  0.90402450  1
  O  O15  1  0.32056750  0.67943250  0.59597550  1
