# generated using pymatgen
data_In(PO3)3
_symmetry_space_group_name_H-M   'P 1'
_cell_length_a   13.78940400
_cell_length_b   19.95982000
_cell_length_c   9.84902800
_cell_angle_alpha   90.00000000
_cell_angle_beta   127.04037228
_cell_angle_gamma   90.00000000
_symmetry_Int_Tables_number   1
_chemical_formula_structural   In(PO3)3
_chemical_formula_sum   'In12 P36 O108'
_cell_volume   2163.78116154
_cell_formula_units_Z   12
loop_
 _symmetry_equiv_pos_site_id
 _symmetry_equiv_pos_as_xyz
  1  'x, y, z'
loop_
 _atom_site_type_symbol
 _atom_site_label
 _atom_site_symmetry_multiplicity
 _atom_site_fract_x
 _atom_site_fract_y
 _atom_site_fract_z
 _atom_site_occupancy
  In  In0  1  0.60131550  0.41063750  0.51172000  1
  In  In1  1  0.10131550  0.08936250  0.01172000  1
  In  In2  1  0.58301550  0.24385750  0.97842000  1
  In  In3  1  0.08301550  0.25614250  0.47842000  1
  In  In4  1  0.59926450  0.07845750  0.51098400  1
  In  In5  1  0.09926450  0.42154250  0.01098400  1
  In  In6  1  0.10131550  0.91063750  0.51172000  1
  In  In7  1  0.60131550  0.58936250  0.01172000  1
  In  In8  1  0.08301550  0.74385750  0.97842000  1
  In  In9  1  0.58301550  0.75614250  0.47842000  1
  In  In10  1  0.09926450  0.57845750  0.51098400  1
  In  In11  1  0.59926450  0.92154250  0.01098400  1
  P  P12  1  0.85127100  0.30908900  0.76562800  1
  P  P13  1  0.35127100  0.19091100  0.26562800  1
  P  P14  1  0.86244850  0.02526450  0.28527300  1
  P  P15  1  0.36244850  0.47473550  0.78527300  1
  P  P16  1  0.44329700  0.36262100  0.66382000  1
  P  P17  1  0.94329700  0.13737900  0.16382000  1
  P  P18  1  0.94731100  0.19911500  0.66020000  1
  P  P19  1  0.44731100  0.30088500  0.16020000  1
  P  P20  1  0.82680500  0.35924600  0.22065000  1
  P  P21  1  0.32680500  0.14075400  0.72065000  1
  P  P22  1  0.95412950  0.46932050  0.18038400  1
  P  P23  1  0.45412950  0.03067950  0.68038400  1
  P  P24  1  0.74688200  0.47170400  0.34629500  1
  P  P25  1  0.24688200  0.02829600  0.84629500  1
  P  P26  1  0.73695200  0.19496400  0.82056900  1
  P  P27  1  0.23695200  0.30503600  0.32056900  1
  P  P28  1  0.73739250  0.13639150  0.32994700  1
  P  P29  1  0.23739250  0.36360850  0.82994700  1
  P  P30  1  0.35127100  0.80908900  0.76562800  1
  P  P31  1  0.85127100  0.69091100  0.26562800  1
  P  P32  1  0.36244850  0.52526450  0.28527300  1
  P  P33  1  0.86244850  0.97473550  0.78527300  1
  P  P34  1  0.94329700  0.86262100  0.66382000  1
  P  P35  1  0.44329700  0.63737900  0.16382000  1
  P  P36  1  0.44731100  0.69911500  0.66020000  1
  P  P37  1  0.94731100  0.80088500  0.16020000  1
  P  P38  1  0.32680500  0.85924600  0.22065000  1
  P  P39  1  0.82680500  0.64075400  0.72065000  1
  P  P40  1  0.45412950  0.96932050  0.18038400  1
  P  P41  1  0.95412950  0.53067950  0.68038400  1
  P  P42  1  0.24688200  0.97170400  0.34629500  1
  P  P43  1  0.74688200  0.52829600  0.84629500  1
  P  P44  1  0.23695200  0.69496400  0.82056900  1
  P  P45  1  0.73695200  0.80503600  0.32056900  1
  P  P46  1  0.23739250  0.63639150  0.32994700  1
  P  P47  1  0.73739250  0.86360850  0.82994700  1
  O  O48  1  0.24565500  0.49511800  0.13880600  1
  O  O49  1  0.74565500  0.00488200  0.63880600  1
  O  O50  1  0.04473000  0.20987000  0.63804100  1
  O  O51  1  0.54473000  0.29013000  0.13804100  1
  O  O52  1  0.96852850  0.14509150  0.78110300  1
  O  O53  1  0.46852850  0.35490850  0.28110300  1
  O  O54  1  0.81804000  0.14485500  0.97681400  1
  O  O55  1  0.31804000  0.35514500  0.47681400  1
  O  O56  1  0.42327700  0.43501300  0.71208600  1
  O  O57  1  0.92327700  0.06498700  0.21208600  1
  O  O58  1  0.63070100  0.21680900  0.81494100  1
  O  O59  1  0.13070100  0.28319100  0.31494100  1
  O  O60  1  0.54805300  0.36581300  0.65524900  1
  O  O61  1  0.04805300  0.13418700  0.15524900  1
  O  O62  1  0.92683300  0.26951900  0.71612000  1
  O  O63  1  0.42683300  0.23048100  0.21612000  1
  O  O64  1  0.81707850  0.19001050  0.47925700  1
  O  O65  1  0.31707850  0.30998950  0.97925700  1
  O  O66  1  0.45051000  0.31076100  0.78002200  1
  O  O67  1  0.95051000  0.18923900  0.28002200  1
  O  O68  1  0.93470600  0.36128800  0.89104600  1
  O  O69  1  0.43470600  0.13871200  0.39104600  1
  O  O70  1  0.73164650  0.33001350  0.60365400  1
  O  O71  1  0.23164650  0.16998650  0.10365400  1
  O  O72  1  0.35371800  0.08781900  0.62298900  1
  O  O73  1  0.85371800  0.41218100  0.12298900  1
  O  O74  1  0.37827200  0.02197000  0.02753400  1
  O  O75  1  0.87827200  0.47803000  0.52753400  1
  O  O76  1  0.23412900  0.18761900  0.58556200  1
  O  O77  1  0.73412900  0.31238100  0.08556200  1
  O  O78  1  0.98591450  0.49995450  0.84170700  1
  O  O79  1  0.48591450  0.00004550  0.34170700  1
  O  O80  1  0.26131450  0.09853750  0.78285200  1
  O  O81  1  0.76131450  0.40146250  0.28285200  1
  O  O82  1  0.55887350  0.05606350  0.68596700  1
  O  O83  1  0.05887350  0.44393650  0.18596700  1
  O  O84  1  0.72895350  0.47299050  0.73050500  1
  O  O85  1  0.22895350  0.02700950  0.23050500  1
  O  O86  1  0.15121250  0.03714850  0.87265000  1
  O  O87  1  0.65121250  0.46285150  0.37265000  1
  O  O88  1  0.32964000  0.24430500  0.36863700  1
  O  O89  1  0.82964000  0.25569500  0.86863700  1
  O  O90  1  0.20765800  0.33799000  0.16246600  1
  O  O91  1  0.70765800  0.16201000  0.66246600  1
  O  O92  1  0.33873800  0.41889000  0.88021300  1
  O  O93  1  0.83873800  0.08111000  0.38021300  1
  O  O94  1  0.44343600  0.16783100  0.87529700  1
  O  O95  1  0.94343600  0.33216900  0.37529700  1
  O  O96  1  0.95854300  0.01847500  0.92692300  1
  O  O97  1  0.45854300  0.48152500  0.42692300  1
  O  O98  1  0.14236450  0.39303350  0.84148700  1
  O  O99  1  0.64236450  0.10696650  0.34148700  1
  O  O100  1  0.19435000  0.33198100  0.66443100  1
  O  O101  1  0.69435000  0.16801900  0.16443100  1
  O  O102  1  0.74565500  0.99511800  0.13880600  1
  O  O103  1  0.24565500  0.50488200  0.63880600  1
  O  O104  1  0.54473000  0.70987000  0.63804100  1
  O  O105  1  0.04473000  0.79013000  0.13804100  1
  O  O106  1  0.46852850  0.64509150  0.78110300  1
  O  O107  1  0.96852850  0.85490850  0.28110300  1
  O  O108  1  0.31804000  0.64485500  0.97681400  1
  O  O109  1  0.81804000  0.85514500  0.47681400  1
  O  O110  1  0.92327700  0.93501300  0.71208600  1
  O  O111  1  0.42327700  0.56498700  0.21208600  1
  O  O112  1  0.13070100  0.71680900  0.81494100  1
  O  O113  1  0.63070100  0.78319100  0.31494100  1
  O  O114  1  0.04805300  0.86581300  0.65524900  1
  O  O115  1  0.54805300  0.63418700  0.15524900  1
  O  O116  1  0.42683300  0.76951900  0.71612000  1
  O  O117  1  0.92683300  0.73048100  0.21612000  1
  O  O118  1  0.31707850  0.69001050  0.47925700  1
  O  O119  1  0.81707850  0.80998950  0.97925700  1
  O  O120  1  0.95051000  0.81076100  0.78002200  1
  O  O121  1  0.45051000  0.68923900  0.28002200  1
  O  O122  1  0.43470600  0.86128800  0.89104600  1
  O  O123  1  0.93470600  0.63871200  0.39104600  1
  O  O124  1  0.23164650  0.83001350  0.60365400  1
  O  O125  1  0.73164650  0.66998650  0.10365400  1
  O  O126  1  0.85371800  0.58781900  0.62298900  1
  O  O127  1  0.35371800  0.91218100  0.12298900  1
  O  O128  1  0.87827200  0.52197000  0.02753400  1
  O  O129  1  0.37827200  0.97803000  0.52753400  1
  O  O130  1  0.73412900  0.68761900  0.58556200  1
  O  O131  1  0.23412900  0.81238100  0.08556200  1
  O  O132  1  0.48591450  0.99995450  0.84170700  1
  O  O133  1  0.98591450  0.50004550  0.34170700  1
  O  O134  1  0.76131450  0.59853750  0.78285200  1
  O  O135  1  0.26131450  0.90146250  0.28285200  1
  O  O136  1  0.05887350  0.55606350  0.68596700  1
  O  O137  1  0.55887350  0.94393650  0.18596700  1
  O  O138  1  0.22895350  0.97299050  0.73050500  1
  O  O139  1  0.72895350  0.52700950  0.23050500  1
  O  O140  1  0.65121250  0.53714850  0.87265000  1
  O  O141  1  0.15121250  0.96285150  0.37265000  1
  O  O142  1  0.82964000  0.74430500  0.36863700  1
  O  O143  1  0.32964000  0.75569500  0.86863700  1
  O  O144  1  0.70765800  0.83799000  0.16246600  1
  O  O145  1  0.20765800  0.66201000  0.66246600  1
  O  O146  1  0.83873800  0.91889000  0.88021300  1
  O  O147  1  0.33873800  0.58111000  0.38021300  1
  O  O148  1  0.94343600  0.66783100  0.87529700  1
  O  O149  1  0.44343600  0.83216900  0.37529700  1
  O  O150  1  0.45854300  0.51847500  0.92692300  1
  O  O151  1  0.95854300  0.98152500  0.42692300  1
  O  O152  1  0.64236450  0.89303350  0.84148700  1
  O  O153  1  0.14236450  0.60696650  0.34148700  1
  O  O154  1  0.69435000  0.83198100  0.66443100  1
  O  O155  1  0.19435000  0.66801900  0.16443100  1
