# generated using pymatgen
data_K2MnSO4F3
_symmetry_space_group_name_H-M   'P 1'
_cell_length_a   7.45957000
_cell_length_b   8.53063300
_cell_length_c   10.98786500
_cell_angle_alpha   90.00000000
_cell_angle_beta   90.00000000
_cell_angle_gamma   90.00000000
_symmetry_Int_Tables_number   1
_chemical_formula_structural   K2MnSO4F3
_chemical_formula_sum   'K8 Mn4 S4 O16 F12'
_cell_volume   699.21118513
_cell_formula_units_Z   4
loop_
 _symmetry_equiv_pos_site_id
 _symmetry_equiv_pos_as_xyz
  1  'x, y, z'
loop_
 _atom_site_type_symbol
 _atom_site_label
 _atom_site_symmetry_multiplicity
 _atom_site_fract_x
 _atom_site_fract_y
 _atom_site_fract_z
 _atom_site_occupancy
  K  K0  1  0.81177300  0.66972500  0.80897400  1
  K  K1  1  0.81177300  0.16972500  0.69102600  1
  K  K2  1  0.31177300  0.83027500  0.69102600  1
  K  K3  1  0.68822700  0.66972500  0.19102600  1
  K  K4  1  0.68822700  0.16972500  0.30897400  1
  K  K5  1  0.31177300  0.33027500  0.80897400  1
  K  K6  1  0.18822700  0.33027500  0.19102600  1
  K  K7  1  0.18822700  0.83027500  0.30897400  1
  Mn  Mn8  1  0.50000000  0.50000000  0.50000000  1
  Mn  Mn9  1  0.50000000  0.00000000  0.00000000  1
  Mn  Mn10  1  0.00000000  0.50000000  0.50000000  1
  Mn  Mn11  1  0.00000000  0.00000000  0.00000000  1
  S  S12  1  0.25000000  0.19239400  0.50000000  1
  S  S13  1  0.75000000  0.30760600  0.00000000  1
  S  S14  1  0.75000000  0.80760600  0.50000000  1
  S  S15  1  0.25000000  0.69239400  0.00000000  1
  O  O16  1  0.33355800  0.09856200  0.40359100  1
  O  O17  1  0.83355800  0.40143800  0.09640900  1
  O  O18  1  0.16644200  0.09856200  0.59640900  1
  O  O19  1  0.66644200  0.40143800  0.90359100  1
  O  O20  1  0.66644200  0.90143800  0.59640900  1
  O  O21  1  0.16644200  0.59856200  0.90359100  1
  O  O22  1  0.83355800  0.90143800  0.40359100  1
  O  O23  1  0.33355800  0.59856200  0.09640900  1
  O  O24  1  0.38864100  0.29737600  0.56085600  1
  O  O25  1  0.88864100  0.20262400  0.93914400  1
  O  O26  1  0.11135900  0.29737600  0.43914400  1
  O  O27  1  0.61135900  0.20262400  0.06085600  1
  O  O28  1  0.11135900  0.79737600  0.06085600  1
  O  O29  1  0.88864100  0.70262400  0.56085600  1
  O  O30  1  0.61135900  0.70262400  0.43914400  1
  O  O31  1  0.38864100  0.79737600  0.93914400  1
  F  F32  1  0.47527300  0.94187800  0.16293800  1
  F  F33  1  0.97527300  0.55812200  0.33706200  1
  F  F34  1  0.02472700  0.94187800  0.83706200  1
  F  F35  1  0.52472700  0.55812200  0.66293800  1
  F  F36  1  0.75000000  0.88215400  0.00000000  1
  F  F37  1  0.25000000  0.61784600  0.50000000  1
  F  F38  1  0.25000000  0.11784600  0.00000000  1
  F  F39  1  0.75000000  0.38215400  0.50000000  1
  F  F40  1  0.97527300  0.05812200  0.16293800  1
  F  F41  1  0.52472700  0.05812200  0.83706200  1
  F  F42  1  0.02472700  0.44187800  0.66293800  1
  F  F43  1  0.47527300  0.44187800  0.33706200  1
