# generated using pymatgen
data_CaFe(SiO3)2
_symmetry_space_group_name_H-M   'P 1'
_cell_length_a   9.97518008
_cell_length_b   9.15447062
_cell_length_c   5.33435080
_cell_angle_alpha   90.00000000
_cell_angle_beta   105.37856194
_cell_angle_gamma   90.00000000
_symmetry_Int_Tables_number   1
_chemical_formula_structural   CaFe(SiO3)2
_chemical_formula_sum   'Ca4 Fe4 Si8 O24'
_cell_volume   469.67807926
_cell_formula_units_Z   4
loop_
 _symmetry_equiv_pos_site_id
 _symmetry_equiv_pos_as_xyz
  1  'x, y, z'
loop_
 _atom_site_type_symbol
 _atom_site_label
 _atom_site_symmetry_multiplicity
 _atom_site_fract_x
 _atom_site_fract_y
 _atom_site_fract_z
 _atom_site_occupancy
  Ca  Ca0  1  0.00000000  0.70156600  0.75000000  1
  Ca  Ca1  1  0.00000000  0.29843400  0.25000000  1
  Ca  Ca2  1  0.50000000  0.20156600  0.75000000  1
  Ca  Ca3  1  0.50000000  0.79843400  0.25000000  1
  Fe  Fe4  1  0.00000000  0.09184850  0.75000000  1
  Fe  Fe5  1  0.00000000  0.90815150  0.25000000  1
  Fe  Fe6  1  0.50000000  0.59184850  0.75000000  1
  Fe  Fe7  1  0.50000000  0.40815150  0.25000000  1
  Si  Si8  1  0.78788450  0.59225700  0.23684250  1
  Si  Si9  1  0.78788450  0.40774300  0.73684250  1
  Si  Si10  1  0.21211550  0.40774300  0.76315750  1
  Si  Si11  1  0.21211550  0.59225700  0.26315750  1
  Si  Si12  1  0.28788450  0.09225700  0.23684250  1
  Si  Si13  1  0.28788450  0.90774300  0.73684250  1
  Si  Si14  1  0.71211550  0.90774300  0.76315750  1
  Si  Si15  1  0.71211550  0.09225700  0.26315750  1
  O  O16  1  0.38078050  0.40865350  0.84603200  1
  O  O17  1  0.38078050  0.59134650  0.34603200  1
  O  O18  1  0.61921950  0.40865350  0.65396800  1
  O  O19  1  0.61921950  0.59134650  0.15396800  1
  O  O20  1  0.13525350  0.74526000  0.17514500  1
  O  O21  1  0.86474650  0.74526000  0.32485500  1
  O  O22  1  0.86474650  0.25474000  0.82485500  1
  O  O23  1  0.13525350  0.25474000  0.67514500  1
  O  O24  1  0.84927800  0.51662150  0.00137450  1
  O  O25  1  0.84927800  0.48337850  0.50137450  1
  O  O26  1  0.15072200  0.51662150  0.49862550  1
  O  O27  1  0.15072200  0.48337850  0.99862550  1
  O  O28  1  0.88078050  0.90865350  0.84603200  1
  O  O29  1  0.88078050  0.09134650  0.34603200  1
  O  O30  1  0.11921950  0.90865350  0.65396800  1
  O  O31  1  0.11921950  0.09134650  0.15396800  1
  O  O32  1  0.63525350  0.24526000  0.17514500  1
  O  O33  1  0.36474650  0.24526000  0.32485500  1
  O  O34  1  0.36474650  0.75474000  0.82485500  1
  O  O35  1  0.63525350  0.75474000  0.67514500  1
  O  O36  1  0.34927800  0.01662150  0.00137450  1
  O  O37  1  0.34927800  0.98337850  0.50137450  1
  O  O38  1  0.65072200  0.01662150  0.49862550  1
  O  O39  1  0.65072200  0.98337850  0.99862550  1
