# generated using pymatgen
data_Sr2CdWO6
_symmetry_space_group_name_H-M   'P 1'
_cell_length_a   5.82887700
_cell_length_b   6.06382400
_cell_length_c   8.33515900
_cell_angle_alpha   90.00000000
_cell_angle_beta   90.00000000
_cell_angle_gamma   90.00000000
_symmetry_Int_Tables_number   1
_chemical_formula_structural   Sr2CdWO6
_chemical_formula_sum   'Sr4 Cd2 W2 O12'
_cell_volume   294.60856409
_cell_formula_units_Z   2
loop_
 _symmetry_equiv_pos_site_id
 _symmetry_equiv_pos_as_xyz
  1  'x, y, z'
loop_
 _atom_site_type_symbol
 _atom_site_label
 _atom_site_symmetry_multiplicity
 _atom_site_fract_x
 _atom_site_fract_y
 _atom_site_fract_z
 _atom_site_occupancy
  Sr  Sr0  1  0.50000000  0.20979600  0.76396400  1
  Sr  Sr1  1  0.50000000  0.20979600  0.23603600  1
  Sr  Sr2  1  0.00000000  0.79020400  0.73603600  1
  Sr  Sr3  1  0.00000000  0.79020400  0.26396400  1
  Cd  Cd4  1  0.00000000  0.27394400  0.50000000  1
  Cd  Cd5  1  0.50000000  0.72605600  0.00000000  1
  W  W6  1  0.50000000  0.76271700  0.50000000  1
  W  W7  1  0.00000000  0.23728300  0.00000000  1
  O  O8  1  0.50000000  0.78091400  0.73303800  1
  O  O9  1  0.50000000  0.78091400  0.26696200  1
  O  O10  1  0.00000000  0.21908600  0.76696200  1
  O  O11  1  0.00000000  0.21908600  0.23303800  1
  O  O12  1  0.73374700  0.99825300  0.50000000  1
  O  O13  1  0.26625300  0.99825300  0.50000000  1
  O  O14  1  0.74276700  0.54898300  0.50000000  1
  O  O15  1  0.25723300  0.54898300  0.50000000  1
  O  O16  1  0.24276700  0.45101700  0.00000000  1
  O  O17  1  0.75723300  0.45101700  0.00000000  1
  O  O18  1  0.76625300  0.00174700  0.00000000  1
  O  O19  1  0.23374700  0.00174700  0.00000000  1
