# generated using pymatgen
data_CsPbBr3
_symmetry_space_group_name_H-M   'P 1'
_cell_length_a   8.44711400
_cell_length_b   8.44711400
_cell_length_c   11.98134600
_cell_angle_alpha   90.00000000
_cell_angle_beta   90.00000000
_cell_angle_gamma   90.00000000
_symmetry_Int_Tables_number   1
_chemical_formula_structural   CsPbBr3
_chemical_formula_sum   'Cs4 Pb4 Br12'
_cell_volume   854.91378658
_cell_formula_units_Z   4
loop_
 _symmetry_equiv_pos_site_id
 _symmetry_equiv_pos_as_xyz
  1  'x, y, z'
loop_
 _atom_site_type_symbol
 _atom_site_label
 _atom_site_symmetry_multiplicity
 _atom_site_fract_x
 _atom_site_fract_y
 _atom_site_fract_z
 _atom_site_occupancy
  Cs  Cs0  1  0.00000000  0.50000000  0.25000000  1
  Cs  Cs1  1  0.50000000  0.00000000  0.25000000  1
  Cs  Cs2  1  0.50000000  0.00000000  0.75000000  1
  Cs  Cs3  1  0.00000000  0.50000000  0.75000000  1
  Pb  Pb4  1  0.00000000  0.00000000  0.00000000  1
  Pb  Pb5  1  0.50000000  0.50000000  0.00000000  1
  Pb  Pb6  1  0.50000000  0.50000000  0.50000000  1
  Pb  Pb7  1  0.00000000  0.00000000  0.50000000  1
  Br  Br8  1  0.00000000  0.00000000  0.25000000  1
  Br  Br9  1  0.50000000  0.50000000  0.25000000  1
  Br  Br10  1  0.71923150  0.21923150  0.50000000  1
  Br  Br11  1  0.78076850  0.28076850  0.00000000  1
  Br  Br12  1  0.28076850  0.21923150  0.00000000  1
  Br  Br13  1  0.71923150  0.78076850  0.00000000  1
  Br  Br14  1  0.50000000  0.50000000  0.75000000  1
  Br  Br15  1  0.00000000  0.00000000  0.75000000  1
  Br  Br16  1  0.21923150  0.71923150  0.00000000  1
  Br  Br17  1  0.28076850  0.78076850  0.50000000  1
  Br  Br18  1  0.78076850  0.71923150  0.50000000  1
  Br  Br19  1  0.21923150  0.28076850  0.50000000  1
