# generated using pymatgen
data_Y(PO3)3
_symmetry_space_group_name_H-M   'P 1'
_cell_length_a   14.51309000
_cell_length_b   6.93832200
_cell_length_c   10.24883994
_cell_angle_alpha   90.00000000
_cell_angle_beta   127.09732171
_cell_angle_gamma   90.00000000
_symmetry_Int_Tables_number   1
_chemical_formula_structural   Y(PO3)3
_chemical_formula_sum   'Y4 P12 O36'
_cell_volume   823.15343982
_cell_formula_units_Z   4
loop_
 _symmetry_equiv_pos_site_id
 _symmetry_equiv_pos_as_xyz
  1  'x, y, z'
loop_
 _atom_site_type_symbol
 _atom_site_label
 _atom_site_symmetry_multiplicity
 _atom_site_fract_x
 _atom_site_fract_y
 _atom_site_fract_z
 _atom_site_occupancy
  Y  Y0  1  0.55012950  0.75531150  0.25009600  1
  Y  Y1  1  0.55012950  0.24468850  0.75009600  1
  Y  Y2  1  0.05012950  0.25531150  0.25009600  1
  Y  Y3  1  0.05012950  0.74468850  0.75009600  1
  P  P4  1  0.20535300  0.39615400  0.08734400  1
  P  P5  1  0.70535300  0.10384600  0.58734400  1
  P  P6  1  0.79783450  0.57777850  0.99149400  1
  P  P7  1  0.29783450  0.92222150  0.49149400  1
  P  P8  1  0.89981450  0.89666050  0.91491500  1
  P  P9  1  0.39981450  0.60333950  0.41491500  1
  P  P10  1  0.70535300  0.89615400  0.08734400  1
  P  P11  1  0.20535300  0.60384600  0.58734400  1
  P  P12  1  0.29783450  0.07777850  0.99149400  1
  P  P13  1  0.79783450  0.42222150  0.49149400  1
  P  P14  1  0.39981450  0.39666050  0.91491500  1
  P  P15  1  0.89981450  0.10333950  0.41491500  1
  O  O16  1  0.26726200  0.20229900  0.09161800  1
  O  O17  1  0.76726200  0.29770100  0.59161800  1
  O  O18  1  0.81231350  0.72980150  0.88745600  1
  O  O19  1  0.31231350  0.77019850  0.38745600  1
  O  O20  1  0.81444300  0.01399600  0.75153200  1
  O  O21  1  0.31444300  0.48600400  0.25153200  1
  O  O22  1  0.11455500  0.34351200  0.10757100  1
  O  O23  1  0.61455500  0.15648800  0.60757100  1
  O  O24  1  0.66951150  0.02017350  0.94402900  1
  O  O25  1  0.66951150  0.97982650  0.44402900  1
  O  O26  1  0.41031600  0.97841400  0.11383100  1
  O  O27  1  0.41031600  0.02158600  0.61383100  1
  O  O28  1  0.69503250  0.45669250  0.87086900  1
  O  O29  1  0.19503250  0.04330750  0.37086900  1
  O  O30  1  0.43828000  0.51816500  0.06087200  1
  O  O31  1  0.43828000  0.48183500  0.56087200  1
  O  O32  1  0.49125550  0.31268950  0.90587300  1
  O  O33  1  0.49125550  0.68731050  0.40587300  1
  O  O34  1  0.76726200  0.70229900  0.09161800  1
  O  O35  1  0.26726200  0.79770100  0.59161800  1
  O  O36  1  0.31231350  0.22980150  0.88745600  1
  O  O37  1  0.81231350  0.27019850  0.38745600  1
  O  O38  1  0.31444300  0.51399600  0.75153200  1
  O  O39  1  0.81444300  0.98600400  0.25153200  1
  O  O40  1  0.61455500  0.84351200  0.10757100  1
  O  O41  1  0.11455500  0.65648800  0.60757100  1
  O  O42  1  0.16951150  0.52017350  0.94402900  1
  O  O43  1  0.16951150  0.47982650  0.44402900  1
  O  O44  1  0.91031600  0.47841400  0.11383100  1
  O  O45  1  0.91031600  0.52158600  0.61383100  1
  O  O46  1  0.19503250  0.95669250  0.87086900  1
  O  O47  1  0.69503250  0.54330750  0.37086900  1
  O  O48  1  0.93828000  0.01816500  0.06087200  1
  O  O49  1  0.93828000  0.98183500  0.56087200  1
  O  O50  1  0.99125550  0.81268950  0.90587300  1
  O  O51  1  0.99125550  0.18731050  0.40587300  1
