# generated using pymatgen
data_Sr(NiO2)4
_symmetry_space_group_name_H-M   'P 1'
_cell_length_a   5.72520190
_cell_length_b   5.72520190
_cell_length_c   17.94896503
_cell_angle_alpha   90.00000000
_cell_angle_beta   90.00000000
_cell_angle_gamma   120.00000000
_symmetry_Int_Tables_number   1
_chemical_formula_structural   Sr(NiO2)4
_chemical_formula_sum   'Sr3 Ni12 O24'
_cell_volume   509.50876245
_cell_formula_units_Z   3
loop_
 _symmetry_equiv_pos_site_id
 _symmetry_equiv_pos_as_xyz
  1  'x, y, z'
loop_
 _atom_site_type_symbol
 _atom_site_label
 _atom_site_symmetry_multiplicity
 _atom_site_fract_x
 _atom_site_fract_y
 _atom_site_fract_z
 _atom_site_occupancy
  Sr  Sr0  1  0.66666667  0.33333333  0.83333333  1
  Sr  Sr1  1  0.33333333  0.66666667  0.16666667  1
  Sr  Sr2  1  1.00000000  1.00000000  0.50000000  1
  Ni  Ni3  1  0.50000000  0.50000000  0.00000000  1
  Ni  Ni4  1  0.83333333  0.66666667  0.66666667  1
  Ni  Ni5  1  0.00000000  0.50000000  0.00000000  1
  Ni  Ni6  1  0.33333333  0.66666667  0.66666667  1
  Ni  Ni7  1  0.16666667  0.83333333  0.33333333  1
  Ni  Ni8  1  0.50000000  0.00000000  0.00000000  1
  Ni  Ni9  1  0.66666667  0.83333333  0.33333333  1
  Ni  Ni10  1  1.00000000  1.00000000  0.00000000  1
  Ni  Ni11  1  0.83333333  0.16666667  0.66666667  1
  Ni  Ni12  1  0.16666667  0.33333333  0.33333333  1
  Ni  Ni13  1  0.33333333  0.16666667  0.66666667  1
  Ni  Ni14  1  0.66666667  0.33333333  0.33333333  1
  O  O15  1  0.33333333  0.66666667  0.94642000  1
  O  O16  1  0.00000000  0.00000000  0.72024667  1
  O  O17  1  0.82269967  0.17730033  0.94421383  1
  O  O18  1  0.51063367  0.02126733  0.72245283  1
  O  O19  1  0.51063367  0.48936633  0.72245283  1
  O  O20  1  0.97873267  0.48936633  0.72245283  1
  O  O21  1  0.82269967  0.64539933  0.94421383  1
  O  O22  1  0.35460067  0.17730033  0.94421383  1
  O  O23  1  0.00000000  0.00000000  0.27975333  1
  O  O24  1  0.66666667  0.33333333  0.05358000  1
  O  O25  1  0.48936633  0.51063367  0.27754717  1
  O  O26  1  0.17730033  0.35460067  0.05578617  1
  O  O27  1  0.17730033  0.82269967  0.05578617  1
  O  O28  1  0.64539933  0.82269967  0.05578617  1
  O  O29  1  0.48936633  0.97873267  0.27754717  1
  O  O30  1  0.02126733  0.51063367  0.27754717  1
  O  O31  1  0.66666667  0.33333333  0.61308667  1
  O  O32  1  0.33333333  0.66666667  0.38691333  1
  O  O33  1  0.15603300  0.84396700  0.61088050  1
  O  O34  1  0.84396700  0.68793400  0.38911950  1
  O  O35  1  0.84396700  0.15603300  0.38911950  1
  O  O36  1  0.31206600  0.15603300  0.38911950  1
  O  O37  1  0.15603300  0.31206600  0.61088050  1
  O  O38  1  0.68793400  0.84396700  0.61088050  1
