# generated using pymatgen
data_Ho2Cu(B2O5)2
_symmetry_space_group_name_H-M   'P 1'
_cell_length_a   4.60484300
_cell_length_b   7.29021900
_cell_length_c   9.35995876
_cell_angle_alpha   90.00000000
_cell_angle_beta   90.46462939
_cell_angle_gamma   90.00000000
_symmetry_Int_Tables_number   1
_chemical_formula_structural   Ho2Cu(B2O5)2
_chemical_formula_sum   'Ho4 Cu2 B8 O20'
_cell_volume   314.20642235
_cell_formula_units_Z   2
loop_
 _symmetry_equiv_pos_site_id
 _symmetry_equiv_pos_as_xyz
  1  'x, y, z'
loop_
 _atom_site_type_symbol
 _atom_site_label
 _atom_site_symmetry_multiplicity
 _atom_site_fract_x
 _atom_site_fract_y
 _atom_site_fract_z
 _atom_site_occupancy
  Ho  Ho0  1  0.00428100  0.60450400  0.16527000  1
  Ho  Ho1  1  0.99571900  0.10450400  0.33473000  1
  Ho  Ho2  1  0.00428100  0.89549600  0.66527000  1
  Ho  Ho3  1  0.99571900  0.39549600  0.83473000  1
  Cu  Cu4  1  0.00000000  0.00000000  0.00000000  1
  Cu  Cu5  1  0.00000000  0.50000000  0.50000000  1
  B  B6  1  0.53983400  0.73239300  0.91913300  1
  B  B7  1  0.46016600  0.23239300  0.58086700  1
  B  B8  1  0.46016600  0.26760700  0.08086700  1
  B  B9  1  0.53983400  0.76760700  0.41913300  1
  B  B10  1  0.52781400  0.40143000  0.33823500  1
  B  B11  1  0.47218600  0.90143000  0.16176500  1
  B  B12  1  0.47218600  0.59857000  0.66176500  1
  B  B13  1  0.52781400  0.09857000  0.83823500  1
  O  O14  1  0.78531800  0.58925400  0.66576900  1
  O  O15  1  0.21468200  0.41074600  0.33423100  1
  O  O16  1  0.67708900  0.91282300  0.86199400  1
  O  O17  1  0.32291100  0.41282300  0.63800600  1
  O  O18  1  0.32291100  0.08717700  0.13800600  1
  O  O19  1  0.78531800  0.91074600  0.16576900  1
  O  O20  1  0.64077100  0.22222800  0.95300200  1
  O  O21  1  0.35922900  0.72222800  0.54699800  1
  O  O22  1  0.35922900  0.77777200  0.04699800  1
  O  O23  1  0.64077100  0.27777200  0.45300200  1
  O  O24  1  0.65660300  0.16560000  0.70000400  1
  O  O25  1  0.34339700  0.66560000  0.79999600  1
  O  O26  1  0.34339700  0.83440000  0.29999600  1
  O  O27  1  0.65660300  0.33440000  0.20000400  1
  O  O28  1  0.77105600  0.88828800  0.45758300  1
  O  O29  1  0.22894400  0.38828800  0.04241700  1
  O  O30  1  0.22894400  0.11171200  0.54241700  1
  O  O31  1  0.77105600  0.61171200  0.95758300  1
  O  O32  1  0.67708900  0.58717700  0.36199400  1
  O  O33  1  0.21468200  0.08925400  0.83423100  1
