# generated using pymatgen
data_Ba2Ni(PO4)2
_symmetry_space_group_name_H-M   'P 1'
_cell_length_a   5.39430348
_cell_length_b   8.93458216
_cell_length_c   17.04892534
_cell_angle_alpha   90.00000000
_cell_angle_beta   107.62827981
_cell_angle_gamma   90.00000000
_symmetry_Int_Tables_number   1
_chemical_formula_structural   Ba2Ni(PO4)2
_chemical_formula_sum   'Ba8 Ni4 P8 O32'
_cell_volume   783.10204314
_cell_formula_units_Z   4
loop_
 _symmetry_equiv_pos_site_id
 _symmetry_equiv_pos_as_xyz
  1  'x, y, z'
loop_
 _atom_site_type_symbol
 _atom_site_label
 _atom_site_symmetry_multiplicity
 _atom_site_fract_x
 _atom_site_fract_y
 _atom_site_fract_z
 _atom_site_occupancy
  Ba  Ba0  1  0.52714353  0.65380685  0.26967045  1
  Ba  Ba1  1  0.47285647  0.15380685  0.23032955  1
  Ba  Ba2  1  0.47285647  0.34619315  0.73032955  1
  Ba  Ba3  1  0.52714353  0.84619315  0.76967045  1
  Ba  Ba4  1  0.67944314  0.20304562  0.98132604  1
  Ba  Ba5  1  0.32055686  0.70304562  0.51867396  1
  Ba  Ba6  1  0.32055686  0.79695438  0.01867396  1
  Ba  Ba7  1  0.67944314  0.29695438  0.48132604  1
  Ni  Ni8  1  0.09213087  0.01156878  0.36667411  1
  Ni  Ni9  1  0.90786913  0.51156878  0.13332589  1
  Ni  Ni10  1  0.09213087  0.48843122  0.86667411  1
  Ni  Ni11  1  0.90786913  0.98843122  0.63332589  1
  P  P12  1  0.91834132  0.88753462  0.16663657  1
  P  P13  1  0.08165868  0.38753462  0.33336343  1
  P  P14  1  0.08165868  0.11246538  0.83336343  1
  P  P15  1  0.91834132  0.61246538  0.66663657  1
  P  P16  1  0.68979754  0.91380647  0.42179086  1
  P  P17  1  0.68979754  0.58619353  0.92179086  1
  P  P18  1  0.31020246  0.08619353  0.57820914  1
  P  P19  1  0.31020246  0.41380647  0.07820914  1
  O  O20  1  0.89209105  0.97000218  0.24456115  1
  O  O21  1  0.10790895  0.47000218  0.25543885  1
  O  O22  1  0.10790895  0.02999782  0.75543885  1
  O  O23  1  0.89209105  0.52999782  0.74456115  1
  O  O24  1  0.20622006  0.88728844  0.16600578  1
  O  O25  1  0.79377994  0.38728844  0.33399422  1
  O  O26  1  0.79377994  0.11271156  0.83399422  1
  O  O27  1  0.20622006  0.61271156  0.66600578  1
  O  O28  1  0.81222894  0.72412667  0.16778275  1
  O  O29  1  0.18777106  0.22412667  0.33221725  1
  O  O30  1  0.18777106  0.27587333  0.83221725  1
  O  O31  1  0.81222894  0.77587333  0.66778275  1
  O  O32  1  0.74208703  0.96993140  0.08904419  1
  O  O33  1  0.25791297  0.46993140  0.41095581  1
  O  O34  1  0.25791297  0.03006860  0.91095581  1
  O  O35  1  0.74208703  0.53006860  0.58904420  1
  O  O36  1  0.40540940  0.86584517  0.37316268  1
  O  O37  1  0.59459060  0.36584517  0.12683732  1
  O  O38  1  0.59459060  0.13415483  0.62683732  1
  O  O39  1  0.40540940  0.63415483  0.87316268  1
  O  O40  1  0.72328421  0.58840960  0.01433284  1
  O  O41  1  0.27671579  0.08840960  0.48566716  1
  O  O42  1  0.27671579  0.41159040  0.98566716  1
  O  O43  1  0.72328421  0.91159040  0.51433284  1
  O  O44  1  0.88536927  0.69498206  0.89998481  1
  O  O45  1  0.11463073  0.19498206  0.60001519  1
  O  O46  1  0.74327627  0.06998295  0.38886670  1
  O  O47  1  0.88536927  0.80501794  0.39998481  1
  O  O48  1  0.74327627  0.43001705  0.88886670  1
  O  O49  1  0.25672373  0.93001705  0.61113330  1
  O  O50  1  0.25672373  0.56998295  0.11113330  1
  O  O51  1  0.11463073  0.30501794  0.10001519  1
