# generated using pymatgen
data_BaAl2Sb2O7
_symmetry_space_group_name_H-M   'P 1'
_cell_length_a   5.51137197
_cell_length_b   5.51137197
_cell_length_c   24.51428195
_cell_angle_alpha   90.00000000
_cell_angle_beta   90.00000000
_cell_angle_gamma   120.00000000
_symmetry_Int_Tables_number   1
_chemical_formula_structural   BaAl2Sb2O7
_chemical_formula_sum   'Ba3 Al6 Sb6 O21'
_cell_volume   644.86566518
_cell_formula_units_Z   3
loop_
 _symmetry_equiv_pos_site_id
 _symmetry_equiv_pos_as_xyz
  1  'x, y, z'
loop_
 _atom_site_type_symbol
 _atom_site_label
 _atom_site_symmetry_multiplicity
 _atom_site_fract_x
 _atom_site_fract_y
 _atom_site_fract_z
 _atom_site_occupancy
  Ba  Ba0  1  0.33333333  0.66666667  0.16666667  1
  Ba  Ba1  1  0.00000000  0.00000000  0.50000000  1
  Ba  Ba2  1  0.66666667  0.33333333  0.83333333  1
  Al  Al3  1  0.66666667  0.33333333  0.26264833  1
  Al  Al4  1  0.00000000  0.00000000  0.07068500  1
  Al  Al5  1  0.33333333  0.66666667  0.59598167  1
  Al  Al6  1  0.66666667  0.33333333  0.40401833  1
  Al  Al7  1  0.00000000  0.00000000  0.92931500  1
  Al  Al8  1  0.33333333  0.66666667  0.73735167  1
  Sb  Sb9  1  0.66666667  0.33333333  0.05404833  1
  Sb  Sb10  1  0.00000000  0.00000000  0.27928500  1
  Sb  Sb11  1  0.33333333  0.66666667  0.38738167  1
  Sb  Sb12  1  0.66666667  0.33333333  0.61261833  1
  Sb  Sb13  1  0.00000000  0.00000000  0.72071500  1
  Sb  Sb14  1  0.33333333  0.66666667  0.94595167  1
  O  O15  1  0.73911300  0.07412500  0.23621800  1
  O  O16  1  0.92587500  0.66498800  0.23621800  1
  O  O17  1  0.33501200  0.26088700  0.23621800  1
  O  O18  1  0.92755367  0.66834533  0.09711533  1
  O  O19  1  0.33165467  0.25920833  0.09711533  1
  O  O20  1  0.00000000  0.00000000  0.00000000  1
  O  O21  1  0.74079167  0.07244633  0.09711533  1
  O  O22  1  0.40577967  0.40745833  0.56955133  1
  O  O23  1  0.59254167  0.99832133  0.56955133  1
  O  O24  1  0.00167867  0.59422033  0.56955133  1
  O  O25  1  0.59422033  0.00167867  0.43044867  1
  O  O26  1  0.99832133  0.59254167  0.43044867  1
  O  O27  1  0.66666667  0.33333333  0.33333333  1
  O  O28  1  0.40745833  0.40577967  0.43044867  1
  O  O29  1  0.07244633  0.74079167  0.90288467  1
  O  O30  1  0.25920833  0.33165467  0.90288467  1
  O  O31  1  0.66834533  0.92755367  0.90288467  1
  O  O32  1  0.26088700  0.33501200  0.76378200  1
  O  O33  1  0.66498800  0.92587500  0.76378200  1
  O  O34  1  0.33333333  0.66666667  0.66666667  1
  O  O35  1  0.07412500  0.73911300  0.76378200  1
