# generated using pymatgen
data_MgMoO4
_symmetry_space_group_name_H-M   'P 1'
_cell_length_a   10.43131200
_cell_length_b   9.43846400
_cell_length_c   7.11871537
_cell_angle_alpha   90.00000000
_cell_angle_beta   106.58132928
_cell_angle_gamma   90.00000000
_symmetry_Int_Tables_number   1
_chemical_formula_structural   MgMoO4
_chemical_formula_sum   'Mg8 Mo8 O32'
_cell_volume   671.73158674
_cell_formula_units_Z   8
loop_
 _symmetry_equiv_pos_site_id
 _symmetry_equiv_pos_as_xyz
  1  'x, y, z'
loop_
 _atom_site_type_symbol
 _atom_site_label
 _atom_site_symmetry_multiplicity
 _atom_site_fract_x
 _atom_site_fract_y
 _atom_site_fract_z
 _atom_site_occupancy
  Mg  Mg0  1  0.79873400  0.50000000  0.64175000  1
  Mg  Mg1  1  0.20126600  0.50000000  0.35825000  1
  Mg  Mg2  1  0.00000000  0.67957900  0.00000000  1
  Mg  Mg3  1  0.00000000  0.32042100  0.00000000  1
  Mg  Mg4  1  0.29873400  0.00000000  0.64175000  1
  Mg  Mg5  1  0.70126600  0.00000000  0.35825000  1
  Mg  Mg6  1  0.50000000  0.17957900  0.00000000  1
  Mg  Mg7  1  0.50000000  0.82042100  0.00000000  1
  Mo  Mo8  1  0.72892900  0.50000000  0.09430100  1
  Mo  Mo9  1  0.27107100  0.50000000  0.90569900  1
  Mo  Mo10  1  0.00000000  0.75104700  0.50000000  1
  Mo  Mo11  1  0.00000000  0.24895300  0.50000000  1
  Mo  Mo12  1  0.22892900  0.00000000  0.09430100  1
  Mo  Mo13  1  0.77107100  0.00000000  0.90569900  1
  Mo  Mo14  1  0.50000000  0.25104700  0.50000000  1
  Mo  Mo15  1  0.50000000  0.74895300  0.50000000  1
  O  O16  1  0.79721600  0.50000000  0.35329000  1
  O  O17  1  0.20278400  0.50000000  0.64671000  1
  O  O18  1  0.86670900  0.84474600  0.97221300  1
  O  O19  1  0.13329100  0.84474600  0.02778700  1
  O  O20  1  0.13329100  0.15525400  0.02778700  1
  O  O21  1  0.86670900  0.15525400  0.97221300  1
  O  O22  1  0.85948500  0.50000000  0.96091700  1
  O  O23  1  0.14051500  0.50000000  0.03908300  1
  O  O24  1  0.95736550  0.34700950  0.69531700  1
  O  O25  1  0.04263450  0.34700950  0.30468300  1
  O  O26  1  0.04263450  0.65299050  0.30468300  1
  O  O27  1  0.95736550  0.65299050  0.69531700  1
  O  O28  1  0.14101500  0.14334900  0.60773000  1
  O  O29  1  0.85898500  0.14334900  0.39227000  1
  O  O30  1  0.85898500  0.85665100  0.39227000  1
  O  O31  1  0.14101500  0.85665100  0.60773000  1
  O  O32  1  0.29721600  0.00000000  0.35329000  1
  O  O33  1  0.70278400  0.00000000  0.64671000  1
  O  O34  1  0.36670900  0.34474600  0.97221300  1
  O  O35  1  0.63329100  0.34474600  0.02778700  1
  O  O36  1  0.63329100  0.65525400  0.02778700  1
  O  O37  1  0.36670900  0.65525400  0.97221300  1
  O  O38  1  0.35948500  0.00000000  0.96091700  1
  O  O39  1  0.64051500  0.00000000  0.03908300  1
  O  O40  1  0.45736550  0.84700950  0.69531700  1
  O  O41  1  0.54263450  0.84700950  0.30468300  1
  O  O42  1  0.54263450  0.15299050  0.30468300  1
  O  O43  1  0.45736550  0.15299050  0.69531700  1
  O  O44  1  0.64101500  0.64334900  0.60773000  1
  O  O45  1  0.35898500  0.64334900  0.39227000  1
  O  O46  1  0.35898500  0.35665100  0.39227000  1
  O  O47  1  0.64101500  0.35665100  0.60773000  1
