# generated using pymatgen
data_TlCu3S2
_symmetry_space_group_name_H-M   'P 1'
_cell_length_a   14.52907800
_cell_length_b   3.84397600
_cell_length_c   8.42791719
_cell_angle_alpha   90.00000000
_cell_angle_beta   111.48592065
_cell_angle_gamma   90.00000000
_symmetry_Int_Tables_number   1
_chemical_formula_structural   TlCu3S2
_chemical_formula_sum   'Tl4 Cu12 S8'
_cell_volume   437.98466730
_cell_formula_units_Z   4
loop_
 _symmetry_equiv_pos_site_id
 _symmetry_equiv_pos_as_xyz
  1  'x, y, z'
loop_
 _atom_site_type_symbol
 _atom_site_label
 _atom_site_symmetry_multiplicity
 _atom_site_fract_x
 _atom_site_fract_y
 _atom_site_fract_z
 _atom_site_occupancy
  Tl  Tl0  1  0.14013600  0.00000000  0.05177100  1
  Tl  Tl1  1  0.35986400  0.50000000  0.94822900  1
  Tl  Tl2  1  0.64013600  0.50000000  0.05177100  1
  Tl  Tl3  1  0.85986400  0.00000000  0.94822900  1
  Cu  Cu4  1  0.08958200  0.50000000  0.63868300  1
  Cu  Cu5  1  0.18705400  0.50000000  0.41837100  1
  Cu  Cu6  1  0.44111400  0.50000000  0.59702600  1
  Cu  Cu7  1  0.05888600  0.00000000  0.40297400  1
  Cu  Cu8  1  0.31294600  0.00000000  0.58162900  1
  Cu  Cu9  1  0.41041800  0.00000000  0.36131700  1
  Cu  Cu10  1  0.58958200  0.00000000  0.63868300  1
  Cu  Cu11  1  0.68705400  0.00000000  0.41837100  1
  Cu  Cu12  1  0.94111400  0.00000000  0.59702600  1
  Cu  Cu13  1  0.55888600  0.50000000  0.40297400  1
  Cu  Cu14  1  0.81294600  0.50000000  0.58162900  1
  Cu  Cu15  1  0.91041800  0.50000000  0.36131700  1
  S  S16  1  0.02324400  0.50000000  0.23106500  1
  S  S17  1  0.47675600  0.00000000  0.76893500  1
  S  S18  1  0.18652200  0.00000000  0.67164400  1
  S  S19  1  0.31347800  0.50000000  0.32835600  1
  S  S20  1  0.52324400  0.00000000  0.23106500  1
  S  S21  1  0.97675600  0.50000000  0.76893500  1
  S  S22  1  0.68652200  0.50000000  0.67164400  1
  S  S23  1  0.81347800  0.00000000  0.32835600  1
