# generated using pymatgen
data_Sr3V2O8
_symmetry_space_group_name_H-M   'P 1'
_cell_length_a   5.72263008
_cell_length_b   5.72263008
_cell_length_c   20.25585788
_cell_angle_alpha   90.00000000
_cell_angle_beta   90.00000000
_cell_angle_gamma   120.00000000
_symmetry_Int_Tables_number   1
_chemical_formula_structural   Sr3V2O8
_chemical_formula_sum   'Sr9 V6 O24'
_cell_volume   574.47696534
_cell_formula_units_Z   3
loop_
 _symmetry_equiv_pos_site_id
 _symmetry_equiv_pos_as_xyz
  1  'x, y, z'
loop_
 _atom_site_type_symbol
 _atom_site_label
 _atom_site_symmetry_multiplicity
 _atom_site_fract_x
 _atom_site_fract_y
 _atom_site_fract_z
 _atom_site_occupancy
  Sr  Sr0  1  0.00000000  0.00000000  0.20129100  1
  Sr  Sr1  1  0.66666667  0.33333333  0.13204233  1
  Sr  Sr2  1  0.00000000  0.00000000  0.00000000  1
  Sr  Sr3  1  0.66666667  0.33333333  0.53462433  1
  Sr  Sr4  1  0.33333333  0.66666667  0.46537567  1
  Sr  Sr5  1  0.66666667  0.33333333  0.33333333  1
  Sr  Sr6  1  0.33333333  0.66666667  0.86795767  1
  Sr  Sr7  1  0.00000000  0.00000000  0.79870900  1
  Sr  Sr8  1  0.33333333  0.66666667  0.66666667  1
  V  V9  1  0.33333333  0.66666667  0.07255667  1
  V  V10  1  0.33333333  0.66666667  0.26077667  1
  V  V11  1  0.00000000  0.00000000  0.40589000  1
  V  V12  1  0.00000000  0.00000000  0.59411000  1
  V  V13  1  0.66666667  0.33333333  0.73922333  1
  V  V14  1  0.66666667  0.33333333  0.92744333  1
  O  O15  1  0.16702100  0.33404200  0.10125300  1
  O  O16  1  0.16702100  0.83297900  0.10125300  1
  O  O17  1  0.66595800  0.83297900  0.10125300  1
  O  O18  1  0.49964567  0.99929133  0.23208033  1
  O  O19  1  0.49964567  0.50035433  0.23208033  1
  O  O20  1  0.66666667  0.33333333  0.01248533  1
  O  O21  1  0.00000000  0.00000000  0.32084800  1
  O  O22  1  0.00070867  0.50035433  0.23208033  1
  O  O23  1  0.83368767  0.66737533  0.43458633  1
  O  O24  1  0.83368767  0.16631233  0.43458633  1
  O  O25  1  0.33262467  0.16631233  0.43458633  1
  O  O26  1  0.16631233  0.33262467  0.56541367  1
  O  O27  1  0.16631233  0.83368767  0.56541367  1
  O  O28  1  0.33333333  0.66666667  0.34581867  1
  O  O29  1  0.66666667  0.33333333  0.65418133  1
  O  O30  1  0.66737533  0.83368767  0.56541367  1
  O  O31  1  0.50035433  0.00070867  0.76791967  1
  O  O32  1  0.50035433  0.49964567  0.76791967  1
  O  O33  1  0.99929133  0.49964567  0.76791967  1
  O  O34  1  0.83297900  0.66595800  0.89874700  1
  O  O35  1  0.83297900  0.16702100  0.89874700  1
  O  O36  1  0.00000000  0.00000000  0.67915200  1
  O  O37  1  0.33333333  0.66666667  0.98751467  1
  O  O38  1  0.33404200  0.16702100  0.89874700  1
