# generated using pymatgen
data_BaNa(B3O5)3
_symmetry_space_group_name_H-M   'P 1'
_cell_length_a   11.30291221
_cell_length_b   11.30291221
_cell_length_c   17.60447466
_cell_angle_alpha   90.00000000
_cell_angle_beta   90.00000000
_cell_angle_gamma   120.00000000
_symmetry_Int_Tables_number   1
_chemical_formula_structural   BaNa(B3O5)3
_chemical_formula_sum   'Ba6 Na6 B54 O90'
_cell_volume   1947.75536868
_cell_formula_units_Z   6
loop_
 _symmetry_equiv_pos_site_id
 _symmetry_equiv_pos_as_xyz
  1  'x, y, z'
loop_
 _atom_site_type_symbol
 _atom_site_label
 _atom_site_symmetry_multiplicity
 _atom_site_fract_x
 _atom_site_fract_y
 _atom_site_fract_z
 _atom_site_occupancy
  Ba  Ba0  1  0.33333333  0.66666667  0.17167567  1
  Ba  Ba1  1  0.33333333  0.66666667  0.67167567  1
  Ba  Ba2  1  0.00000000  0.00000000  0.50500900  1
  Ba  Ba3  1  0.00000000  0.00000000  0.00500900  1
  Ba  Ba4  1  0.66666667  0.33333333  0.83834233  1
  Ba  Ba5  1  0.66666667  0.33333333  0.33834233  1
  Na  Na6  1  0.33333333  0.66666667  0.94455167  1
  Na  Na7  1  0.33333333  0.66666667  0.44455167  1
  Na  Na8  1  0.00000000  0.00000000  0.27788500  1
  Na  Na9  1  0.00000000  0.00000000  0.77788500  1
  Na  Na10  1  0.66666667  0.33333333  0.61121833  1
  Na  Na11  1  0.66666667  0.33333333  0.11121833  1
  B  B12  1  0.66326233  0.89295267  0.05342967  1
  B  B13  1  0.22969033  0.33673767  0.05342967  1
  B  B14  1  0.10704733  0.77030967  0.05342967  1
  B  B15  1  0.99659567  0.43697633  0.22009633  1
  B  B16  1  0.39886100  0.45217600  0.32823200  1
  B  B17  1  0.05331500  0.60113900  0.32823200  1
  B  B18  1  0.54782400  0.94668500  0.32823200  1
  B  B19  1  0.06552767  0.28001833  0.16156533  1
  B  B20  1  0.21449067  0.93447233  0.16156533  1
  B  B21  1  0.71998167  0.78550933  0.16156533  1
  B  B22  1  0.59622700  0.05024000  0.11037300  1
  B  B23  1  0.45401300  0.40377300  0.11037300  1
  B  B24  1  0.94976000  0.54598700  0.11037300  1
  B  B25  1  0.26289367  0.87932033  0.94370633  1
  B  B26  1  0.61642667  0.73710633  0.94370633  1
  B  B27  1  0.12067967  0.38357333  0.94370633  1
  B  B28  1  0.44038067  0.00340433  0.22009633  1
  B  B29  1  0.56302367  0.55961933  0.22009633  1
  B  B30  1  0.32992900  0.22628600  0.38676300  1
  B  B31  1  0.89635700  0.67007100  0.38676300  1
  B  B32  1  0.77371400  0.10364300  0.38676300  1
  B  B33  1  0.66326233  0.77030967  0.55342967  1
  B  B34  1  0.06552767  0.78550933  0.66156533  1
  B  B35  1  0.71998167  0.93447233  0.66156533  1
  B  B36  1  0.21449067  0.28001833  0.66156533  1
  B  B37  1  0.73219433  0.61335167  0.49489867  1
  B  B38  1  0.88115733  0.26780567  0.49489867  1
  B  B39  1  0.38664833  0.11884267  0.49489867  1
  B  B40  1  0.26289367  0.38357333  0.44370633  1
  B  B41  1  0.12067967  0.73710633  0.44370633  1
  B  B42  1  0.61642667  0.87932033  0.44370633  1
  B  B43  1  0.92956033  0.21265367  0.27703967  1
  B  B44  1  0.28309333  0.07043967  0.27703967  1
  B  B45  1  0.78734633  0.71690667  0.27703967  1
  B  B46  1  0.10704733  0.33673767  0.55342967  1
  B  B47  1  0.22969033  0.89295267  0.55342967  1
  B  B48  1  0.99659567  0.55961933  0.72009633  1
  B  B49  1  0.56302367  0.00340433  0.72009633  1
  B  B50  1  0.44038067  0.43697633  0.72009633  1
  B  B51  1  0.32992900  0.10364300  0.88676300  1
  B  B52  1  0.73219433  0.11884267  0.99489867  1
  B  B53  1  0.38664833  0.26780567  0.99489867  1
  B  B54  1  0.88115733  0.61335167  0.99489867  1
  B  B55  1  0.39886100  0.94668500  0.82823200  1
  B  B56  1  0.54782400  0.60113900  0.82823200  1
  B  B57  1  0.05331500  0.45217600  0.82823200  1
  B  B58  1  0.92956033  0.71690667  0.77703967  1
  B  B59  1  0.78734633  0.07043967  0.77703967  1
  B  B60  1  0.28309333  0.21265367  0.77703967  1
  B  B61  1  0.59622700  0.54598700  0.61037300  1
  B  B62  1  0.94976000  0.40377300  0.61037300  1
  B  B63  1  0.45401300  0.05024000  0.61037300  1
  B  B64  1  0.77371400  0.67007100  0.88676300  1
  B  B65  1  0.89635700  0.22628600  0.88676300  1
  O  O66  1  0.46376633  0.90710567  0.26651567  1
  O  O67  1  0.13043300  0.88999400  0.09984900  1
  O  O68  1  0.11000600  0.24043900  0.09984900  1
  O  O69  1  0.75956100  0.86956700  0.09984900  1
  O  O70  1  0.59060800  0.67719900  0.17052400  1
  O  O71  1  0.09289433  0.55666067  0.26651567  1
  O  O72  1  0.08659100  0.40939200  0.17052400  1
  O  O73  1  0.65613433  0.07605867  0.33719067  1
  O  O74  1  0.92394133  0.58007567  0.33719067  1
  O  O75  1  0.41992433  0.34386567  0.33719067  1
  O  O76  1  0.54158133  0.44474767  0.17072967  1
  O  O77  1  0.55525233  0.09683367  0.17072967  1
  O  O78  1  0.90316633  0.45841867  0.17072967  1
  O  O79  1  0.22191900  0.79175200  0.00406300  1
  O  O80  1  0.20824800  0.43016700  0.00406300  1
  O  O81  1  0.56983300  0.77808100  0.00406300  1
  O  O82  1  0.57686800  0.92120400  0.10466600  1
  O  O83  1  0.34433600  0.42313200  0.10466600  1
  O  O84  1  0.07879600  0.65566400  0.10466600  1
  O  O85  1  0.91020133  0.32233067  0.27133267  1
  O  O86  1  0.41212933  0.08979867  0.27133267  1
  O  O87  1  0.67766933  0.58787067  0.27133267  1
  O  O88  1  0.32904633  0.47916267  0.38516467  1
  O  O89  1  0.15011633  0.67095367  0.38516467  1
  O  O90  1  0.52083733  0.84988367  0.38516467  1
  O  O91  1  0.32904633  0.84988367  0.88516467  1
  O  O92  1  0.52083733  0.67095367  0.88516467  1
  O  O93  1  0.15011633  0.47916267  0.88516467  1
  O  O94  1  0.32280100  0.91340900  0.17052400  1
  O  O95  1  0.44333933  0.53623367  0.26651567  1
  O  O96  1  0.13043300  0.24043900  0.59984900  1
  O  O97  1  0.79709967  0.22332733  0.43318233  1
  O  O98  1  0.77667267  0.57377233  0.43318233  1
  O  O99  1  0.42622767  0.20290033  0.43318233  1
  O  O100  1  0.25727467  0.01053233  0.50385733  1
  O  O101  1  0.75956100  0.88999400  0.59984900  1
  O  O102  1  0.75325767  0.74272533  0.50385733  1
  O  O103  1  0.32280100  0.40939200  0.67052400  1
  O  O104  1  0.59060800  0.91340900  0.67052400  1
  O  O105  1  0.08659100  0.67719900  0.67052400  1
  O  O106  1  0.20824800  0.77808100  0.50406300  1
  O  O107  1  0.22191900  0.43016700  0.50406300  1
  O  O108  1  0.56983300  0.79175200  0.50406300  1
  O  O109  1  0.88858567  0.12508533  0.33739633  1
  O  O110  1  0.87491467  0.76350033  0.33739633  1
  O  O111  1  0.23649967  0.11141433  0.33739633  1
  O  O112  1  0.24353467  0.25453733  0.43799933  1
  O  O113  1  0.01100267  0.75646533  0.43799933  1
  O  O114  1  0.74546267  0.98899733  0.43799933  1
  O  O115  1  0.57686800  0.65566400  0.60466600  1
  O  O116  1  0.07879600  0.42313200  0.60466600  1
  O  O117  1  0.34433600  0.92120400  0.60466600  1
  O  O118  1  0.99571300  0.81249600  0.71849800  1
  O  O119  1  0.81678300  0.00428700  0.71849800  1
  O  O120  1  0.18750400  0.18321700  0.71849800  1
  O  O121  1  0.99571300  0.18321700  0.21849800  1
  O  O122  1  0.18750400  0.00428700  0.21849800  1
  O  O123  1  0.81678300  0.81249600  0.21849800  1
  O  O124  1  0.98946767  0.24674233  0.50385733  1
  O  O125  1  0.11000600  0.86956700  0.59984900  1
  O  O126  1  0.79709967  0.57377233  0.93318233  1
  O  O127  1  0.46376633  0.55666067  0.76651567  1
  O  O128  1  0.44333933  0.90710567  0.76651567  1
  O  O129  1  0.09289433  0.53623367  0.76651567  1
  O  O130  1  0.92394133  0.34386567  0.83719067  1
  O  O131  1  0.42622767  0.22332733  0.93318233  1
  O  O132  1  0.41992433  0.07605867  0.83719067  1
  O  O133  1  0.98946767  0.74272533  0.00385733  1
  O  O134  1  0.25727467  0.24674233  0.00385733  1
  O  O135  1  0.75325767  0.01053233  0.00385733  1
  O  O136  1  0.87491467  0.11141433  0.83739633  1
  O  O137  1  0.88858567  0.76350033  0.83739633  1
  O  O138  1  0.23649967  0.12508533  0.83739633  1
  O  O139  1  0.55525233  0.45841867  0.67072967  1
  O  O140  1  0.54158133  0.09683367  0.67072967  1
  O  O141  1  0.90316633  0.44474767  0.67072967  1
  O  O142  1  0.91020133  0.58787067  0.77133267  1
  O  O143  1  0.67766933  0.08979867  0.77133267  1
  O  O144  1  0.41212933  0.32233067  0.77133267  1
  O  O145  1  0.24353467  0.98899733  0.93799933  1
  O  O146  1  0.74546267  0.75646533  0.93799933  1
  O  O147  1  0.01100267  0.25453733  0.93799933  1
  O  O148  1  0.66237967  0.14582933  0.05183133  1
  O  O149  1  0.48344967  0.33762033  0.05183133  1
  O  O150  1  0.85417067  0.51655033  0.05183133  1
  O  O151  1  0.66237967  0.51655033  0.55183133  1
  O  O152  1  0.85417067  0.33762033  0.55183133  1
  O  O153  1  0.48344967  0.14582933  0.55183133  1
  O  O154  1  0.65613433  0.58007567  0.83719067  1
  O  O155  1  0.77667267  0.20290033  0.93318233  1
