# generated using pymatgen
data_KSbO2
_symmetry_space_group_name_H-M   'P 1'
_cell_length_a   7.97020800
_cell_length_b   8.67785400
_cell_length_c   5.67969395
_cell_angle_alpha   90.00000000
_cell_angle_beta   125.03775881
_cell_angle_gamma   90.00000000
_symmetry_Int_Tables_number   1
_chemical_formula_structural   KSbO2
_chemical_formula_sum   'K4 Sb4 O8'
_cell_volume   321.64062964
_cell_formula_units_Z   4
loop_
 _symmetry_equiv_pos_site_id
 _symmetry_equiv_pos_as_xyz
  1  'x, y, z'
loop_
 _atom_site_type_symbol
 _atom_site_label
 _atom_site_symmetry_multiplicity
 _atom_site_fract_x
 _atom_site_fract_y
 _atom_site_fract_z
 _atom_site_occupancy
  K  K0  1  0.50000000  0.86336300  0.25000000  1
  K  K1  1  0.50000000  0.13663700  0.75000000  1
  K  K2  1  0.00000000  0.36336300  0.25000000  1
  K  K3  1  0.00000000  0.63663700  0.75000000  1
  Sb  Sb4  1  0.50000000  0.59304100  0.75000000  1
  Sb  Sb5  1  0.50000000  0.40695900  0.25000000  1
  Sb  Sb6  1  0.00000000  0.09304100  0.75000000  1
  Sb  Sb7  1  0.00000000  0.90695900  0.25000000  1
  O  O8  1  0.18264750  0.05128050  0.22028900  1
  O  O9  1  0.81735250  0.05128050  0.27971100  1
  O  O10  1  0.18264750  0.94871950  0.72028900  1
  O  O11  1  0.81735250  0.94871950  0.77971100  1
  O  O12  1  0.68264750  0.55128050  0.22028900  1
  O  O13  1  0.31735250  0.55128050  0.27971100  1
  O  O14  1  0.68264750  0.44871950  0.72028900  1
  O  O15  1  0.31735250  0.44871950  0.77971100  1
