# generated using pymatgen
data_RbNa3Li12(SiO4)4
_symmetry_space_group_name_H-M   'P 1'
_cell_length_a   10.98541800
_cell_length_b   10.98541800
_cell_length_c   6.35578200
_cell_angle_alpha   90.00000000
_cell_angle_beta   90.00000000
_cell_angle_gamma   90.00000000
_symmetry_Int_Tables_number   1
_chemical_formula_structural   RbNa3Li12(SiO4)4
_chemical_formula_sum   'Rb2 Na6 Li24 Si8 O32'
_cell_volume   767.01201317
_cell_formula_units_Z   2
loop_
 _symmetry_equiv_pos_site_id
 _symmetry_equiv_pos_as_xyz
  1  'x, y, z'
loop_
 _atom_site_type_symbol
 _atom_site_label
 _atom_site_symmetry_multiplicity
 _atom_site_fract_x
 _atom_site_fract_y
 _atom_site_fract_z
 _atom_site_occupancy
  Rb  Rb0  1  0.00000000  0.00000000  0.00000000  1
  Rb  Rb1  1  0.50000000  0.50000000  0.50000000  1
  Na  Na2  1  0.50000000  0.00000000  0.75000000  1
  Na  Na3  1  0.50000000  0.00000000  0.25000000  1
  Na  Na4  1  0.00000000  0.00000000  0.50000000  1
  Na  Na5  1  0.00000000  0.50000000  0.25000000  1
  Na  Na6  1  0.00000000  0.50000000  0.75000000  1
  Na  Na7  1  0.50000000  0.50000000  0.00000000  1
  Li  Li8  1  0.28627000  0.92752800  0.00000000  1
  Li  Li9  1  0.57247200  0.78627000  0.50000000  1
  Li  Li10  1  0.71373000  0.07247200  0.00000000  1
  Li  Li11  1  0.42752800  0.21373000  0.50000000  1
  Li  Li12  1  0.39243950  0.73392950  0.24326150  1
  Li  Li13  1  0.23392950  0.10756050  0.74326150  1
  Li  Li14  1  0.60756050  0.26607050  0.75673850  1
  Li  Li15  1  0.60756050  0.26607050  0.24326150  1
  Li  Li16  1  0.39243950  0.73392950  0.75673850  1
  Li  Li17  1  0.23392950  0.10756050  0.25673850  1
  Li  Li18  1  0.76607050  0.89243950  0.25673850  1
  Li  Li19  1  0.76607050  0.89243950  0.74326150  1
  Li  Li20  1  0.78627000  0.42752800  0.50000000  1
  Li  Li21  1  0.07247200  0.28627000  0.00000000  1
  Li  Li22  1  0.21373000  0.57247200  0.50000000  1
  Li  Li23  1  0.92752800  0.71373000  0.00000000  1
  Li  Li24  1  0.89243950  0.23392950  0.74326150  1
  Li  Li25  1  0.73392950  0.60756050  0.24326150  1
  Li  Li26  1  0.10756050  0.76607050  0.25673850  1
  Li  Li27  1  0.10756050  0.76607050  0.74326150  1
  Li  Li28  1  0.89243950  0.23392950  0.25673850  1
  Li  Li29  1  0.73392950  0.60756050  0.75673850  1
  Li  Li30  1  0.26607050  0.39243950  0.75673850  1
  Li  Li31  1  0.26607050  0.39243950  0.24326150  1
  Si  Si32  1  0.57484650  0.78020550  0.00000000  1
  Si  Si33  1  0.71979450  0.07484650  0.50000000  1
  Si  Si34  1  0.28020550  0.92515350  0.50000000  1
  Si  Si35  1  0.42515350  0.21979450  0.00000000  1
  Si  Si36  1  0.07484650  0.28020550  0.50000000  1
  Si  Si37  1  0.21979450  0.57484650  0.00000000  1
  Si  Si38  1  0.78020550  0.42515350  0.00000000  1
  Si  Si39  1  0.92515350  0.71979450  0.50000000  1
  O  O40  1  0.41640350  0.30331350  0.21663450  1
  O  O41  1  0.19668650  0.91640350  0.71663450  1
  O  O42  1  0.58359650  0.69668650  0.21663450  1
  O  O43  1  0.80331350  0.08359650  0.71663450  1
  O  O44  1  0.80331350  0.08359650  0.28336550  1
  O  O45  1  0.58359650  0.69668650  0.78336550  1
  O  O46  1  0.19668650  0.91640350  0.28336550  1
  O  O47  1  0.41640350  0.30331350  0.78336550  1
  O  O48  1  0.66063150  0.93515550  0.50000000  1
  O  O49  1  0.43515550  0.83936850  0.00000000  1
  O  O50  1  0.56484450  0.16063150  0.00000000  1
  O  O51  1  0.33936850  0.06484450  0.50000000  1
  O  O52  1  0.67480600  0.89212100  0.00000000  1
  O  O53  1  0.39212100  0.82519400  0.50000000  1
  O  O54  1  0.60787900  0.17480600  0.50000000  1
  O  O55  1  0.32519400  0.10787900  0.00000000  1
  O  O56  1  0.91640350  0.80331350  0.71663450  1
  O  O57  1  0.69668650  0.41640350  0.21663450  1
  O  O58  1  0.08359650  0.19668650  0.71663450  1
  O  O59  1  0.30331350  0.58359650  0.21663450  1
  O  O60  1  0.30331350  0.58359650  0.78336550  1
  O  O61  1  0.08359650  0.19668650  0.28336550  1
  O  O62  1  0.69668650  0.41640350  0.78336550  1
  O  O63  1  0.91640350  0.80331350  0.28336550  1
  O  O64  1  0.16063150  0.43515550  0.00000000  1
  O  O65  1  0.93515550  0.33936850  0.50000000  1
  O  O66  1  0.06484450  0.66063150  0.50000000  1
  O  O67  1  0.83936850  0.56484450  0.00000000  1
  O  O68  1  0.17480600  0.39212100  0.50000000  1
  O  O69  1  0.89212100  0.32519400  0.00000000  1
  O  O70  1  0.10787900  0.67480600  0.00000000  1
  O  O71  1  0.82519400  0.60787900  0.50000000  1
