# generated using pymatgen
data_MnCO3
_symmetry_space_group_name_H-M   'P 1'
_cell_length_a   4.83629987
_cell_length_b   4.83629987
_cell_length_c   15.88535460
_cell_angle_alpha   90.00000000
_cell_angle_beta   90.00000000
_cell_angle_gamma   120.00000000
_symmetry_Int_Tables_number   1
_chemical_formula_structural   MnCO3
_chemical_formula_sum   'Mn6 C6 O18'
_cell_volume   321.77625123
_cell_formula_units_Z   6
loop_
 _symmetry_equiv_pos_site_id
 _symmetry_equiv_pos_as_xyz
  1  'x, y, z'
loop_
 _atom_site_type_symbol
 _atom_site_label
 _atom_site_symmetry_multiplicity
 _atom_site_fract_x
 _atom_site_fract_y
 _atom_site_fract_z
 _atom_site_occupancy
  Mn  Mn0  1  0.33333333  0.66666667  0.16666667  1
  Mn  Mn1  1  0.00000000  0.00000000  0.00000000  1
  Mn  Mn2  1  1.00000000  0.00000000  0.50000000  1
  Mn  Mn3  1  0.66666667  0.33333333  0.33333333  1
  Mn  Mn4  1  0.66666667  0.33333333  0.83333333  1
  Mn  Mn5  1  0.33333333  0.66666667  0.66666667  1
  C  C6  1  0.00000000  0.00000000  0.25000000  1
  C  C7  1  0.66666667  0.33333333  0.08333333  1
  C  C8  1  0.66666667  0.33333333  0.58333333  1
  C  C9  1  0.33333333  0.66666667  0.41666667  1
  C  C10  1  0.33333333  0.66666667  0.91666667  1
  C  C11  1  0.00000000  1.00000000  0.75000000  1
  O  O12  1  0.93643917  0.33333333  0.08333333  1
  O  O13  1  0.00000000  0.73022750  0.25000000  1
  O  O14  1  0.39689417  0.06356083  0.08333333  1
  O  O15  1  0.26977250  0.26977250  0.25000000  1
  O  O16  1  0.66666667  0.60310583  0.08333333  1
  O  O17  1  0.73022750  0.00000000  0.25000000  1
  O  O18  1  0.60310583  0.66666667  0.41666667  1
  O  O19  1  0.66666667  0.06356083  0.58333333  1
  O  O20  1  0.06356083  0.39689417  0.41666667  1
  O  O21  1  0.93643917  0.60310583  0.58333333  1
  O  O22  1  0.33333333  0.93643917  0.41666667  1
  O  O23  1  0.39689417  0.33333333  0.58333333  1
  O  O24  1  0.26977250  0.00000000  0.75000000  1
  O  O25  1  0.33333333  0.39689417  0.91666667  1
  O  O26  1  0.73022750  0.73022750  0.75000000  1
  O  O27  1  0.60310583  0.93643917  0.91666667  1
  O  O28  1  0.00000000  0.26977250  0.75000000  1
  O  O29  1  0.06356083  0.66666667  0.91666667  1
