# generated using pymatgen
data_CdSnSb2
_symmetry_space_group_name_H-M   'P 1'
_cell_length_a   6.64418400
_cell_length_b   6.64418400
_cell_length_c   13.13682400
_cell_angle_alpha   90.00000000
_cell_angle_beta   90.00000000
_cell_angle_gamma   90.00000000
_symmetry_Int_Tables_number   1
_chemical_formula_structural   CdSnSb2
_chemical_formula_sum   'Cd4 Sn4 Sb8'
_cell_volume   579.92747358
_cell_formula_units_Z   4
loop_
 _symmetry_equiv_pos_site_id
 _symmetry_equiv_pos_as_xyz
  1  'x, y, z'
loop_
 _atom_site_type_symbol
 _atom_site_label
 _atom_site_symmetry_multiplicity
 _atom_site_fract_x
 _atom_site_fract_y
 _atom_site_fract_z
 _atom_site_occupancy
  Cd  Cd0  1  0.00000000  0.50000000  0.25000000  1
  Cd  Cd1  1  0.00000000  0.00000000  0.00000000  1
  Cd  Cd2  1  0.50000000  0.00000000  0.75000000  1
  Cd  Cd3  1  0.50000000  0.50000000  0.50000000  1
  Sn  Sn4  1  0.50000000  0.00000000  0.25000000  1
  Sn  Sn5  1  0.50000000  0.50000000  0.00000000  1
  Sn  Sn6  1  0.00000000  0.50000000  0.75000000  1
  Sn  Sn7  1  0.00000000  0.00000000  0.50000000  1
  Sb  Sb8  1  0.75000000  0.74792600  0.37500000  1
  Sb  Sb9  1  0.24792600  0.75000000  0.12500000  1
  Sb  Sb10  1  0.75207400  0.25000000  0.12500000  1
  Sb  Sb11  1  0.25000000  0.25207400  0.37500000  1
  Sb  Sb12  1  0.25000000  0.24792600  0.87500000  1
  Sb  Sb13  1  0.74792600  0.25000000  0.62500000  1
  Sb  Sb14  1  0.25207400  0.75000000  0.62500000  1
  Sb  Sb15  1  0.75000000  0.75207400  0.87500000  1
