# generated using pymatgen
data_CuBS2
_symmetry_space_group_name_H-M   'P 1'
_cell_length_a   5.01211800
_cell_length_b   5.01211800
_cell_length_c   9.05964000
_cell_angle_alpha   90.00000000
_cell_angle_beta   90.00000000
_cell_angle_gamma   90.00000000
_symmetry_Int_Tables_number   1
_chemical_formula_structural   CuBS2
_chemical_formula_sum   'Cu4 B4 S8'
_cell_volume   227.59017755
_cell_formula_units_Z   4
loop_
 _symmetry_equiv_pos_site_id
 _symmetry_equiv_pos_as_xyz
  1  'x, y, z'
loop_
 _atom_site_type_symbol
 _atom_site_label
 _atom_site_symmetry_multiplicity
 _atom_site_fract_x
 _atom_site_fract_y
 _atom_site_fract_z
 _atom_site_occupancy
  Cu  Cu0  1  0.00000000  0.00000000  0.00000000  1
  Cu  Cu1  1  0.00000000  0.50000000  0.25000000  1
  Cu  Cu2  1  0.50000000  0.50000000  0.50000000  1
  Cu  Cu3  1  0.50000000  0.00000000  0.75000000  1
  B  B4  1  0.50000000  0.00000000  0.25000000  1
  B  B5  1  0.50000000  0.50000000  0.00000000  1
  B  B6  1  0.00000000  0.50000000  0.75000000  1
  B  B7  1  0.00000000  0.00000000  0.50000000  1
  S  S8  1  0.25000000  0.19513200  0.37500000  1
  S  S9  1  0.69513200  0.25000000  0.12500000  1
  S  S10  1  0.75000000  0.80486800  0.37500000  1
  S  S11  1  0.30486800  0.75000000  0.12500000  1
  S  S12  1  0.75000000  0.69513200  0.87500000  1
  S  S13  1  0.19513200  0.75000000  0.62500000  1
  S  S14  1  0.25000000  0.30486800  0.87500000  1
  S  S15  1  0.80486800  0.25000000  0.62500000  1
