# generated using pymatgen
data_Dy2SiSeO4
_symmetry_space_group_name_H-M   'P 1'
_cell_length_a   6.06530200
_cell_length_b   6.98394400
_cell_length_c   10.85430200
_cell_angle_alpha   90.00000000
_cell_angle_beta   90.00000000
_cell_angle_gamma   90.00000000
_symmetry_Int_Tables_number   1
_chemical_formula_structural   Dy2SiSeO4
_chemical_formula_sum   'Dy8 Si4 Se4 O16'
_cell_volume   459.78529675
_cell_formula_units_Z   4
loop_
 _symmetry_equiv_pos_site_id
 _symmetry_equiv_pos_as_xyz
  1  'x, y, z'
loop_
 _atom_site_type_symbol
 _atom_site_label
 _atom_site_symmetry_multiplicity
 _atom_site_fract_x
 _atom_site_fract_y
 _atom_site_fract_z
 _atom_site_occupancy
  Dy  Dy0  1  0.60958400  0.25000000  0.50000000  1
  Dy  Dy1  1  0.60958400  0.25000000  0.00000000  1
  Dy  Dy2  1  0.39041600  0.75000000  0.50000000  1
  Dy  Dy3  1  0.39041600  0.75000000  0.00000000  1
  Dy  Dy4  1  0.86619700  0.52871900  0.75000000  1
  Dy  Dy5  1  0.86619700  0.97128100  0.25000000  1
  Dy  Dy6  1  0.13380300  0.02871900  0.75000000  1
  Dy  Dy7  1  0.13380300  0.47128100  0.25000000  1
  Si  Si8  1  0.11475000  0.25000000  0.50000000  1
  Si  Si9  1  0.88525000  0.75000000  0.50000000  1
  Si  Si10  1  0.88525000  0.75000000  0.00000000  1
  Si  Si11  1  0.11475000  0.25000000  0.00000000  1
  Se  Se12  1  0.57101600  0.86951100  0.75000000  1
  Se  Se13  1  0.57101600  0.63048900  0.25000000  1
  Se  Se14  1  0.42898400  0.36951100  0.75000000  1
  Se  Se15  1  0.42898400  0.13048900  0.25000000  1
  O  O16  1  0.27777500  0.43142700  0.03155200  1
  O  O17  1  0.27777500  0.06857300  0.96844800  1
  O  O18  1  0.72222500  0.93142700  0.46844800  1
  O  O19  1  0.72222500  0.56857300  0.53155200  1
  O  O20  1  0.72222500  0.56857300  0.96844800  1
  O  O21  1  0.72222500  0.93142700  0.03155200  1
  O  O22  1  0.27777500  0.06857300  0.53155200  1
  O  O23  1  0.27777500  0.43142700  0.46844800  1
  O  O24  1  0.05171300  0.73977200  0.12063700  1
  O  O25  1  0.05171300  0.73977200  0.37936300  1
  O  O26  1  0.94828700  0.23977200  0.37936300  1
  O  O27  1  0.94828700  0.26022800  0.62063700  1
  O  O28  1  0.94828700  0.26022800  0.87936300  1
  O  O29  1  0.94828700  0.23977200  0.12063700  1
  O  O30  1  0.05171300  0.76022800  0.62063700  1
  O  O31  1  0.05171300  0.76022800  0.87936300  1
