# generated using pymatgen
data_Ba2CuSi2O7
_symmetry_space_group_name_H-M   'P 1'
_cell_length_a   8.41732000
_cell_length_b   8.41732000
_cell_length_c   5.35818400
_cell_angle_alpha   90.00000000
_cell_angle_beta   90.00000000
_cell_angle_gamma   90.00000000
_symmetry_Int_Tables_number   1
_chemical_formula_structural   Ba2CuSi2O7
_chemical_formula_sum   'Ba4 Cu2 Si4 O14'
_cell_volume   379.63417335
_cell_formula_units_Z   2
loop_
 _symmetry_equiv_pos_site_id
 _symmetry_equiv_pos_as_xyz
  1  'x, y, z'
loop_
 _atom_site_type_symbol
 _atom_site_label
 _atom_site_symmetry_multiplicity
 _atom_site_fract_x
 _atom_site_fract_y
 _atom_site_fract_z
 _atom_site_occupancy
  Ba  Ba0  1  0.16722400  0.66722400  0.50916400  1
  Ba  Ba1  1  0.66722400  0.83277600  0.49083600  1
  Ba  Ba2  1  0.33277600  0.16722400  0.49083600  1
  Ba  Ba3  1  0.83277600  0.33277600  0.50916400  1
  Cu  Cu4  1  0.50000000  0.50000000  0.00000000  1
  Cu  Cu5  1  0.00000000  0.00000000  0.00000000  1
  Si  Si6  1  0.36595000  0.86595000  0.97552200  1
  Si  Si7  1  0.86595000  0.63405000  0.02447800  1
  Si  Si8  1  0.13405000  0.36595000  0.02447800  1
  Si  Si9  1  0.63405000  0.13405000  0.97552200  1
  O  O10  1  0.42115000  0.69779000  0.84376300  1
  O  O11  1  0.57885000  0.30221000  0.84376300  1
  O  O12  1  0.30221000  0.42115000  0.15623700  1
  O  O13  1  0.69779000  0.57885000  0.15623700  1
  O  O14  1  0.19779000  0.92115000  0.84376300  1
  O  O15  1  0.92115000  0.80221000  0.15623700  1
  O  O16  1  0.07885000  0.19779000  0.15623700  1
  O  O17  1  0.80221000  0.07885000  0.84376300  1
  O  O18  1  0.36603600  0.86603600  0.27732100  1
  O  O19  1  0.86603600  0.63396400  0.72267900  1
  O  O20  1  0.50000000  0.00000000  0.86965500  1
  O  O21  1  0.00000000  0.50000000  0.13034500  1
  O  O22  1  0.63396400  0.13396400  0.27732100  1
  O  O23  1  0.13396400  0.36603600  0.72267900  1
