# generated using pymatgen
data_BaMg2V2O8
_symmetry_space_group_name_H-M   'P 1'
_cell_length_a   12.60686400
_cell_length_b   12.60686400
_cell_length_c   8.61763200
_cell_angle_alpha   90.00000000
_cell_angle_beta   90.00000000
_cell_angle_gamma   90.00000000
_symmetry_Int_Tables_number   1
_chemical_formula_structural   BaMg2V2O8
_chemical_formula_sum   'Ba8 Mg16 V16 O64'
_cell_volume   1369.62627827
_cell_formula_units_Z   8
loop_
 _symmetry_equiv_pos_site_id
 _symmetry_equiv_pos_as_xyz
  1  'x, y, z'
loop_
 _atom_site_type_symbol
 _atom_site_label
 _atom_site_symmetry_multiplicity
 _atom_site_fract_x
 _atom_site_fract_y
 _atom_site_fract_z
 _atom_site_occupancy
  Ba  Ba0  1  0.00000000  0.50000000  0.25000000  1
  Ba  Ba1  1  0.50000000  0.50000000  0.00000000  1
  Ba  Ba2  1  0.00000000  0.50000000  0.75000000  1
  Ba  Ba3  1  0.50000000  0.50000000  0.50000000  1
  Ba  Ba4  1  0.50000000  0.00000000  0.75000000  1
  Ba  Ba5  1  0.00000000  0.00000000  0.50000000  1
  Ba  Ba6  1  0.50000000  0.00000000  0.25000000  1
  Ba  Ba7  1  0.00000000  0.00000000  0.00000000  1
  Mg  Mg8  1  0.83187400  0.66812600  0.00000000  1
  Mg  Mg9  1  0.33187400  0.33187400  0.75000000  1
  Mg  Mg10  1  0.66812600  0.66812600  0.75000000  1
  Mg  Mg11  1  0.66812600  0.83187400  0.50000000  1
  Mg  Mg12  1  0.66812600  0.33187400  0.25000000  1
  Mg  Mg13  1  0.66812600  0.16812600  0.00000000  1
  Mg  Mg14  1  0.83187400  0.33187400  0.50000000  1
  Mg  Mg15  1  0.33187400  0.66812600  0.25000000  1
  Mg  Mg16  1  0.33187400  0.16812600  0.50000000  1
  Mg  Mg17  1  0.83187400  0.83187400  0.25000000  1
  Mg  Mg18  1  0.16812600  0.16812600  0.25000000  1
  Mg  Mg19  1  0.16812600  0.33187400  0.00000000  1
  Mg  Mg20  1  0.16812600  0.83187400  0.75000000  1
  Mg  Mg21  1  0.16812600  0.66812600  0.50000000  1
  Mg  Mg22  1  0.33187400  0.83187400  0.00000000  1
  Mg  Mg23  1  0.83187400  0.16812600  0.75000000  1
  V  V24  1  0.25000000  0.58089300  0.87500000  1
  V  V25  1  0.41910700  0.75000000  0.62500000  1
  V  V26  1  0.58089300  0.25000000  0.62500000  1
  V  V27  1  0.75000000  0.41910700  0.87500000  1
  V  V28  1  0.25000000  0.41910700  0.37500000  1
  V  V29  1  0.58089300  0.75000000  0.12500000  1
  V  V30  1  0.41910700  0.25000000  0.12500000  1
  V  V31  1  0.75000000  0.58089300  0.37500000  1
  V  V32  1  0.75000000  0.08089300  0.37500000  1
  V  V33  1  0.91910700  0.25000000  0.12500000  1
  V  V34  1  0.08089300  0.75000000  0.12500000  1
  V  V35  1  0.25000000  0.91910700  0.37500000  1
  V  V36  1  0.75000000  0.91910700  0.87500000  1
  V  V37  1  0.08089300  0.25000000  0.62500000  1
  V  V38  1  0.91910700  0.75000000  0.62500000  1
  V  V39  1  0.25000000  0.08089300  0.87500000  1
  O  O40  1  0.16193200  0.50255800  0.46900800  1
  O  O41  1  0.83806800  0.49744200  0.46900800  1
  O  O42  1  0.49744200  0.66193200  0.21900800  1
  O  O43  1  0.50255800  0.33806800  0.21900800  1
  O  O44  1  0.66193200  0.49744200  0.28099200  1
  O  O45  1  0.50255800  0.16193200  0.03099200  1
  O  O46  1  0.49744200  0.83806800  0.03099200  1
  O  O47  1  0.33806800  0.50255800  0.28099200  1
  O  O48  1  0.33806800  0.49744200  0.78099200  1
  O  O49  1  0.66193200  0.50255800  0.78099200  1
  O  O50  1  0.50255800  0.83806800  0.53099200  1
  O  O51  1  0.49744200  0.16193200  0.53099200  1
  O  O52  1  0.83806800  0.50255800  0.96900800  1
  O  O53  1  0.49744200  0.33806800  0.71900800  1
  O  O54  1  0.50255800  0.66193200  0.71900800  1
  O  O55  1  0.16193200  0.49744200  0.96900800  1
  O  O56  1  0.67771700  0.34128300  0.00919700  1
  O  O57  1  0.32228300  0.65871700  0.00919700  1
  O  O58  1  0.65871700  0.17771700  0.75919700  1
  O  O59  1  0.34128300  0.82228300  0.75919700  1
  O  O60  1  0.67771700  0.65871700  0.50919700  1
  O  O61  1  0.34128300  0.17771700  0.25919700  1
  O  O62  1  0.65871700  0.82228300  0.25919700  1
  O  O63  1  0.32228300  0.34128300  0.50919700  1
  O  O64  1  0.65871700  0.67771700  0.99080300  1
  O  O65  1  0.34128300  0.32228300  0.99080300  1
  O  O66  1  0.17771700  0.34128300  0.24080300  1
  O  O67  1  0.82228300  0.65871700  0.24080300  1
  O  O68  1  0.82228300  0.34128300  0.74080300  1
  O  O69  1  0.65871700  0.32228300  0.49080300  1
  O  O70  1  0.34128300  0.67771700  0.49080300  1
  O  O71  1  0.17771700  0.65871700  0.74080300  1
  O  O72  1  0.66193200  0.00255800  0.96900800  1
  O  O73  1  0.33806800  0.99744200  0.96900800  1
  O  O74  1  0.99744200  0.16193200  0.71900800  1
  O  O75  1  0.00255800  0.83806800  0.71900800  1
  O  O76  1  0.16193200  0.99744200  0.78099200  1
  O  O77  1  0.00255800  0.66193200  0.53099200  1
  O  O78  1  0.99744200  0.33806800  0.53099200  1
  O  O79  1  0.83806800  0.00255800  0.78099200  1
  O  O80  1  0.83806800  0.99744200  0.28099200  1
  O  O81  1  0.16193200  0.00255800  0.28099200  1
  O  O82  1  0.00255800  0.33806800  0.03099200  1
  O  O83  1  0.99744200  0.66193200  0.03099200  1
  O  O84  1  0.33806800  0.00255800  0.46900800  1
  O  O85  1  0.99744200  0.83806800  0.21900800  1
  O  O86  1  0.00255800  0.16193200  0.21900800  1
  O  O87  1  0.66193200  0.99744200  0.46900800  1
  O  O88  1  0.17771700  0.84128300  0.50919700  1
  O  O89  1  0.82228300  0.15871700  0.50919700  1
  O  O90  1  0.15871700  0.67771700  0.25919700  1
  O  O91  1  0.84128300  0.32228300  0.25919700  1
  O  O92  1  0.17771700  0.15871700  0.00919700  1
  O  O93  1  0.84128300  0.67771700  0.75919700  1
  O  O94  1  0.15871700  0.32228300  0.75919700  1
  O  O95  1  0.82228300  0.84128300  0.00919700  1
  O  O96  1  0.15871700  0.17771700  0.49080300  1
  O  O97  1  0.84128300  0.82228300  0.49080300  1
  O  O98  1  0.67771700  0.84128300  0.74080300  1
  O  O99  1  0.32228300  0.15871700  0.74080300  1
  O  O100  1  0.32228300  0.84128300  0.24080300  1
  O  O101  1  0.15871700  0.82228300  0.99080300  1
  O  O102  1  0.84128300  0.17771700  0.99080300  1
  O  O103  1  0.67771700  0.15871700  0.24080300  1
