# generated using pymatgen
data_Na3LiP2O7
_symmetry_space_group_name_H-M   'P 1'
_cell_length_a   5.56041200
_cell_length_b   9.24265400
_cell_length_c   12.42122000
_cell_angle_alpha   90.00000000
_cell_angle_beta   90.00000000
_cell_angle_gamma   90.00000000
_symmetry_Int_Tables_number   1
_chemical_formula_structural   Na3LiP2O7
_chemical_formula_sum   'Na12 Li4 P8 O28'
_cell_volume   638.36331495
_cell_formula_units_Z   4
loop_
 _symmetry_equiv_pos_site_id
 _symmetry_equiv_pos_as_xyz
  1  'x, y, z'
loop_
 _atom_site_type_symbol
 _atom_site_label
 _atom_site_symmetry_multiplicity
 _atom_site_fract_x
 _atom_site_fract_y
 _atom_site_fract_z
 _atom_site_occupancy
  Na  Na0  1  0.34991000  0.00000000  0.50000000  1
  Na  Na1  1  0.65009000  0.00000000  0.00000000  1
  Na  Na2  1  0.37486250  0.32750150  0.61878700  1
  Na  Na3  1  0.37486250  0.67249850  0.38121300  1
  Na  Na4  1  0.62513750  0.67249850  0.11878700  1
  Na  Na5  1  0.62513750  0.32750150  0.88121300  1
  Na  Na6  1  0.84991000  0.50000000  0.50000000  1
  Na  Na7  1  0.15009000  0.50000000  0.00000000  1
  Na  Na8  1  0.87486250  0.82750150  0.61878700  1
  Na  Na9  1  0.87486250  0.17249850  0.38121300  1
  Na  Na10  1  0.12513750  0.17249850  0.11878700  1
  Na  Na11  1  0.12513750  0.82750150  0.88121300  1
  Li  Li12  1  0.50000000  0.96268000  0.75000000  1
  Li  Li13  1  0.50000000  0.03732000  0.25000000  1
  Li  Li14  1  0.00000000  0.46268000  0.75000000  1
  Li  Li15  1  0.00000000  0.53732000  0.25000000  1
  P  P16  1  0.35936850  0.66900350  0.64851800  1
  P  P17  1  0.35936850  0.33099650  0.35148200  1
  P  P18  1  0.64063150  0.33099650  0.14851800  1
  P  P19  1  0.64063150  0.66900350  0.85148200  1
  P  P20  1  0.85936850  0.16900350  0.64851800  1
  P  P21  1  0.85936850  0.83099650  0.35148200  1
  P  P22  1  0.14063150  0.83099650  0.14851800  1
  P  P23  1  0.14063150  0.16900350  0.85148200  1
  O  O24  1  0.64941200  0.06415700  0.62828600  1
  O  O25  1  0.64941200  0.93584300  0.37171400  1
  O  O26  1  0.35058800  0.93584300  0.12828600  1
  O  O27  1  0.35058800  0.06415700  0.87171400  1
  O  O28  1  0.54352150  0.67450650  0.55694300  1
  O  O29  1  0.54352150  0.32549350  0.44305700  1
  O  O30  1  0.45647850  0.32549350  0.05694300  1
  O  O31  1  0.45647850  0.67450650  0.94305700  1
  O  O32  1  0.27504350  0.81912750  0.68602000  1
  O  O33  1  0.27504350  0.18087250  0.31398000  1
  O  O34  1  0.72495650  0.18087250  0.18602000  1
  O  O35  1  0.72495650  0.81912750  0.81398000  1
  O  O36  1  0.50000000  0.59303800  0.75000000  1
  O  O37  1  0.50000000  0.40696200  0.25000000  1
  O  O38  1  0.14941200  0.56415700  0.62828600  1
  O  O39  1  0.14941200  0.43584300  0.37171400  1
  O  O40  1  0.85058800  0.43584300  0.12828600  1
  O  O41  1  0.85058800  0.56415700  0.87171400  1
  O  O42  1  0.04352150  0.17450650  0.55694300  1
  O  O43  1  0.04352150  0.82549350  0.44305700  1
  O  O44  1  0.95647850  0.82549350  0.05694300  1
  O  O45  1  0.95647850  0.17450650  0.94305700  1
  O  O46  1  0.77504350  0.31912750  0.68602000  1
  O  O47  1  0.77504350  0.68087250  0.31398000  1
  O  O48  1  0.22495650  0.68087250  0.18602000  1
  O  O49  1  0.22495650  0.31912750  0.81398000  1
  O  O50  1  0.00000000  0.09303800  0.75000000  1
  O  O51  1  0.00000000  0.90696200  0.25000000  1
