# generated using pymatgen
data_Sr3La2(BO3)4
_symmetry_space_group_name_H-M   'P 1'
_cell_length_a   7.44139900
_cell_length_b   8.94730100
_cell_length_c   16.83569800
_cell_angle_alpha   90.00000000
_cell_angle_beta   90.00000000
_cell_angle_gamma   90.00000000
_symmetry_Int_Tables_number   1
_chemical_formula_structural   Sr3La2(BO3)4
_chemical_formula_sum   'Sr12 La8 B16 O48'
_cell_volume   1120.92812523
_cell_formula_units_Z   4
loop_
 _symmetry_equiv_pos_site_id
 _symmetry_equiv_pos_as_xyz
  1  'x, y, z'
loop_
 _atom_site_type_symbol
 _atom_site_label
 _atom_site_symmetry_multiplicity
 _atom_site_fract_x
 _atom_site_fract_y
 _atom_site_fract_z
 _atom_site_occupancy
  Sr  Sr0  1  0.68159900  0.34849700  0.92458100  1
  Sr  Sr1  1  0.31840100  0.65150300  0.42458100  1
  Sr  Sr2  1  0.81840100  0.84849700  0.42458100  1
  Sr  Sr3  1  0.18159900  0.15150300  0.92458100  1
  Sr  Sr4  1  0.96603700  0.32549500  0.71909800  1
  Sr  Sr5  1  0.03396300  0.67450500  0.21909800  1
  Sr  Sr6  1  0.53396300  0.82549500  0.21909800  1
  Sr  Sr7  1  0.46603700  0.17450500  0.71909800  1
  Sr  Sr8  1  0.69144700  0.35252400  0.17295700  1
  Sr  Sr9  1  0.30855300  0.64747600  0.67295700  1
  Sr  Sr10  1  0.80855300  0.85252400  0.67295700  1
  Sr  Sr11  1  0.19144700  0.14747600  0.17295700  1
  La  La12  1  0.96793000  0.33115300  0.38002700  1
  La  La13  1  0.03207000  0.66884700  0.88002700  1
  La  La14  1  0.53207000  0.83115300  0.88002700  1
  La  La15  1  0.46793000  0.16884700  0.38002700  1
  La  La16  1  0.68291200  0.46661200  0.55229600  1
  La  La17  1  0.31708800  0.53338800  0.05229600  1
  La  La18  1  0.81708800  0.96661200  0.05229600  1
  La  La19  1  0.18291200  0.03338800  0.55229600  1
  B  B20  1  0.98399800  0.37089000  0.04722400  1
  B  B21  1  0.01600200  0.62911000  0.54722400  1
  B  B22  1  0.51600200  0.87089000  0.54722400  1
  B  B23  1  0.48399800  0.12911000  0.04722400  1
  B  B24  1  0.27799200  0.35638700  0.54943800  1
  B  B25  1  0.72200800  0.64361300  0.04943800  1
  B  B26  1  0.22200800  0.85638700  0.04943800  1
  B  B27  1  0.77799200  0.14361300  0.54943800  1
  B  B28  1  0.33651300  0.43984700  0.25839800  1
  B  B29  1  0.66348700  0.56015300  0.75839800  1
  B  B30  1  0.16348700  0.93984700  0.75839800  1
  B  B31  1  0.83651300  0.06015300  0.25839800  1
  B  B32  1  0.32819100  0.45066800  0.84241900  1
  B  B33  1  0.67180900  0.54933200  0.34241900  1
  B  B34  1  0.17180900  0.95066800  0.34241900  1
  B  B35  1  0.82819100  0.04933200  0.84241900  1
  O  O36  1  0.38263300  0.25934100  0.04464600  1
  O  O37  1  0.61736700  0.74065900  0.54464600  1
  O  O38  1  0.11736700  0.75934100  0.54464600  1
  O  O39  1  0.88263300  0.24065900  0.04464600  1
  O  O40  1  0.04561300  0.42741600  0.11920600  1
  O  O41  1  0.95438700  0.57258400  0.61920600  1
  O  O42  1  0.45438700  0.92741600  0.61920600  1
  O  O43  1  0.54561300  0.07258400  0.11920600  1
  O  O44  1  0.03745300  0.44234700  0.97668300  1
  O  O45  1  0.96254700  0.55765300  0.47668300  1
  O  O46  1  0.46254700  0.94234700  0.47668300  1
  O  O47  1  0.53745300  0.05765300  0.97668300  1
  O  O48  1  0.23516400  0.28196200  0.61856100  1
  O  O49  1  0.76483600  0.71803800  0.11856100  1
  O  O50  1  0.26483600  0.78196200  0.11856100  1
  O  O51  1  0.73516400  0.21803800  0.61856100  1
  O  O52  1  0.24719900  0.28154200  0.47795900  1
  O  O53  1  0.75280100  0.71845800  0.97795900  1
  O  O54  1  0.25280100  0.78154200  0.97795900  1
  O  O55  1  0.74719900  0.21845800  0.47795900  1
  O  O56  1  0.63890600  0.50621200  0.04949700  1
  O  O57  1  0.36109400  0.49378800  0.54949700  1
  O  O58  1  0.86109400  0.00621200  0.54949700  1
  O  O59  1  0.13890600  0.99378800  0.04949700  1
  O  O60  1  0.20727000  0.47454400  0.31530700  1
  O  O61  1  0.79273000  0.52545600  0.81530700  1
  O  O62  1  0.29273000  0.97454400  0.81530700  1
  O  O63  1  0.70727000  0.02545600  0.31530700  1
  O  O64  1  0.41239500  0.29677400  0.25812600  1
  O  O65  1  0.58760500  0.70322600  0.75812600  1
  O  O66  1  0.08760500  0.79677400  0.75812600  1
  O  O67  1  0.91239500  0.20322600  0.25812600  1
  O  O68  1  0.61274100  0.46032300  0.70011000  1
  O  O69  1  0.38725900  0.53967700  0.20011000  1
  O  O70  1  0.88725900  0.96032300  0.20011000  1
  O  O71  1  0.11274100  0.03967700  0.70011000  1
  O  O72  1  0.80647900  0.51092200  0.28890400  1
  O  O73  1  0.19352100  0.48907800  0.78890400  1
  O  O74  1  0.69352100  0.01092200  0.78890400  1
  O  O75  1  0.30647900  0.98907800  0.28890400  1
  O  O76  1  0.39853400  0.30840300  0.84540800  1
  O  O77  1  0.60146600  0.69159700  0.34540800  1
  O  O78  1  0.10146600  0.80840300  0.34540800  1
  O  O79  1  0.89853400  0.19159700  0.84540800  1
  O  O80  1  0.61816200  0.44012700  0.39715500  1
  O  O81  1  0.38183800  0.55987300  0.89715500  1
  O  O82  1  0.88183800  0.94012700  0.89715500  1
  O  O83  1  0.11816200  0.05987300  0.39715500  1
