# generated using pymatgen
data_TmP5O14
_symmetry_space_group_name_H-M   'P 1'
_cell_length_a   13.00353600
_cell_length_b   12.90930000
_cell_length_c   12.51415392
_cell_angle_alpha   90.00000000
_cell_angle_beta   91.51299656
_cell_angle_gamma   90.00000000
_symmetry_Int_Tables_number   1
_chemical_formula_structural   TmP5O14
_chemical_formula_sum   'Tm8 P40 O112'
_cell_volume   2099.97542242
_cell_formula_units_Z   8
loop_
 _symmetry_equiv_pos_site_id
 _symmetry_equiv_pos_as_xyz
  1  'x, y, z'
loop_
 _atom_site_type_symbol
 _atom_site_label
 _atom_site_symmetry_multiplicity
 _atom_site_fract_x
 _atom_site_fract_y
 _atom_site_fract_z
 _atom_site_occupancy
  Tm  Tm0  1  0.00000000  0.98022900  0.25000000  1
  Tm  Tm1  1  0.00000000  0.01977100  0.75000000  1
  Tm  Tm2  1  0.00000000  0.53367400  0.25000000  1
  Tm  Tm3  1  0.00000000  0.46632600  0.75000000  1
  Tm  Tm4  1  0.50000000  0.48022900  0.25000000  1
  Tm  Tm5  1  0.50000000  0.51977100  0.75000000  1
  Tm  Tm6  1  0.50000000  0.03367400  0.25000000  1
  Tm  Tm7  1  0.50000000  0.96632600  0.75000000  1
  P  P8  1  0.35496350  0.46972450  0.49917700  1
  P  P9  1  0.64503650  0.46972450  0.00082300  1
  P  P10  1  0.64503650  0.53027550  0.50082300  1
  P  P11  1  0.35496350  0.53027550  0.99917700  1
  P  P12  1  0.18331350  0.36669850  0.39010300  1
  P  P13  1  0.81668650  0.36669850  0.10989700  1
  P  P14  1  0.81668650  0.63330150  0.60989700  1
  P  P15  1  0.18331350  0.63330150  0.89010300  1
  P  P16  1  0.02307450  0.35166950  0.03446700  1
  P  P17  1  0.97692550  0.35166950  0.46553300  1
  P  P18  1  0.97692550  0.64833050  0.96553300  1
  P  P19  1  0.02307450  0.64833050  0.53446700  1
  P  P20  1  0.85180050  0.83007950  0.89308000  1
  P  P21  1  0.14819950  0.83007950  0.60692000  1
  P  P22  1  0.14819950  0.16992050  0.10692000  1
  P  P23  1  0.85180050  0.16992050  0.39308000  1
  P  P24  1  0.82490300  0.75305900  0.24162900  1
  P  P25  1  0.17509700  0.75305900  0.25837100  1
  P  P26  1  0.17509700  0.24694100  0.75837100  1
  P  P27  1  0.82490300  0.24694100  0.74162900  1
  P  P28  1  0.85496350  0.96972450  0.49917700  1
  P  P29  1  0.14503650  0.96972450  0.00082300  1
  P  P30  1  0.14503650  0.03027550  0.50082300  1
  P  P31  1  0.85496350  0.03027550  0.99917700  1
  P  P32  1  0.68331350  0.86669850  0.39010300  1
  P  P33  1  0.31668650  0.86669850  0.10989700  1
  P  P34  1  0.31668650  0.13330150  0.60989700  1
  P  P35  1  0.68331350  0.13330150  0.89010300  1
  P  P36  1  0.52307450  0.85166950  0.03446700  1
  P  P37  1  0.47692550  0.85166950  0.46553300  1
  P  P38  1  0.47692550  0.14833050  0.96553300  1
  P  P39  1  0.52307450  0.14833050  0.53446700  1
  P  P40  1  0.35180050  0.33007950  0.89308000  1
  P  P41  1  0.64819950  0.33007950  0.60692000  1
  P  P42  1  0.64819950  0.66992050  0.10692000  1
  P  P43  1  0.35180050  0.66992050  0.39308000  1
  P  P44  1  0.32490300  0.25305900  0.24162900  1
  P  P45  1  0.67509700  0.25305900  0.25837100  1
  P  P46  1  0.67509700  0.74694100  0.75837100  1
  P  P47  1  0.32490300  0.74694100  0.74162900  1
  O  O48  1  0.05761450  0.40867050  0.13289700  1
  O  O49  1  0.94238550  0.40867050  0.36710300  1
  O  O50  1  0.94238550  0.59132950  0.86710300  1
  O  O51  1  0.05761450  0.59132950  0.63289700  1
  O  O52  1  0.02522750  0.39757850  0.92616700  1
  O  O53  1  0.97477250  0.39757850  0.57383300  1
  O  O54  1  0.97477250  0.60242150  0.07383300  1
  O  O55  1  0.02522750  0.60242150  0.42616700  1
  O  O56  1  0.42212100  0.43727800  0.41029000  1
  O  O57  1  0.57787900  0.43727800  0.08971000  1
  O  O58  1  0.57787900  0.56272200  0.58971000  1
  O  O59  1  0.42212100  0.56272200  0.91029000  1
  O  O60  1  0.38926450  0.46561350  0.61264900  1
  O  O61  1  0.61073550  0.46561350  0.88735100  1
  O  O62  1  0.61073550  0.53438650  0.38735100  1
  O  O63  1  0.38926450  0.53438650  0.11264900  1
  O  O64  1  0.24900250  0.40235450  0.49220300  1
  O  O65  1  0.75099750  0.40235450  0.00779700  1
  O  O66  1  0.75099750  0.59764550  0.50779700  1
  O  O67  1  0.09313950  0.30493250  0.44374200  1
  O  O68  1  0.24900250  0.59764550  0.99220300  1
  O  O69  1  0.84750500  0.45288100  0.18124400  1
  O  O70  1  0.84750500  0.54711900  0.68124400  1
  O  O71  1  0.15249500  0.54711900  0.81875600  1
  O  O72  1  0.88694650  0.15419750  0.71615900  1
  O  O73  1  0.11305350  0.15419750  0.78384100  1
  O  O74  1  0.11305350  0.84580250  0.28384100  1
  O  O75  1  0.88694650  0.84580250  0.21615900  1
  O  O76  1  0.12637550  0.65209350  0.23091500  1
  O  O77  1  0.87362450  0.65209350  0.26908500  1
  O  O78  1  0.87362450  0.34790650  0.76908500  1
  O  O79  1  0.12637550  0.34790650  0.73091500  1
  O  O80  1  0.24563850  0.72416350  0.83818500  1
  O  O81  1  0.75436150  0.72416350  0.66181500  1
  O  O82  1  0.75436150  0.27583650  0.16181500  1
  O  O83  1  0.24563850  0.27583650  0.33818500  1
  O  O84  1  0.25611600  0.73905400  0.36035100  1
  O  O85  1  0.74388400  0.73905400  0.13964900  1
  O  O86  1  0.74388400  0.26094600  0.63964900  1
  O  O87  1  0.25611600  0.26094600  0.86035100  1
  O  O88  1  0.30752800  0.58612100  0.47188500  1
  O  O89  1  0.69247200  0.58612100  0.02811500  1
  O  O90  1  0.69247200  0.41387900  0.52811500  1
  O  O91  1  0.30752800  0.41387900  0.97188500  1
  O  O92  1  0.90972250  0.12756750  0.30334400  1
  O  O93  1  0.09027750  0.12756750  0.19665600  1
  O  O94  1  0.09027750  0.87243250  0.69665600  1
  O  O95  1  0.90972250  0.87243250  0.80334400  1
  O  O96  1  0.08431000  0.75803900  0.52743400  1
  O  O97  1  0.91569000  0.75803900  0.97256600  1
  O  O98  1  0.91569000  0.24196100  0.47256600  1
  O  O99  1  0.08431000  0.24196100  0.02743400  1
  O  O100  1  0.09313950  0.69506750  0.94374200  1
  O  O101  1  0.90686050  0.69506750  0.55625800  1
  O  O102  1  0.90686050  0.30493250  0.05625800  1
  O  O103  1  0.15249500  0.45288100  0.31875600  1
  O  O104  1  0.55761450  0.90867050  0.13289700  1
  O  O105  1  0.44238550  0.90867050  0.36710300  1
  O  O106  1  0.44238550  0.09132950  0.86710300  1
  O  O107  1  0.55761450  0.09132950  0.63289700  1
  O  O108  1  0.52522750  0.89757850  0.92616700  1
  O  O109  1  0.47477250  0.89757850  0.57383300  1
  O  O110  1  0.47477250  0.10242150  0.07383300  1
  O  O111  1  0.52522750  0.10242150  0.42616700  1
  O  O112  1  0.92212100  0.93727800  0.41029000  1
  O  O113  1  0.07787900  0.93727800  0.08971000  1
  O  O114  1  0.07787900  0.06272200  0.58971000  1
  O  O115  1  0.92212100  0.06272200  0.91029000  1
  O  O116  1  0.88926450  0.96561350  0.61264900  1
  O  O117  1  0.11073550  0.96561350  0.88735100  1
  O  O118  1  0.11073550  0.03438650  0.38735100  1
  O  O119  1  0.88926450  0.03438650  0.11264900  1
  O  O120  1  0.74900250  0.90235450  0.49220300  1
  O  O121  1  0.25099750  0.90235450  0.00779700  1
  O  O122  1  0.25099750  0.09764550  0.50779700  1
  O  O123  1  0.59313950  0.80493250  0.44374200  1
  O  O124  1  0.74900250  0.09764550  0.99220300  1
  O  O125  1  0.34750500  0.95288100  0.18124400  1
  O  O126  1  0.34750500  0.04711900  0.68124400  1
  O  O127  1  0.65249500  0.04711900  0.81875600  1
  O  O128  1  0.38694650  0.65419750  0.71615900  1
  O  O129  1  0.61305350  0.65419750  0.78384100  1
  O  O130  1  0.61305350  0.34580250  0.28384100  1
  O  O131  1  0.38694650  0.34580250  0.21615900  1
  O  O132  1  0.62637550  0.15209350  0.23091500  1
  O  O133  1  0.37362450  0.15209350  0.26908500  1
  O  O134  1  0.37362450  0.84790650  0.76908500  1
  O  O135  1  0.62637550  0.84790650  0.73091500  1
  O  O136  1  0.74563850  0.22416350  0.83818500  1
  O  O137  1  0.25436150  0.22416350  0.66181500  1
  O  O138  1  0.25436150  0.77583650  0.16181500  1
  O  O139  1  0.74563850  0.77583650  0.33818500  1
  O  O140  1  0.75611600  0.23905400  0.36035100  1
  O  O141  1  0.24388400  0.23905400  0.13964900  1
  O  O142  1  0.24388400  0.76094600  0.63964900  1
  O  O143  1  0.75611600  0.76094600  0.86035100  1
  O  O144  1  0.80752800  0.08612100  0.47188500  1
  O  O145  1  0.19247200  0.08612100  0.02811500  1
  O  O146  1  0.19247200  0.91387900  0.52811500  1
  O  O147  1  0.80752800  0.91387900  0.97188500  1
  O  O148  1  0.40972250  0.62756750  0.30334400  1
  O  O149  1  0.59027750  0.62756750  0.19665600  1
  O  O150  1  0.59027750  0.37243250  0.69665600  1
  O  O151  1  0.40972250  0.37243250  0.80334400  1
  O  O152  1  0.58431000  0.25803900  0.52743400  1
  O  O153  1  0.41569000  0.25803900  0.97256600  1
  O  O154  1  0.41569000  0.74196100  0.47256600  1
  O  O155  1  0.58431000  0.74196100  0.02743400  1
  O  O156  1  0.59313950  0.19506750  0.94374200  1
  O  O157  1  0.40686050  0.19506750  0.55625800  1
  O  O158  1  0.40686050  0.80493250  0.05625800  1
  O  O159  1  0.65249500  0.95288100  0.31875600  1
