# generated using pymatgen
data_Mn3TeO6
_symmetry_space_group_name_H-M   'P 1'
_cell_length_a   8.98995773
_cell_length_b   8.98995773
_cell_length_c   10.84564282
_cell_angle_alpha   90.00000000
_cell_angle_beta   90.00000000
_cell_angle_gamma   120.00000000
_symmetry_Int_Tables_number   1
_chemical_formula_structural   Mn3TeO6
_chemical_formula_sum   'Mn18 Te6 O36'
_cell_volume   759.10391078
_cell_formula_units_Z   6
loop_
 _symmetry_equiv_pos_site_id
 _symmetry_equiv_pos_as_xyz
  1  'x, y, z'
loop_
 _atom_site_type_symbol
 _atom_site_label
 _atom_site_symmetry_multiplicity
 _atom_site_fract_x
 _atom_site_fract_y
 _atom_site_fract_z
 _atom_site_occupancy
  Mn  Mn0  1  0.22484733  0.26353167  0.21289267  1
  Mn  Mn1  1  0.93019833  0.37201767  0.12044067  1
  Mn  Mn2  1  0.62798233  0.55818067  0.12044067  1
  Mn  Mn3  1  0.73646833  0.96131567  0.21289267  1
  Mn  Mn4  1  0.03868433  0.77515267  0.21289267  1
  Mn  Mn5  1  0.44181933  0.06980167  0.12044067  1
  Mn  Mn6  1  0.89151400  0.59686500  0.54622600  1
  Mn  Mn7  1  0.59686500  0.70535100  0.45377400  1
  Mn  Mn8  1  0.29464900  0.89151400  0.45377400  1
  Mn  Mn9  1  0.40313500  0.29464900  0.54622600  1
  Mn  Mn10  1  0.70535100  0.10848600  0.54622600  1
  Mn  Mn11  1  0.10848600  0.40313500  0.45377400  1
  Mn  Mn12  1  0.55818067  0.93019833  0.87955933  1
  Mn  Mn13  1  0.26353167  0.03868433  0.78710733  1
  Mn  Mn14  1  0.96131567  0.22484733  0.78710733  1
  Mn  Mn15  1  0.06980167  0.62798233  0.87955933  1
  Mn  Mn16  1  0.37201767  0.44181933  0.87955933  1
  Mn  Mn17  1  0.77515267  0.73646833  0.78710733  1
  Te  Te18  1  0.33333333  0.66666667  0.16666667  1
  Te  Te19  1  0.66666667  0.33333333  0.33333333  1
  Te  Te20  1  1.00000000  0.00000000  0.50000000  1
  Te  Te21  1  0.33333333  0.66666667  0.66666667  1
  Te  Te22  1  0.66666667  0.33333333  0.83333333  1
  Te  Te23  1  0.00000000  1.00000000  0.00000000  1
  O  O24  1  0.13530067  0.63451833  0.06943433  1
  O  O25  1  0.36548167  0.50078233  0.06943433  1
  O  O26  1  0.49921767  0.86469933  0.06943433  1
  O  O27  1  0.53136600  0.69881500  0.26389900  1
  O  O28  1  0.30118500  0.83255100  0.26389900  1
  O  O29  1  0.16744900  0.46863400  0.26389900  1
  O  O30  1  0.84383800  0.81632400  0.11174900  1
  O  O31  1  0.18367600  0.02751400  0.11174900  1
  O  O32  1  0.97248600  0.15616200  0.11174900  1
  O  O33  1  0.82282867  0.51700933  0.22158433  1
  O  O34  1  0.48299067  0.30581933  0.22158433  1
  O  O35  1  0.69418067  0.17717133  0.22158433  1
  O  O36  1  0.80196733  0.96785167  0.40276767  1
  O  O37  1  0.03214833  0.83411567  0.40276767  1
  O  O38  1  0.16588433  0.19803267  0.40276767  1
  O  O39  1  0.19803267  0.03214833  0.59723233  1
  O  O40  1  0.96785167  0.16588433  0.59723233  1
  O  O41  1  0.83411567  0.80196733  0.59723233  1
  O  O42  1  0.51050467  0.14965733  0.44508233  1
  O  O43  1  0.85034267  0.36084733  0.44508233  1
  O  O44  1  0.63915267  0.48949533  0.44508233  1
  O  O45  1  0.48949533  0.85034267  0.55491767  1
  O  O46  1  0.14965733  0.63915267  0.55491767  1
  O  O47  1  0.36084733  0.51050467  0.55491767  1
  O  O48  1  0.46863400  0.30118500  0.73610100  1
  O  O49  1  0.69881500  0.16744900  0.73610100  1
  O  O50  1  0.83255100  0.53136600  0.73610100  1
  O  O51  1  0.86469933  0.36548167  0.93056567  1
  O  O52  1  0.63451833  0.49921767  0.93056567  1
  O  O53  1  0.50078233  0.13530067  0.93056567  1
  O  O54  1  0.17717133  0.48299067  0.77841567  1
  O  O55  1  0.51700933  0.69418067  0.77841567  1
  O  O56  1  0.30581933  0.82282867  0.77841567  1
  O  O57  1  0.15616200  0.18367600  0.88825100  1
  O  O58  1  0.81632400  0.97248600  0.88825100  1
  O  O59  1  0.02751400  0.84383800  0.88825100  1
