# generated using pymatgen
data_LiMnVO4
_symmetry_space_group_name_H-M   'P 1'
_cell_length_a   5.85874182
_cell_length_b   8.83927088
_cell_length_c   6.42921100
_cell_angle_alpha   90.00000000
_cell_angle_beta   90.00000000
_cell_angle_gamma   90.00000000
_symmetry_Int_Tables_number   1
_chemical_formula_structural   LiMnVO4
_chemical_formula_sum   'Li4 Mn4 V4 O16'
_cell_volume   332.94958829
_cell_formula_units_Z   4
loop_
 _symmetry_equiv_pos_site_id
 _symmetry_equiv_pos_as_xyz
  1  'x, y, z'
loop_
 _atom_site_type_symbol
 _atom_site_label
 _atom_site_symmetry_multiplicity
 _atom_site_fract_x
 _atom_site_fract_y
 _atom_site_fract_z
 _atom_site_occupancy
  Li  Li0  1  0.00000000  0.83794250  0.25000000  1
  Li  Li1  1  0.00000000  0.16205750  0.75000000  1
  Li  Li2  1  0.50000000  0.33794250  0.25000000  1
  Li  Li3  1  0.50000000  0.66205750  0.75000000  1
  Mn  Mn4  1  0.50000000  0.00000000  0.00000000  1
  Mn  Mn5  1  0.50000000  0.00000000  0.50000000  1
  Mn  Mn6  1  0.00000000  0.50000000  0.00000000  1
  Mn  Mn7  1  0.00000000  0.50000000  0.50000000  1
  V  V8  1  0.00000000  0.14472050  0.25000000  1
  V  V9  1  0.00000000  0.85527950  0.75000000  1
  V  V10  1  0.50000000  0.64472050  0.25000000  1
  V  V11  1  0.50000000  0.35527950  0.75000000  1
  O  O12  1  0.76114950  0.97979500  0.75000000  1
  O  O13  1  0.23885050  0.02020500  0.25000000  1
  O  O14  1  0.76114950  0.02020500  0.25000000  1
  O  O15  1  0.23885050  0.97979500  0.75000000  1
  O  O16  1  0.00000000  0.25622650  0.03005050  1
  O  O17  1  0.00000000  0.74377350  0.53005050  1
  O  O18  1  0.00000000  0.74377350  0.96994950  1
  O  O19  1  0.00000000  0.25622650  0.46994950  1
  O  O20  1  0.26114950  0.47979500  0.75000000  1
  O  O21  1  0.73885050  0.52020500  0.25000000  1
  O  O22  1  0.26114950  0.52020500  0.25000000  1
  O  O23  1  0.73885050  0.47979500  0.75000000  1
  O  O24  1  0.50000000  0.75622650  0.03005050  1
  O  O25  1  0.50000000  0.24377350  0.53005050  1
  O  O26  1  0.50000000  0.24377350  0.96994950  1
  O  O27  1  0.50000000  0.75622650  0.46994950  1
