# generated using pymatgen
data_K2FeO4
_symmetry_space_group_name_H-M   'P 1'
_cell_length_a   5.94092600
_cell_length_b   7.79757000
_cell_length_c   10.51136100
_cell_angle_alpha   90.00000000
_cell_angle_beta   90.00000000
_cell_angle_gamma   90.00000000
_symmetry_Int_Tables_number   1
_chemical_formula_structural   K2FeO4
_chemical_formula_sum   'K8 Fe4 O16'
_cell_volume   486.93655257
_cell_formula_units_Z   4
loop_
 _symmetry_equiv_pos_site_id
 _symmetry_equiv_pos_as_xyz
  1  'x, y, z'
loop_
 _atom_site_type_symbol
 _atom_site_label
 _atom_site_symmetry_multiplicity
 _atom_site_fract_x
 _atom_site_fract_y
 _atom_site_fract_z
 _atom_site_occupancy
  K  K0  1  0.25000000  0.01355800  0.30379150  1
  K  K1  1  0.75000000  0.98644200  0.69620850  1
  K  K2  1  0.25000000  0.51355800  0.19620850  1
  K  K3  1  0.75000000  0.48644200  0.80379150  1
  K  K4  1  0.25000000  0.33668400  0.58506750  1
  K  K5  1  0.75000000  0.66331600  0.41493250  1
  K  K6  1  0.75000000  0.16331600  0.08506750  1
  K  K7  1  0.25000000  0.83668400  0.91493250  1
  Fe  Fe8  1  0.25000000  0.77002800  0.57779950  1
  Fe  Fe9  1  0.75000000  0.22997200  0.42220050  1
  Fe  Fe10  1  0.25000000  0.27002800  0.92220050  1
  Fe  Fe11  1  0.75000000  0.72997200  0.07779950  1
  O  O12  1  0.52152800  0.30671400  0.35081050  1
  O  O13  1  0.02152800  0.69328600  0.64918950  1
  O  O14  1  0.97847200  0.80671400  0.14918950  1
  O  O15  1  0.47847200  0.19328600  0.85081050  1
  O  O16  1  0.47847200  0.69328600  0.64918950  1
  O  O17  1  0.97847200  0.30671400  0.35081050  1
  O  O18  1  0.02152800  0.19328600  0.85081050  1
  O  O19  1  0.52152800  0.80671400  0.14918950  1
  O  O20  1  0.25000000  0.70124400  0.42750050  1
  O  O21  1  0.75000000  0.29875600  0.57249950  1
  O  O22  1  0.25000000  0.20124400  0.07249950  1
  O  O23  1  0.75000000  0.79875600  0.92750050  1
  O  O24  1  0.75000000  0.51826300  0.08328550  1
  O  O25  1  0.25000000  0.48173700  0.91671450  1
  O  O26  1  0.25000000  0.98173700  0.58328550  1
  O  O27  1  0.75000000  0.01826300  0.41671450  1
