# generated using pymatgen
data_CsSm2CuSe4
_symmetry_space_group_name_H-M   'P 1'
_cell_length_a   4.23335800
_cell_length_b   14.87298800
_cell_length_c   14.67989500
_cell_angle_alpha   90.00000000
_cell_angle_beta   90.00000000
_cell_angle_gamma   90.00000000
_symmetry_Int_Tables_number   1
_chemical_formula_structural   CsSm2CuSe4
_chemical_formula_sum   'Cs4 Sm8 Cu4 Se16'
_cell_volume   924.28557145
_cell_formula_units_Z   4
loop_
 _symmetry_equiv_pos_site_id
 _symmetry_equiv_pos_as_xyz
  1  'x, y, z'
loop_
 _atom_site_type_symbol
 _atom_site_label
 _atom_site_symmetry_multiplicity
 _atom_site_fract_x
 _atom_site_fract_y
 _atom_site_fract_z
 _atom_site_occupancy
  Cs  Cs0  1  0.00000000  0.10680500  0.25000000  1
  Cs  Cs1  1  0.50000000  0.39319500  0.75000000  1
  Cs  Cs2  1  0.50000000  0.60680500  0.25000000  1
  Cs  Cs3  1  0.00000000  0.89319500  0.75000000  1
  Sm  Sm4  1  0.50000000  0.13409400  0.56199200  1
  Sm  Sm5  1  0.00000000  0.36590600  0.43800800  1
  Sm  Sm6  1  0.50000000  0.13409400  0.93800800  1
  Sm  Sm7  1  0.00000000  0.36590600  0.06199200  1
  Sm  Sm8  1  0.00000000  0.63409400  0.56199200  1
  Sm  Sm9  1  0.50000000  0.86590600  0.43800800  1
  Sm  Sm10  1  0.00000000  0.63409400  0.93800800  1
  Sm  Sm11  1  0.50000000  0.86590600  0.06199200  1
  Cu  Cu12  1  0.50000000  0.33422300  0.25000000  1
  Cu  Cu13  1  0.00000000  0.16577700  0.75000000  1
  Cu  Cu14  1  0.00000000  0.83422300  0.25000000  1
  Cu  Cu15  1  0.50000000  0.66577700  0.75000000  1
  Se  Se16  1  0.50000000  0.07806000  0.75000000  1
  Se  Se17  1  0.00000000  0.42194000  0.25000000  1
  Se  Se18  1  0.00000000  0.25859700  0.60890600  1
  Se  Se19  1  0.50000000  0.24140300  0.39109400  1
  Se  Se20  1  0.00000000  0.00000000  0.00000000  1
  Se  Se21  1  0.00000000  0.00000000  0.50000000  1
  Se  Se22  1  0.00000000  0.25859700  0.89109400  1
  Se  Se23  1  0.50000000  0.24140300  0.10890600  1
  Se  Se24  1  0.00000000  0.57806000  0.75000000  1
  Se  Se25  1  0.50000000  0.92194000  0.25000000  1
  Se  Se26  1  0.50000000  0.75859700  0.60890600  1
  Se  Se27  1  0.00000000  0.74140300  0.39109400  1
  Se  Se28  1  0.50000000  0.50000000  0.00000000  1
  Se  Se29  1  0.50000000  0.50000000  0.50000000  1
  Se  Se30  1  0.50000000  0.75859700  0.89109400  1
  Se  Se31  1  0.00000000  0.74140300  0.10890600  1
