# generated using pymatgen
data_Ca3(CoO3)2
_symmetry_space_group_name_H-M   'P 1'
_cell_length_a   9.13214911
_cell_length_b   9.13214911
_cell_length_c   10.48029947
_cell_angle_alpha   90.00000000
_cell_angle_beta   90.00000000
_cell_angle_gamma   120.00000000
_symmetry_Int_Tables_number   1
_chemical_formula_structural   Ca3(CoO3)2
_chemical_formula_sum   'Ca18 Co12 O36'
_cell_volume   756.92057714
_cell_formula_units_Z   6
loop_
 _symmetry_equiv_pos_site_id
 _symmetry_equiv_pos_as_xyz
  1  'x, y, z'
loop_
 _atom_site_type_symbol
 _atom_site_label
 _atom_site_symmetry_multiplicity
 _atom_site_fract_x
 _atom_site_fract_y
 _atom_site_fract_z
 _atom_site_occupancy
  Ca  Ca0  1  0.03534267  0.70200933  0.58333333  1
  Ca  Ca1  1  0.66666667  0.96465733  0.58333333  1
  Ca  Ca2  1  0.29799067  0.33333333  0.58333333  1
  Ca  Ca3  1  0.96465733  0.29799067  0.41666667  1
  Ca  Ca4  1  0.70200933  0.66666667  0.41666667  1
  Ca  Ca5  1  0.33333333  0.03534267  0.41666667  1
  Ca  Ca6  1  0.70200933  0.03534267  0.91666667  1
  Ca  Ca7  1  0.33333333  0.29799067  0.91666667  1
  Ca  Ca8  1  0.96465733  0.66666667  0.91666667  1
  Ca  Ca9  1  0.63132400  0.63132400  0.75000000  1
  Ca  Ca10  1  0.36867600  0.00000000  0.75000000  1
  Ca  Ca11  1  1.00000000  0.36867600  0.75000000  1
  Ca  Ca12  1  0.36867600  0.36867600  0.25000000  1
  Ca  Ca13  1  0.00000000  0.63132400  0.25000000  1
  Ca  Ca14  1  0.63132400  1.00000000  0.25000000  1
  Ca  Ca15  1  0.29799067  0.96465733  0.08333333  1
  Ca  Ca16  1  0.03534267  0.33333333  0.08333333  1
  Ca  Ca17  1  0.66666667  0.70200933  0.08333333  1
  Co  Co18  1  0.00000000  0.00000000  0.00000000  1
  Co  Co19  1  0.00000000  0.00000000  0.50000000  1
  Co  Co20  1  0.00000000  0.00000000  0.25000000  1
  Co  Co21  1  0.00000000  0.00000000  0.75000000  1
  Co  Co22  1  0.66666667  0.33333333  0.33333333  1
  Co  Co23  1  0.66666667  0.33333333  0.83333333  1
  Co  Co24  1  0.66666667  0.33333333  0.58333333  1
  Co  Co25  1  0.66666667  0.33333333  0.08333333  1
  Co  Co26  1  0.33333333  0.66666667  0.66666667  1
  Co  Co27  1  0.33333333  0.66666667  0.16666667  1
  Co  Co28  1  0.33333333  0.66666667  0.91666667  1
  Co  Co29  1  0.33333333  0.66666667  0.41666667  1
  O  O30  1  0.17437400  0.02094800  0.61542200  1
  O  O31  1  0.97905200  0.15342600  0.61542200  1
  O  O32  1  0.84657400  0.82562600  0.61542200  1
  O  O33  1  0.48675933  0.64571867  0.55124467  1
  O  O34  1  0.35428133  0.84104067  0.55124467  1
  O  O35  1  0.15895933  0.51324067  0.55124467  1
  O  O36  1  0.82562600  0.97905200  0.38457800  1
  O  O37  1  0.02094800  0.84657400  0.38457800  1
  O  O38  1  0.15342600  0.17437400  0.38457800  1
  O  O39  1  0.51324067  0.35428133  0.44875533  1
  O  O40  1  0.84104067  0.48675933  0.44875533  1
  O  O41  1  0.64571867  0.15895933  0.44875533  1
  O  O42  1  0.84104067  0.35428133  0.94875533  1
  O  O43  1  0.64571867  0.48675933  0.94875533  1
  O  O44  1  0.51324067  0.15895933  0.94875533  1
  O  O45  1  0.15342600  0.97905200  0.88457800  1
  O  O46  1  0.02094800  0.17437400  0.88457800  1
  O  O47  1  0.82562600  0.84657400  0.88457800  1
  O  O48  1  0.49229267  0.31238533  0.71791133  1
  O  O49  1  0.68761467  0.17990733  0.71791133  1
  O  O50  1  0.82009267  0.50770733  0.71791133  1
  O  O51  1  0.17990733  0.68761467  0.78208867  1
  O  O52  1  0.50770733  0.82009267  0.78208867  1
  O  O53  1  0.31238533  0.49229267  0.78208867  1
  O  O54  1  0.50770733  0.68761467  0.28208867  1
  O  O55  1  0.31238533  0.82009267  0.28208867  1
  O  O56  1  0.17990733  0.49229267  0.28208867  1
  O  O57  1  0.82009267  0.31238533  0.21791133  1
  O  O58  1  0.68761467  0.50770733  0.21791133  1
  O  O59  1  0.49229267  0.17990733  0.21791133  1
  O  O60  1  0.15895933  0.64571867  0.05124467  1
  O  O61  1  0.35428133  0.51324067  0.05124467  1
  O  O62  1  0.48675933  0.84104067  0.05124467  1
  O  O63  1  0.84657400  0.02094800  0.11542200  1
  O  O64  1  0.17437400  0.15342600  0.11542200  1
  O  O65  1  0.97905200  0.82562600  0.11542200  1
