# generated using pymatgen
data_Na6Sn2Se7
_symmetry_space_group_name_H-M   'P 1'
_cell_length_a   9.82881800
_cell_length_b   11.34385600
_cell_length_c   16.23140687
_cell_angle_alpha   90.00000000
_cell_angle_beta   104.50303457
_cell_angle_gamma   90.00000000
_symmetry_Int_Tables_number   1
_chemical_formula_structural   Na6Sn2Se7
_chemical_formula_sum   'Na24 Sn8 Se28'
_cell_volume   1752.07948550
_cell_formula_units_Z   4
loop_
 _symmetry_equiv_pos_site_id
 _symmetry_equiv_pos_as_xyz
  1  'x, y, z'
loop_
 _atom_site_type_symbol
 _atom_site_label
 _atom_site_symmetry_multiplicity
 _atom_site_fract_x
 _atom_site_fract_y
 _atom_site_fract_z
 _atom_site_occupancy
  Na  Na0  1  0.50000000  0.92727200  0.25000000  1
  Na  Na1  1  0.39670100  0.64545400  0.92933400  1
  Na  Na2  1  0.60329900  0.64545400  0.57066600  1
  Na  Na3  1  0.72923950  0.22887650  0.36119800  1
  Na  Na4  1  0.27076050  0.22887650  0.13880200  1
  Na  Na5  1  0.27076050  0.77112350  0.63880200  1
  Na  Na6  1  0.72923950  0.77112350  0.86119800  1
  Na  Na7  1  0.50000000  0.00000000  0.50000000  1
  Na  Na8  1  0.50000000  0.00000000  0.00000000  1
  Na  Na9  1  0.60329900  0.35454600  0.07066600  1
  Na  Na10  1  0.50000000  0.07272800  0.75000000  1
  Na  Na11  1  0.39670100  0.35454600  0.42933400  1
  Na  Na12  1  0.00000000  0.42727200  0.25000000  1
  Na  Na13  1  0.89670100  0.14545400  0.92933400  1
  Na  Na14  1  0.10329900  0.14545400  0.57066600  1
  Na  Na15  1  0.22923950  0.72887650  0.36119800  1
  Na  Na16  1  0.77076050  0.72887650  0.13880200  1
  Na  Na17  1  0.77076050  0.27112350  0.63880200  1
  Na  Na18  1  0.22923950  0.27112350  0.86119800  1
  Na  Na19  1  0.00000000  0.50000000  0.50000000  1
  Na  Na20  1  0.00000000  0.50000000  0.00000000  1
  Na  Na21  1  0.10329900  0.85454600  0.07066600  1
  Na  Na22  1  0.00000000  0.57272800  0.75000000  1
  Na  Na23  1  0.89670100  0.85454600  0.42933400  1
  Sn  Sn24  1  0.84000050  0.08721150  0.13734400  1
  Sn  Sn25  1  0.15999950  0.08721150  0.36265600  1
  Sn  Sn26  1  0.84000050  0.91278850  0.63734400  1
  Sn  Sn27  1  0.15999950  0.91278850  0.86265600  1
  Sn  Sn28  1  0.34000050  0.58721150  0.13734400  1
  Sn  Sn29  1  0.65999950  0.58721150  0.36265600  1
  Sn  Sn30  1  0.34000050  0.41278850  0.63734400  1
  Sn  Sn31  1  0.65999950  0.41278850  0.86265600  1
  Se  Se32  1  0.45819250  0.77248750  0.10279500  1
  Se  Se33  1  0.50000000  0.45139400  0.25000000  1
  Se  Se34  1  0.54180750  0.77248750  0.39720500  1
  Se  Se35  1  0.61577400  0.86384000  0.68088800  1
  Se  Se36  1  0.45819250  0.22751250  0.60279500  1
  Se  Se37  1  0.79732650  0.93342050  0.01827100  1
  Se  Se38  1  0.20267350  0.93342050  0.48172900  1
  Se  Se39  1  0.20267350  0.06657950  0.98172900  1
  Se  Se40  1  0.79732650  0.06657950  0.51827100  1
  Se  Se41  1  0.61577400  0.13616000  0.18088800  1
  Se  Se42  1  0.38422600  0.13616000  0.31911200  1
  Se  Se43  1  0.38422600  0.86384000  0.81911200  1
  Se  Se44  1  0.50000000  0.54860600  0.75000000  1
  Se  Se45  1  0.54180750  0.22751250  0.89720500  1
  Se  Se46  1  0.95819250  0.27248750  0.10279500  1
  Se  Se47  1  0.00000000  0.95139400  0.25000000  1
  Se  Se48  1  0.04180750  0.27248750  0.39720500  1
  Se  Se49  1  0.11577400  0.36384000  0.68088800  1
  Se  Se50  1  0.95819250  0.72751250  0.60279500  1
  Se  Se51  1  0.29732650  0.43342050  0.01827100  1
  Se  Se52  1  0.70267350  0.43342050  0.48172900  1
  Se  Se53  1  0.70267350  0.56657950  0.98172900  1
  Se  Se54  1  0.29732650  0.56657950  0.51827100  1
  Se  Se55  1  0.11577400  0.63616000  0.18088800  1
  Se  Se56  1  0.88422600  0.63616000  0.31911200  1
  Se  Se57  1  0.88422600  0.36384000  0.81911200  1
  Se  Se58  1  0.00000000  0.04860600  0.75000000  1
  Se  Se59  1  0.04180750  0.72751250  0.89720500  1
