# generated using pymatgen
data_NbF5
_symmetry_space_group_name_H-M   'P 1'
_cell_length_a   9.96637400
_cell_length_b   14.91987600
_cell_length_c   5.35852687
_cell_angle_alpha   90.00000000
_cell_angle_beta   95.04932790
_cell_angle_gamma   90.00000000
_symmetry_Int_Tables_number   1
_chemical_formula_structural   NbF5
_chemical_formula_sum   'Nb8 F40'
_cell_volume   793.70507815
_cell_formula_units_Z   8
loop_
 _symmetry_equiv_pos_site_id
 _symmetry_equiv_pos_as_xyz
  1  'x, y, z'
loop_
 _atom_site_type_symbol
 _atom_site_label
 _atom_site_symmetry_multiplicity
 _atom_site_fract_x
 _atom_site_fract_y
 _atom_site_fract_z
 _atom_site_occupancy
  Nb  Nb0  1  0.25725000  0.00000000  0.74991700  1
  Nb  Nb1  1  0.74275000  0.00000000  0.25008300  1
  Nb  Nb2  1  0.50000000  0.30028100  0.00000000  1
  Nb  Nb3  1  0.50000000  0.69971900  0.00000000  1
  Nb  Nb4  1  0.75725000  0.50000000  0.74991700  1
  Nb  Nb5  1  0.24275000  0.50000000  0.25008300  1
  Nb  Nb6  1  0.00000000  0.80028100  0.00000000  1
  Nb  Nb7  1  0.00000000  0.19971900  0.00000000  1
  F  F8  1  0.38258250  0.21698350  0.12387000  1
  F  F9  1  0.61741750  0.21698350  0.87613000  1
  F  F10  1  0.61741750  0.78301650  0.87613000  1
  F  F11  1  0.38258250  0.78301650  0.12387000  1
  F  F12  1  0.86580900  0.00000000  0.53776200  1
  F  F13  1  0.13419100  0.00000000  0.46223800  1
  F  F14  1  0.67139500  0.00000000  0.90913400  1
  F  F15  1  0.32860500  0.00000000  0.09086600  1
  F  F16  1  0.63510950  0.09394350  0.34754900  1
  F  F17  1  0.36489050  0.09394350  0.65245100  1
  F  F18  1  0.36489050  0.90605650  0.65245100  1
  F  F19  1  0.63510950  0.90605650  0.34754900  1
  F  F20  1  0.87860900  0.09493700  0.12060500  1
  F  F21  1  0.12139100  0.09493700  0.87939500  1
  F  F22  1  0.12139100  0.90506300  0.87939500  1
  F  F23  1  0.87860900  0.90506300  0.12060500  1
  F  F24  1  0.39742850  0.68046750  0.69011700  1
  F  F25  1  0.60257150  0.68046750  0.30988300  1
  F  F26  1  0.60257150  0.31953250  0.30988300  1
  F  F27  1  0.39742850  0.31953250  0.69011700  1
  F  F28  1  0.88258250  0.71698350  0.12387000  1
  F  F29  1  0.11741750  0.71698350  0.87613000  1
  F  F30  1  0.11741750  0.28301650  0.87613000  1
  F  F31  1  0.88258250  0.28301650  0.12387000  1
  F  F32  1  0.36580900  0.50000000  0.53776200  1
  F  F33  1  0.63419100  0.50000000  0.46223800  1
  F  F34  1  0.17139500  0.50000000  0.90913400  1
  F  F35  1  0.82860500  0.50000000  0.09086600  1
  F  F36  1  0.13510950  0.59394350  0.34754900  1
  F  F37  1  0.86489050  0.59394350  0.65245100  1
  F  F38  1  0.86489050  0.40605650  0.65245100  1
  F  F39  1  0.13510950  0.40605650  0.34754900  1
  F  F40  1  0.37860900  0.59493700  0.12060500  1
  F  F41  1  0.62139100  0.59493700  0.87939500  1
  F  F42  1  0.62139100  0.40506300  0.87939500  1
  F  F43  1  0.37860900  0.40506300  0.12060500  1
  F  F44  1  0.89742850  0.18046750  0.69011700  1
  F  F45  1  0.10257150  0.18046750  0.30988300  1
  F  F46  1  0.10257150  0.81953250  0.30988300  1
  F  F47  1  0.89742850  0.81953250  0.69011700  1
