# generated using pymatgen
data_NaVO3
_symmetry_space_group_name_H-M   'P 1'
_cell_length_a   10.87993200
_cell_length_b   9.79683200
_cell_length_c   6.01635151
_cell_angle_alpha   90.00000000
_cell_angle_beta   110.29762569
_cell_angle_gamma   90.00000000
_symmetry_Int_Tables_number   1
_chemical_formula_structural   NaVO3
_chemical_formula_sum   'Na8 V8 O24'
_cell_volume   601.45496302
_cell_formula_units_Z   8
loop_
 _symmetry_equiv_pos_site_id
 _symmetry_equiv_pos_as_xyz
  1  'x, y, z'
loop_
 _atom_site_type_symbol
 _atom_site_label
 _atom_site_symmetry_multiplicity
 _atom_site_fract_x
 _atom_site_fract_y
 _atom_site_fract_z
 _atom_site_occupancy
  Na  Na0  1  0.00000000  0.90893000  0.75000000  1
  Na  Na1  1  0.00000000  0.09107000  0.25000000  1
  Na  Na2  1  0.00000000  0.27650800  0.75000000  1
  Na  Na3  1  0.00000000  0.72349200  0.25000000  1
  Na  Na4  1  0.50000000  0.40893000  0.75000000  1
  Na  Na5  1  0.50000000  0.59107000  0.25000000  1
  Na  Na6  1  0.50000000  0.77650800  0.75000000  1
  Na  Na7  1  0.50000000  0.22349200  0.25000000  1
  V  V8  1  0.20724350  0.58780950  0.72635700  1
  V  V9  1  0.20724350  0.41219050  0.22635700  1
  V  V10  1  0.79275650  0.58780950  0.77364300  1
  V  V11  1  0.79275650  0.41219050  0.27364300  1
  V  V12  1  0.70724350  0.08780950  0.72635700  1
  V  V13  1  0.70724350  0.91219050  0.22635700  1
  V  V14  1  0.29275650  0.08780950  0.77364300  1
  V  V15  1  0.29275650  0.91219050  0.27364300  1
  O  O16  1  0.85030350  0.49686650  0.56220700  1
  O  O17  1  0.85030350  0.50313350  0.06220700  1
  O  O18  1  0.85981300  0.74322700  0.82489700  1
  O  O19  1  0.85981300  0.25677300  0.32489700  1
  O  O20  1  0.62779350  0.59886350  0.66850100  1
  O  O21  1  0.62779350  0.40113650  0.16850100  1
  O  O22  1  0.37220650  0.59886350  0.83149900  1
  O  O23  1  0.37220650  0.40113650  0.33149900  1
  O  O24  1  0.14018700  0.74322700  0.67510300  1
  O  O25  1  0.14018700  0.25677300  0.17510300  1
  O  O26  1  0.14969650  0.49686650  0.93779300  1
  O  O27  1  0.14969650  0.50313350  0.43779300  1
  O  O28  1  0.35030350  0.99686650  0.56220700  1
  O  O29  1  0.35030350  0.00313350  0.06220700  1
  O  O30  1  0.35981300  0.24322700  0.82489700  1
  O  O31  1  0.35981300  0.75677300  0.32489700  1
  O  O32  1  0.12779350  0.09886350  0.66850100  1
  O  O33  1  0.12779350  0.90113650  0.16850100  1
  O  O34  1  0.87220650  0.09886350  0.83149900  1
  O  O35  1  0.87220650  0.90113650  0.33149900  1
  O  O36  1  0.64018700  0.24322700  0.67510300  1
  O  O37  1  0.64018700  0.75677300  0.17510300  1
  O  O38  1  0.64969650  0.99686650  0.93779300  1
  O  O39  1  0.64969650  0.00313350  0.43779300  1
