# generated using pymatgen
data_Rb2W2O7
_symmetry_space_group_name_H-M   'P 1'
_cell_length_a   3.90410277
_cell_length_b   14.66752615
_cell_length_c   6.26950652
_cell_angle_alpha   90.00000000
_cell_angle_beta   90.07621498
_cell_angle_gamma   90.00000000
_symmetry_Int_Tables_number   1
_chemical_formula_structural   Rb2W2O7
_chemical_formula_sum   'Rb4 W4 O14'
_cell_volume   359.01375325
_cell_formula_units_Z   2
loop_
 _symmetry_equiv_pos_site_id
 _symmetry_equiv_pos_as_xyz
  1  'x, y, z'
loop_
 _atom_site_type_symbol
 _atom_site_label
 _atom_site_symmetry_multiplicity
 _atom_site_fract_x
 _atom_site_fract_y
 _atom_site_fract_z
 _atom_site_occupancy
  Rb  Rb0  1  0.49535882  0.17318800  0.17029833  1
  Rb  Rb1  1  0.50464118  0.67318800  0.32970167  1
  Rb  Rb2  1  0.50464118  0.82681200  0.82970167  1
  Rb  Rb3  1  0.49535882  0.32681200  0.67029833  1
  W  W4  1  0.00961152  0.55945080  0.78358157  1
  W  W5  1  0.99038848  0.05945080  0.71641843  1
  W  W6  1  0.99038848  0.44054920  0.21641843  1
  W  W7  1  0.00961152  0.94054920  0.28358157  1
  O  O8  1  0.00196126  0.82274664  0.19831917  1
  O  O9  1  0.99803874  0.32274664  0.30168083  1
  O  O10  1  0.99803874  0.17725336  0.80168083  1
  O  O11  1  0.00196126  0.67725336  0.69831917  1
  O  O12  1  0.99859243  0.07796277  0.41456742  1
  O  O13  1  0.00140757  0.57796277  0.08543258  1
  O  O14  1  0.00140757  0.92203723  0.58543258  1
  O  O15  1  0.99859243  0.42203723  0.91456742  1
  O  O16  1  0.00000000  0.50000000  0.50000000  1
  O  O17  1  0.00000000  0.00000000  0.00000000  1
  O  O18  1  0.50297928  0.54930814  0.77598755  1
  O  O19  1  0.50297928  0.95069186  0.27598755  1
  O  O20  1  0.49702072  0.45069186  0.22401245  1
  O  O21  1  0.49702072  0.04930814  0.72401245  1
