# generated using pymatgen
data_Cu2HgGeSe4
_symmetry_space_group_name_H-M   'P 1'
_cell_length_a   5.86114800
_cell_length_b   5.86114800
_cell_length_c   11.20613600
_cell_angle_alpha   90.00000000
_cell_angle_beta   90.00000000
_cell_angle_gamma   90.00000000
_symmetry_Int_Tables_number   1
_chemical_formula_structural   Cu2HgGeSe4
_chemical_formula_sum   'Cu4 Hg2 Ge2 Se8'
_cell_volume   384.96501618
_cell_formula_units_Z   2
loop_
 _symmetry_equiv_pos_site_id
 _symmetry_equiv_pos_as_xyz
  1  'x, y, z'
loop_
 _atom_site_type_symbol
 _atom_site_label
 _atom_site_symmetry_multiplicity
 _atom_site_fract_x
 _atom_site_fract_y
 _atom_site_fract_z
 _atom_site_occupancy
  Cu  Cu0  1  0.00000000  0.50000000  0.25000000  1
  Cu  Cu1  1  0.50000000  0.00000000  0.25000000  1
  Cu  Cu2  1  0.50000000  0.00000000  0.75000000  1
  Cu  Cu3  1  0.00000000  0.50000000  0.75000000  1
  Hg  Hg4  1  0.00000000  0.00000000  0.00000000  1
  Hg  Hg5  1  0.50000000  0.50000000  0.50000000  1
  Ge  Ge6  1  0.50000000  0.50000000  0.00000000  1
  Ge  Ge7  1  0.00000000  0.00000000  0.50000000  1
  Se  Se8  1  0.27028600  0.27028600  0.13748800  1
  Se  Se9  1  0.22971400  0.77028600  0.36251200  1
  Se  Se10  1  0.77028600  0.22971400  0.36251200  1
  Se  Se11  1  0.72971400  0.72971400  0.13748800  1
  Se  Se12  1  0.77028600  0.77028600  0.63748800  1
  Se  Se13  1  0.72971400  0.27028600  0.86251200  1
  Se  Se14  1  0.27028600  0.72971400  0.86251200  1
  Se  Se15  1  0.22971400  0.22971400  0.63748800  1
