# generated using pymatgen
data_AgSnF6
_symmetry_space_group_name_H-M   'P 1'
_cell_length_a   5.32967744
_cell_length_b   5.46726693
_cell_length_c   5.74705739
_cell_angle_alpha   115.90306070
_cell_angle_beta   89.46497571
_cell_angle_gamma   118.54046721
_symmetry_Int_Tables_number   1
_chemical_formula_structural   AgSnF6
_chemical_formula_sum   'Ag1 Sn1 F6'
_cell_volume   128.05107570
_cell_formula_units_Z   1
loop_
 _symmetry_equiv_pos_site_id
 _symmetry_equiv_pos_as_xyz
  1  'x, y, z'
loop_
 _atom_site_type_symbol
 _atom_site_label
 _atom_site_symmetry_multiplicity
 _atom_site_fract_x
 _atom_site_fract_y
 _atom_site_fract_z
 _atom_site_occupancy
  Ag  Ag0  1  0.00000000  0.00000000  0.00000000  1
  Sn  Sn1  1  0.50000000  0.50000000  0.50000000  1
  F  F2  1  0.42231982  0.28627515  0.28018597  1
  F  F3  1  0.57768018  0.71372485  0.71981403  1
  F  F4  1  0.25488426  0.11635123  0.73961796  1
  F  F5  1  0.74511574  0.88364877  0.26038204  1
  F  F6  1  0.87050973  0.38991206  0.73847536  1
  F  F7  1  0.12949027  0.61008794  0.26152464  1
