# generated using pymatgen
data_CsSi2BO6
_symmetry_space_group_name_H-M   'P 1'
_cell_length_a   13.18675200
_cell_length_b   13.18675200
_cell_length_c   13.08131200
_cell_angle_alpha   90.00000000
_cell_angle_beta   90.00000000
_cell_angle_gamma   90.00000000
_symmetry_Int_Tables_number   1
_chemical_formula_structural   CsSi2BO6
_chemical_formula_sum   'Cs16 Si32 B16 O96'
_cell_volume   2274.71494653
_cell_formula_units_Z   16
loop_
 _symmetry_equiv_pos_site_id
 _symmetry_equiv_pos_as_xyz
  1  'x, y, z'
loop_
 _atom_site_type_symbol
 _atom_site_label
 _atom_site_symmetry_multiplicity
 _atom_site_fract_x
 _atom_site_fract_y
 _atom_site_fract_z
 _atom_site_occupancy
  Cs  Cs0  1  0.62347250  0.12347250  0.50000000  1
  Cs  Cs1  1  0.37652750  0.12347250  0.00000000  1
  Cs  Cs2  1  0.62347250  0.62347250  0.25000000  1
  Cs  Cs3  1  0.87652750  0.12347250  0.25000000  1
  Cs  Cs4  1  0.87652750  0.87652750  0.75000000  1
  Cs  Cs5  1  0.62347250  0.37652750  0.75000000  1
  Cs  Cs6  1  0.87652750  0.37652750  0.00000000  1
  Cs  Cs7  1  0.62347250  0.87652750  0.00000000  1
  Cs  Cs8  1  0.12347250  0.62347250  0.00000000  1
  Cs  Cs9  1  0.87652750  0.62347250  0.50000000  1
  Cs  Cs10  1  0.12347250  0.12347250  0.75000000  1
  Cs  Cs11  1  0.37652750  0.62347250  0.75000000  1
  Cs  Cs12  1  0.37652750  0.37652750  0.25000000  1
  Cs  Cs13  1  0.12347250  0.87652750  0.25000000  1
  Cs  Cs14  1  0.37652750  0.87652750  0.50000000  1
  Cs  Cs15  1  0.12347250  0.37652750  0.50000000  1
  Si  Si16  1  0.36616700  0.09124100  0.28894400  1
  Si  Si17  1  0.63383300  0.09124100  0.78894400  1
  Si  Si18  1  0.09124100  0.86616700  0.53894400  1
  Si  Si19  1  0.40875900  0.36616700  0.53894400  1
  Si  Si20  1  0.63383300  0.40875900  0.46105600  1
  Si  Si21  1  0.86616700  0.90875900  0.46105600  1
  Si  Si22  1  0.40875900  0.13383300  0.71105600  1
  Si  Si23  1  0.59124100  0.13383300  0.21105600  1
  Si  Si24  1  0.86616700  0.40875900  0.28894400  1
  Si  Si25  1  0.13383300  0.40875900  0.78894400  1
  Si  Si26  1  0.59124100  0.63383300  0.53894400  1
  Si  Si27  1  0.90875900  0.13383300  0.53894400  1
  Si  Si28  1  0.13383300  0.09124100  0.46105600  1
  Si  Si29  1  0.36616700  0.59124100  0.46105600  1
  Si  Si30  1  0.90875900  0.36616700  0.71105600  1
  Si  Si31  1  0.09124100  0.36616700  0.21105600  1
  Si  Si32  1  0.86616700  0.59124100  0.78894400  1
  Si  Si33  1  0.13383300  0.59124100  0.28894400  1
  Si  Si34  1  0.59124100  0.36616700  0.03894400  1
  Si  Si35  1  0.90875900  0.86616700  0.03894400  1
  Si  Si36  1  0.13383300  0.90875900  0.96105600  1
  Si  Si37  1  0.36616700  0.40875900  0.96105600  1
  Si  Si38  1  0.90875900  0.63383300  0.21105600  1
  Si  Si39  1  0.09124100  0.63383300  0.71105600  1
  Si  Si40  1  0.36616700  0.90875900  0.78894400  1
  Si  Si41  1  0.63383300  0.90875900  0.28894400  1
  Si  Si42  1  0.09124100  0.13383300  0.03894400  1
  Si  Si43  1  0.40875900  0.63383300  0.03894400  1
  Si  Si44  1  0.63383300  0.59124100  0.96105600  1
  Si  Si45  1  0.86616700  0.09124100  0.96105600  1
  Si  Si46  1  0.40875900  0.86616700  0.21105600  1
  Si  Si47  1  0.59124100  0.86616700  0.71105600  1
  B  B48  1  0.83561150  0.33561150  0.50000000  1
  B  B49  1  0.66438850  0.83561150  0.50000000  1
  B  B50  1  0.33561150  0.33561150  0.75000000  1
  B  B51  1  0.66438850  0.33561150  0.25000000  1
  B  B52  1  0.16438850  0.16438850  0.25000000  1
  B  B53  1  0.83561150  0.16438850  0.75000000  1
  B  B54  1  0.66438850  0.16438850  0.00000000  1
  B  B55  1  0.33561150  0.16438850  0.50000000  1
  B  B56  1  0.33561150  0.83561150  0.00000000  1
  B  B57  1  0.16438850  0.33561150  0.00000000  1
  B  B58  1  0.83561150  0.83561150  0.25000000  1
  B  B59  1  0.16438850  0.83561150  0.75000000  1
  B  B60  1  0.66438850  0.66438850  0.75000000  1
  B  B61  1  0.33561150  0.66438850  0.25000000  1
  B  B62  1  0.16438850  0.66438850  0.50000000  1
  B  B63  1  0.83561150  0.66438850  0.00000000  1
  O  O64  1  0.39642500  0.12843100  0.58824200  1
  O  O65  1  0.60357500  0.12843100  0.08824200  1
  O  O66  1  0.62843100  0.39642500  0.33824200  1
  O  O67  1  0.37156900  0.39642500  0.83824200  1
  O  O68  1  0.60357500  0.37156900  0.16175800  1
  O  O69  1  0.39642500  0.37156900  0.66175800  1
  O  O70  1  0.87156900  0.60357500  0.91175800  1
  O  O71  1  0.62843100  0.10357500  0.91175800  1
  O  O72  1  0.89642500  0.37156900  0.58824200  1
  O  O73  1  0.10357500  0.37156900  0.08824200  1
  O  O74  1  0.12843100  0.10357500  0.33824200  1
  O  O75  1  0.87156900  0.10357500  0.83824200  1
  O  O76  1  0.10357500  0.12843100  0.16175800  1
  O  O77  1  0.89642500  0.12843100  0.66175800  1
  O  O78  1  0.87156900  0.39642500  0.41175800  1
  O  O79  1  0.62843100  0.89642500  0.41175800  1
  O  O80  1  0.96850600  0.63786200  0.73399900  1
  O  O81  1  0.53149400  0.13786200  0.73399900  1
  O  O82  1  0.13786200  0.96850600  0.48399900  1
  O  O83  1  0.36213800  0.46850600  0.48399900  1
  O  O84  1  0.53149400  0.36213800  0.51600100  1
  O  O85  1  0.96850600  0.86213800  0.51600100  1
  O  O86  1  0.86213800  0.53149400  0.26600100  1
  O  O87  1  0.63786200  0.03149400  0.26600100  1
  O  O88  1  0.96850600  0.36213800  0.23399900  1
  O  O89  1  0.53149400  0.86213800  0.23399900  1
  O  O90  1  0.63786200  0.53149400  0.48399900  1
  O  O91  1  0.86213800  0.03149400  0.48399900  1
  O  O92  1  0.03149400  0.13786200  0.51600100  1
  O  O93  1  0.46850600  0.63786200  0.51600100  1
  O  O94  1  0.86213800  0.46850600  0.76600100  1
  O  O95  1  0.63786200  0.96850600  0.76600100  1
  O  O96  1  0.35169500  0.27377800  0.48118300  1
  O  O97  1  0.14830500  0.77377800  0.48118300  1
  O  O98  1  0.77377800  0.35169500  0.23118300  1
  O  O99  1  0.22622200  0.35169500  0.73118300  1
  O  O100  1  0.64830500  0.22622200  0.26881700  1
  O  O101  1  0.35169500  0.22622200  0.76881700  1
  O  O102  1  0.22622200  0.14830500  0.51881700  1
  O  O103  1  0.27377800  0.64830500  0.51881700  1
  O  O104  1  0.85169500  0.22622200  0.48118300  1
  O  O105  1  0.64830500  0.72622200  0.48118300  1
  O  O106  1  0.27377800  0.14830500  0.23118300  1
  O  O107  1  0.72622200  0.14830500  0.73118300  1
  O  O108  1  0.14830500  0.27377800  0.26881700  1
  O  O109  1  0.85169500  0.27377800  0.76881700  1
  O  O110  1  0.72622200  0.35169500  0.51881700  1
  O  O111  1  0.77377800  0.85169500  0.51881700  1
  O  O112  1  0.89642500  0.62843100  0.08824200  1
  O  O113  1  0.10357500  0.62843100  0.58824200  1
  O  O114  1  0.12843100  0.89642500  0.83824200  1
  O  O115  1  0.87156900  0.89642500  0.33824200  1
  O  O116  1  0.10357500  0.87156900  0.66175800  1
  O  O117  1  0.89642500  0.87156900  0.16175800  1
  O  O118  1  0.37156900  0.10357500  0.41175800  1
  O  O119  1  0.12843100  0.60357500  0.41175800  1
  O  O120  1  0.39642500  0.87156900  0.08824200  1
  O  O121  1  0.60357500  0.87156900  0.58824200  1
  O  O122  1  0.62843100  0.60357500  0.83824200  1
  O  O123  1  0.37156900  0.60357500  0.33824200  1
  O  O124  1  0.60357500  0.62843100  0.66175800  1
  O  O125  1  0.39642500  0.62843100  0.16175800  1
  O  O126  1  0.37156900  0.89642500  0.91175800  1
  O  O127  1  0.12843100  0.39642500  0.91175800  1
  O  O128  1  0.46850600  0.13786200  0.23399900  1
  O  O129  1  0.03149400  0.63786200  0.23399900  1
  O  O130  1  0.63786200  0.46850600  0.98399900  1
  O  O131  1  0.86213800  0.96850600  0.98399900  1
  O  O132  1  0.03149400  0.86213800  0.01600100  1
  O  O133  1  0.46850600  0.36213800  0.01600100  1
  O  O134  1  0.36213800  0.03149400  0.76600100  1
  O  O135  1  0.13786200  0.53149400  0.76600100  1
  O  O136  1  0.46850600  0.86213800  0.73399900  1
  O  O137  1  0.03149400  0.36213800  0.73399900  1
  O  O138  1  0.13786200  0.03149400  0.98399900  1
  O  O139  1  0.36213800  0.53149400  0.98399900  1
  O  O140  1  0.53149400  0.63786200  0.01600100  1
  O  O141  1  0.96850600  0.13786200  0.01600100  1
  O  O142  1  0.36213800  0.96850600  0.26600100  1
  O  O143  1  0.13786200  0.46850600  0.26600100  1
  O  O144  1  0.85169500  0.77377800  0.98118300  1
  O  O145  1  0.64830500  0.27377800  0.98118300  1
  O  O146  1  0.27377800  0.85169500  0.73118300  1
  O  O147  1  0.72622200  0.85169500  0.23118300  1
  O  O148  1  0.14830500  0.72622200  0.76881700  1
  O  O149  1  0.85169500  0.72622200  0.26881700  1
  O  O150  1  0.72622200  0.64830500  0.01881700  1
  O  O151  1  0.77377800  0.14830500  0.01881700  1
  O  O152  1  0.35169500  0.72622200  0.98118300  1
  O  O153  1  0.14830500  0.22622200  0.98118300  1
  O  O154  1  0.77377800  0.64830500  0.73118300  1
  O  O155  1  0.22622200  0.64830500  0.23118300  1
  O  O156  1  0.64830500  0.77377800  0.76881700  1
  O  O157  1  0.35169500  0.77377800  0.26881700  1
  O  O158  1  0.22622200  0.85169500  0.01881700  1
  O  O159  1  0.27377800  0.35169500  0.01881700  1
