# generated using pymatgen
data_CoSO4
_symmetry_space_group_name_H-M   'P 1'
_cell_length_a   4.81198501
_cell_length_b   6.81044730
_cell_length_c   8.67155712
_cell_angle_alpha   90.00000000
_cell_angle_beta   90.00000000
_cell_angle_gamma   90.00000000
_symmetry_Int_Tables_number   1
_chemical_formula_structural   CoSO4
_chemical_formula_sum   'Co4 S4 O16'
_cell_volume   284.18227798
_cell_formula_units_Z   4
loop_
 _symmetry_equiv_pos_site_id
 _symmetry_equiv_pos_as_xyz
  1  'x, y, z'
loop_
 _atom_site_type_symbol
 _atom_site_label
 _atom_site_symmetry_multiplicity
 _atom_site_fract_x
 _atom_site_fract_y
 _atom_site_fract_z
 _atom_site_occupancy
  Co  Co0  1  0.00000000  0.50000000  0.00000000  1
  Co  Co1  1  0.50000000  0.50000000  0.50000000  1
  Co  Co2  1  0.50000000  0.00000000  0.50000000  1
  Co  Co3  1  0.00000000  0.00000000  0.00000000  1
  S  S4  1  0.02710600  0.75000000  0.32223100  1
  S  S5  1  0.47289400  0.75000000  0.82223100  1
  S  S6  1  0.97289400  0.25000000  0.67776900  1
  S  S7  1  0.52710600  0.25000000  0.17776900  1
  O  O8  1  0.23270900  0.25000000  0.12197400  1
  O  O9  1  0.76729100  0.75000000  0.87802600  1
  O  O10  1  0.73270900  0.75000000  0.37802600  1
  O  O11  1  0.26729100  0.25000000  0.62197400  1
  O  O12  1  0.03989500  0.75000000  0.14739100  1
  O  O13  1  0.46010500  0.75000000  0.64739100  1
  O  O14  1  0.53989500  0.25000000  0.35260900  1
  O  O15  1  0.96010500  0.25000000  0.85260900  1
  O  O16  1  0.16534600  0.56826200  0.37454000  1
  O  O17  1  0.16534600  0.93173800  0.37454000  1
  O  O18  1  0.66534600  0.06826200  0.12546000  1
  O  O19  1  0.83465400  0.06826200  0.62546000  1
  O  O20  1  0.33465400  0.56826200  0.87454000  1
  O  O21  1  0.66534600  0.43173800  0.12546000  1
  O  O22  1  0.83465400  0.43173800  0.62546000  1
  O  O23  1  0.33465400  0.93173800  0.87454000  1
