# generated using pymatgen
data_SiO2
_symmetry_space_group_name_H-M   'P 1'
_cell_length_a   18.89124400
_cell_length_b   13.64840200
_cell_length_c   7.74833981
_cell_angle_alpha   90.00000000
_cell_angle_beta   101.81001785
_cell_angle_gamma   90.00000000
_symmetry_Int_Tables_number   1
_chemical_formula_structural   SiO2
_chemical_formula_sum   'Si32 O64'
_cell_volume   1955.50536480
_cell_formula_units_Z   32
loop_
 _symmetry_equiv_pos_site_id
 _symmetry_equiv_pos_as_xyz
  1  'x, y, z'
loop_
 _atom_site_type_symbol
 _atom_site_label
 _atom_site_symmetry_multiplicity
 _atom_site_fract_x
 _atom_site_fract_y
 _atom_site_fract_z
 _atom_site_occupancy
  Si  Si0  1  0.33895500  0.70353900  0.22769100  1
  Si  Si1  1  0.66104500  0.70353900  0.77230900  1
  Si  Si2  1  0.66104500  0.29646100  0.77230900  1
  Si  Si3  1  0.33895500  0.29646100  0.22769100  1
  Si  Si4  1  0.24766950  0.88599750  0.12546200  1
  Si  Si5  1  0.75233050  0.88599750  0.87453800  1
  Si  Si6  1  0.75233050  0.11400250  0.87453800  1
  Si  Si7  1  0.24766950  0.11400250  0.12546200  1
  Si  Si8  1  0.51218150  0.61371650  0.80097400  1
  Si  Si9  1  0.48781850  0.61371650  0.19902600  1
  Si  Si10  1  0.48781850  0.38628350  0.19902600  1
  Si  Si11  1  0.51218150  0.38628350  0.80097400  1
  Si  Si12  1  0.85266250  0.11555050  0.59580400  1
  Si  Si13  1  0.14733750  0.11555050  0.40419600  1
  Si  Si14  1  0.14733750  0.88444950  0.40419600  1
  Si  Si15  1  0.85266250  0.88444950  0.59580400  1
  Si  Si16  1  0.83895500  0.20353900  0.22769100  1
  Si  Si17  1  0.16104500  0.20353900  0.77230900  1
  Si  Si18  1  0.16104500  0.79646100  0.77230900  1
  Si  Si19  1  0.83895500  0.79646100  0.22769100  1
  Si  Si20  1  0.74766950  0.38599750  0.12546200  1
  Si  Si21  1  0.25233050  0.38599750  0.87453800  1
  Si  Si22  1  0.25233050  0.61400250  0.87453800  1
  Si  Si23  1  0.74766950  0.61400250  0.12546200  1
  Si  Si24  1  0.01218150  0.11371650  0.80097400  1
  Si  Si25  1  0.98781850  0.11371650  0.19902600  1
  Si  Si26  1  0.98781850  0.88628350  0.19902600  1
  Si  Si27  1  0.01218150  0.88628350  0.80097400  1
  Si  Si28  1  0.35266250  0.61555050  0.59580400  1
  Si  Si29  1  0.64733750  0.61555050  0.40419600  1
  Si  Si30  1  0.64733750  0.38444950  0.40419600  1
  Si  Si31  1  0.35266250  0.38444950  0.59580400  1
  O  O32  1  0.80960600  0.14237700  0.75093100  1
  O  O33  1  0.19039400  0.14237700  0.24906900  1
  O  O34  1  0.19039400  0.85762300  0.24906900  1
  O  O35  1  0.80960600  0.85762300  0.75093100  1
  O  O36  1  0.57549750  0.68656950  0.76686600  1
  O  O37  1  0.42450250  0.68656950  0.23313400  1
  O  O38  1  0.42450250  0.31343050  0.23313400  1
  O  O39  1  0.57549750  0.31343050  0.76686600  1
  O  O40  1  0.20955150  0.86763550  0.91976900  1
  O  O41  1  0.79044850  0.86763550  0.08023100  1
  O  O42  1  0.79044850  0.13236450  0.08023100  1
  O  O43  1  0.20955150  0.13236450  0.91976900  1
  O  O44  1  0.31955450  0.81798050  0.18012800  1
  O  O45  1  0.68044550  0.81798050  0.81987200  1
  O  O46  1  0.68044550  0.18201950  0.81987200  1
  O  O47  1  0.31955450  0.18201950  0.18012800  1
  O  O48  1  0.84237000  0.00000000  0.54647600  1
  O  O49  1  0.15763000  0.00000000  0.45352400  1
  O  O50  1  0.50000000  0.37126100  0.00000000  1
  O  O51  1  0.50000000  0.62873900  0.00000000  1
  O  O52  1  0.32106400  0.32071000  0.42016300  1
  O  O53  1  0.67893600  0.32071000  0.57983700  1
  O  O54  1  0.67893600  0.67929000  0.57983700  1
  O  O55  1  0.32106400  0.67929000  0.42016300  1
  O  O56  1  0.43809800  0.35887100  0.66232400  1
  O  O57  1  0.56190200  0.35887100  0.33767600  1
  O  O58  1  0.56190200  0.64112900  0.33767600  1
  O  O59  1  0.43809800  0.64112900  0.66232400  1
  O  O60  1  0.03517100  0.00000000  0.77339100  1
  O  O61  1  0.96482900  0.00000000  0.22660900  1
  O  O62  1  0.27211400  0.00000000  0.15164200  1
  O  O63  1  0.72788600  0.00000000  0.84835800  1
  O  O64  1  0.30960600  0.64237700  0.75093100  1
  O  O65  1  0.69039400  0.64237700  0.24906900  1
  O  O66  1  0.69039400  0.35762300  0.24906900  1
  O  O67  1  0.30960600  0.35762300  0.75093100  1
  O  O68  1  0.07549750  0.18656950  0.76686600  1
  O  O69  1  0.92450250  0.18656950  0.23313400  1
  O  O70  1  0.92450250  0.81343050  0.23313400  1
  O  O71  1  0.07549750  0.81343050  0.76686600  1
  O  O72  1  0.70955150  0.36763550  0.91976900  1
  O  O73  1  0.29044850  0.36763550  0.08023100  1
  O  O74  1  0.29044850  0.63236450  0.08023100  1
  O  O75  1  0.70955150  0.63236450  0.91976900  1
  O  O76  1  0.81955450  0.31798050  0.18012800  1
  O  O77  1  0.18044550  0.31798050  0.81987200  1
  O  O78  1  0.18044550  0.68201950  0.81987200  1
  O  O79  1  0.81955450  0.68201950  0.18012800  1
  O  O80  1  0.34237000  0.50000000  0.54647600  1
  O  O81  1  0.65763000  0.50000000  0.45352400  1
  O  O82  1  0.00000000  0.87126100  0.00000000  1
  O  O83  1  0.00000000  0.12873900  0.00000000  1
  O  O84  1  0.82106400  0.82071000  0.42016300  1
  O  O85  1  0.17893600  0.82071000  0.57983700  1
  O  O86  1  0.17893600  0.17929000  0.57983700  1
  O  O87  1  0.82106400  0.17929000  0.42016300  1
  O  O88  1  0.93809800  0.85887100  0.66232400  1
  O  O89  1  0.06190200  0.85887100  0.33767600  1
  O  O90  1  0.06190200  0.14112900  0.33767600  1
  O  O91  1  0.93809800  0.14112900  0.66232400  1
  O  O92  1  0.53517100  0.50000000  0.77339100  1
  O  O93  1  0.46482900  0.50000000  0.22660900  1
  O  O94  1  0.77211400  0.50000000  0.15164200  1
  O  O95  1  0.22788600  0.50000000  0.84835800  1
