# generated using pymatgen
data_CsYHgSe3
_symmetry_space_group_name_H-M   'P 1'
_cell_length_a   4.30828400
_cell_length_b   16.41270800
_cell_length_c   11.18974600
_cell_angle_alpha   90.00000000
_cell_angle_beta   90.00000000
_cell_angle_gamma   90.00000000
_symmetry_Int_Tables_number   1
_chemical_formula_structural   CsYHgSe3
_chemical_formula_sum   'Cs4 Y4 Hg4 Se12'
_cell_volume   791.23373489
_cell_formula_units_Z   4
loop_
 _symmetry_equiv_pos_site_id
 _symmetry_equiv_pos_as_xyz
  1  'x, y, z'
loop_
 _atom_site_type_symbol
 _atom_site_label
 _atom_site_symmetry_multiplicity
 _atom_site_fract_x
 _atom_site_fract_y
 _atom_site_fract_z
 _atom_site_occupancy
  Cs  Cs0  1  0.00000000  0.25534300  0.75000000  1
  Cs  Cs1  1  0.50000000  0.24465700  0.25000000  1
  Cs  Cs2  1  0.50000000  0.75534300  0.75000000  1
  Cs  Cs3  1  0.00000000  0.74465700  0.25000000  1
  Y  Y4  1  0.00000000  0.00000000  0.50000000  1
  Y  Y5  1  0.00000000  0.00000000  0.00000000  1
  Y  Y6  1  0.50000000  0.50000000  0.50000000  1
  Y  Y7  1  0.50000000  0.50000000  0.00000000  1
  Hg  Hg8  1  0.50000000  0.04511500  0.75000000  1
  Hg  Hg9  1  0.00000000  0.45488500  0.25000000  1
  Hg  Hg10  1  0.00000000  0.54511500  0.75000000  1
  Hg  Hg11  1  0.50000000  0.95488500  0.25000000  1
  Se  Se12  1  0.50000000  0.43942600  0.75000000  1
  Se  Se13  1  0.00000000  0.06057400  0.25000000  1
  Se  Se14  1  0.00000000  0.38212400  0.04068400  1
  Se  Se15  1  0.00000000  0.38212400  0.45931600  1
  Se  Se16  1  0.50000000  0.11787600  0.54068400  1
  Se  Se17  1  0.50000000  0.11787600  0.95931600  1
  Se  Se18  1  0.00000000  0.93942600  0.75000000  1
  Se  Se19  1  0.50000000  0.56057400  0.25000000  1
  Se  Se20  1  0.50000000  0.88212400  0.04068400  1
  Se  Se21  1  0.50000000  0.88212400  0.45931600  1
  Se  Se22  1  0.00000000  0.61787600  0.54068400  1
  Se  Se23  1  0.00000000  0.61787600  0.95931600  1
