# generated using pymatgen
data_BaYCuTe3
_symmetry_space_group_name_H-M   'P 1'
_cell_length_a   4.44262800
_cell_length_b   14.98953600
_cell_length_c   11.44982600
_cell_angle_alpha   90.00000000
_cell_angle_beta   90.00000000
_cell_angle_gamma   90.00000000
_symmetry_Int_Tables_number   1
_chemical_formula_structural   BaYCuTe3
_chemical_formula_sum   'Ba4 Y4 Cu4 Te12'
_cell_volume   762.47748813
_cell_formula_units_Z   4
loop_
 _symmetry_equiv_pos_site_id
 _symmetry_equiv_pos_as_xyz
  1  'x, y, z'
loop_
 _atom_site_type_symbol
 _atom_site_label
 _atom_site_symmetry_multiplicity
 _atom_site_fract_x
 _atom_site_fract_y
 _atom_site_fract_z
 _atom_site_occupancy
  Ba  Ba0  1  0.00000000  0.24937900  0.75000000  1
  Ba  Ba1  1  0.50000000  0.25062100  0.25000000  1
  Ba  Ba2  1  0.50000000  0.74937900  0.75000000  1
  Ba  Ba3  1  0.00000000  0.75062100  0.25000000  1
  Y  Y4  1  0.00000000  0.00000000  0.00000000  1
  Y  Y5  1  0.00000000  0.00000000  0.50000000  1
  Y  Y6  1  0.50000000  0.50000000  0.00000000  1
  Y  Y7  1  0.50000000  0.50000000  0.50000000  1
  Cu  Cu8  1  0.00000000  0.46753400  0.25000000  1
  Cu  Cu9  1  0.50000000  0.03246600  0.75000000  1
  Cu  Cu10  1  0.50000000  0.96753400  0.25000000  1
  Cu  Cu11  1  0.00000000  0.53246600  0.75000000  1
  Te  Te12  1  0.00000000  0.36362300  0.43877600  1
  Te  Te13  1  0.50000000  0.42969600  0.75000000  1
  Te  Te14  1  0.50000000  0.13637700  0.93877600  1
  Te  Te15  1  0.50000000  0.13637700  0.56122400  1
  Te  Te16  1  0.00000000  0.36362300  0.06122400  1
  Te  Te17  1  0.00000000  0.07030400  0.25000000  1
  Te  Te18  1  0.50000000  0.86362300  0.43877600  1
  Te  Te19  1  0.00000000  0.92969600  0.75000000  1
  Te  Te20  1  0.00000000  0.63637700  0.93877600  1
  Te  Te21  1  0.00000000  0.63637700  0.56122400  1
  Te  Te22  1  0.50000000  0.86362300  0.06122400  1
  Te  Te23  1  0.50000000  0.57030400  0.25000000  1
