# generated using pymatgen
data_SrCu3(SnO3)4
_symmetry_space_group_name_H-M   'P 1'
_cell_length_a   7.80037800
_cell_length_b   7.80037800
_cell_length_c   7.80037800
_cell_angle_alpha   90.00000000
_cell_angle_beta   90.00000000
_cell_angle_gamma   90.00000000
_symmetry_Int_Tables_number   1
_chemical_formula_structural   SrCu3(SnO3)4
_chemical_formula_sum   'Sr2 Cu6 Sn8 O24'
_cell_volume   474.62099590
_cell_formula_units_Z   2
loop_
 _symmetry_equiv_pos_site_id
 _symmetry_equiv_pos_as_xyz
  1  'x, y, z'
loop_
 _atom_site_type_symbol
 _atom_site_label
 _atom_site_symmetry_multiplicity
 _atom_site_fract_x
 _atom_site_fract_y
 _atom_site_fract_z
 _atom_site_occupancy
  Sr  Sr0  1  0.00000000  0.00000000  0.00000000  1
  Sr  Sr1  1  0.50000000  0.50000000  0.50000000  1
  Cu  Cu2  1  0.50000000  0.00000000  0.00000000  1
  Cu  Cu3  1  0.00000000  0.00000000  0.50000000  1
  Cu  Cu4  1  0.00000000  0.50000000  0.00000000  1
  Cu  Cu5  1  0.00000000  0.50000000  0.50000000  1
  Cu  Cu6  1  0.50000000  0.50000000  0.00000000  1
  Cu  Cu7  1  0.50000000  0.00000000  0.50000000  1
  Sn  Sn8  1  0.25000000  0.25000000  0.25000000  1
  Sn  Sn9  1  0.75000000  0.25000000  0.25000000  1
  Sn  Sn10  1  0.25000000  0.75000000  0.25000000  1
  Sn  Sn11  1  0.25000000  0.25000000  0.75000000  1
  Sn  Sn12  1  0.75000000  0.75000000  0.75000000  1
  Sn  Sn13  1  0.25000000  0.75000000  0.75000000  1
  Sn  Sn14  1  0.75000000  0.25000000  0.75000000  1
  Sn  Sn15  1  0.75000000  0.75000000  0.25000000  1
  O  O16  1  0.32862700  0.50000000  0.80935900  1
  O  O17  1  0.17137300  0.00000000  0.69064100  1
  O  O18  1  0.32862700  0.50000000  0.19064100  1
  O  O19  1  0.00000000  0.30935900  0.17137300  1
  O  O20  1  0.30935900  0.17137300  0.00000000  1
  O  O21  1  0.80935900  0.32862700  0.50000000  1
  O  O22  1  0.00000000  0.69064100  0.17137300  1
  O  O23  1  0.19064100  0.32862700  0.50000000  1
  O  O24  1  0.17137300  0.00000000  0.30935900  1
  O  O25  1  0.50000000  0.19064100  0.32862700  1
  O  O26  1  0.69064100  0.17137300  0.00000000  1
  O  O27  1  0.50000000  0.80935900  0.32862700  1
  O  O28  1  0.82862700  0.00000000  0.30935900  1
  O  O29  1  0.67137300  0.50000000  0.19064100  1
  O  O30  1  0.82862700  0.00000000  0.69064100  1
  O  O31  1  0.50000000  0.80935900  0.67137300  1
  O  O32  1  0.80935900  0.67137300  0.50000000  1
  O  O33  1  0.30935900  0.82862700  0.00000000  1
  O  O34  1  0.50000000  0.19064100  0.67137300  1
  O  O35  1  0.69064100  0.82862700  0.00000000  1
  O  O36  1  0.67137300  0.50000000  0.80935900  1
  O  O37  1  0.00000000  0.69064100  0.82862700  1
  O  O38  1  0.19064100  0.67137300  0.50000000  1
  O  O39  1  0.00000000  0.30935900  0.82862700  1
