# generated using pymatgen
data_NiMoO4
_symmetry_space_group_name_H-M   'P 1'
_cell_length_a   4.65740600
_cell_length_b   5.75124000
_cell_length_c   4.96613186
_cell_angle_alpha   90.00000000
_cell_angle_beta   90.11951407
_cell_angle_gamma   90.00000000
_symmetry_Int_Tables_number   1
_chemical_formula_structural   NiMoO4
_chemical_formula_sum   'Ni2 Mo2 O8'
_cell_volume   133.02182176
_cell_formula_units_Z   2
loop_
 _symmetry_equiv_pos_site_id
 _symmetry_equiv_pos_as_xyz
  1  'x, y, z'
loop_
 _atom_site_type_symbol
 _atom_site_label
 _atom_site_symmetry_multiplicity
 _atom_site_fract_x
 _atom_site_fract_y
 _atom_site_fract_z
 _atom_site_occupancy
  Ni  Ni0  1  0.50000000  0.33962000  0.25000000  1
  Ni  Ni1  1  0.50000000  0.66038000  0.75000000  1
  Mo  Mo2  1  0.00000000  0.18109400  0.75000000  1
  Mo  Mo3  1  0.00000000  0.81890600  0.25000000  1
  O  O4  1  0.25870200  0.62246500  0.09631300  1
  O  O5  1  0.74129800  0.62246500  0.40368700  1
  O  O6  1  0.74129800  0.37753500  0.90368700  1
  O  O7  1  0.25870200  0.37753500  0.59631300  1
  O  O8  1  0.22015300  0.10933200  0.06797100  1
  O  O9  1  0.77984700  0.10933200  0.43202900  1
  O  O10  1  0.77984700  0.89066800  0.93202900  1
  O  O11  1  0.22015300  0.89066800  0.56797100  1
