# generated using pymatgen
data_Sr4Mn3O10
_symmetry_space_group_name_H-M   'P 1'
_cell_length_a   5.54946600
_cell_length_b   12.55516000
_cell_length_c   12.89237400
_cell_angle_alpha   90.00000000
_cell_angle_beta   90.00000000
_cell_angle_gamma   90.00000000
_symmetry_Int_Tables_number   1
_chemical_formula_structural   Sr4Mn3O10
_chemical_formula_sum   'Sr16 Mn12 O40'
_cell_volume   898.26885549
_cell_formula_units_Z   4
loop_
 _symmetry_equiv_pos_site_id
 _symmetry_equiv_pos_as_xyz
  1  'x, y, z'
loop_
 _atom_site_type_symbol
 _atom_site_label
 _atom_site_symmetry_multiplicity
 _atom_site_fract_x
 _atom_site_fract_y
 _atom_site_fract_z
 _atom_site_occupancy
  Sr  Sr0  1  0.00000000  0.73717600  0.38845600  1
  Sr  Sr1  1  0.50000000  0.73717600  0.11154400  1
  Sr  Sr2  1  0.00000000  0.76282400  0.88845600  1
  Sr  Sr3  1  0.50000000  0.97076600  0.85579900  1
  Sr  Sr4  1  0.50000000  0.76282400  0.61154400  1
  Sr  Sr5  1  0.50000000  0.52923400  0.35579900  1
  Sr  Sr6  1  0.00000000  0.52923400  0.14420100  1
  Sr  Sr7  1  0.00000000  0.97076600  0.64420100  1
  Sr  Sr8  1  0.50000000  0.23717600  0.38845600  1
  Sr  Sr9  1  0.00000000  0.23717600  0.11154400  1
  Sr  Sr10  1  0.50000000  0.26282400  0.88845600  1
  Sr  Sr11  1  0.00000000  0.47076600  0.85579900  1
  Sr  Sr12  1  0.00000000  0.26282400  0.61154400  1
  Sr  Sr13  1  0.00000000  0.02923400  0.35579900  1
  Sr  Sr14  1  0.50000000  0.02923400  0.14420100  1
  Sr  Sr15  1  0.50000000  0.47076600  0.64420100  1
  Mn  Mn16  1  0.00000000  0.50000000  0.50000000  1
  Mn  Mn17  1  0.50000000  0.86746400  0.34764300  1
  Mn  Mn18  1  0.00000000  0.63253600  0.65235700  1
  Mn  Mn19  1  0.50000000  0.63253600  0.84764300  1
  Mn  Mn20  1  0.50000000  0.50000000  0.00000000  1
  Mn  Mn21  1  0.00000000  0.86746400  0.15235700  1
  Mn  Mn22  1  0.50000000  0.00000000  0.50000000  1
  Mn  Mn23  1  0.00000000  0.36746400  0.34764300  1
  Mn  Mn24  1  0.50000000  0.13253600  0.65235700  1
  Mn  Mn25  1  0.00000000  0.13253600  0.84764300  1
  Mn  Mn26  1  0.00000000  0.00000000  0.00000000  1
  Mn  Mn27  1  0.50000000  0.36746400  0.15235700  1
  O  O28  1  0.00000000  0.72265900  0.15305500  1
  O  O29  1  0.50000000  0.77734100  0.84694500  1
  O  O30  1  0.77078600  0.89053500  0.03766300  1
  O  O31  1  0.72921400  0.89053500  0.46233700  1
  O  O32  1  0.50000000  0.72265900  0.34694500  1
  O  O33  1  0.27078600  0.60946500  0.96233700  1
  O  O34  1  0.77078600  0.60946500  0.53766300  1
  O  O35  1  0.22921400  0.89053500  0.03766300  1
  O  O36  1  0.75000000  0.61620200  0.75000000  1
  O  O37  1  0.50000000  0.96309200  0.64501100  1
  O  O38  1  0.27078600  0.89053500  0.46233700  1
  O  O39  1  0.22921400  0.60946500  0.53766300  1
  O  O40  1  0.00000000  0.77734100  0.65305500  1
  O  O41  1  0.75000000  0.88379800  0.25000000  1
  O  O42  1  0.50000000  0.53690800  0.14501100  1
  O  O43  1  0.00000000  0.53690800  0.35498900  1
  O  O44  1  0.25000000  0.61620200  0.75000000  1
  O  O45  1  0.00000000  0.96309200  0.85498900  1
  O  O46  1  0.72921400  0.60946500  0.96233700  1
  O  O47  1  0.25000000  0.88379800  0.25000000  1
  O  O48  1  0.50000000  0.22265900  0.15305500  1
  O  O49  1  0.00000000  0.27734100  0.84694500  1
  O  O50  1  0.27078600  0.39053500  0.03766300  1
  O  O51  1  0.22921400  0.39053500  0.46233700  1
  O  O52  1  0.00000000  0.22265900  0.34694500  1
  O  O53  1  0.77078600  0.10946500  0.96233700  1
  O  O54  1  0.27078600  0.10946500  0.53766300  1
  O  O55  1  0.72921400  0.39053500  0.03766300  1
  O  O56  1  0.25000000  0.11620200  0.75000000  1
  O  O57  1  0.00000000  0.46309200  0.64501100  1
  O  O58  1  0.77078600  0.39053500  0.46233700  1
  O  O59  1  0.72921400  0.10946500  0.53766300  1
  O  O60  1  0.50000000  0.27734100  0.65305500  1
  O  O61  1  0.25000000  0.38379800  0.25000000  1
  O  O62  1  0.00000000  0.03690800  0.14501100  1
  O  O63  1  0.50000000  0.03690800  0.35498900  1
  O  O64  1  0.75000000  0.11620200  0.75000000  1
  O  O65  1  0.50000000  0.46309200  0.85498900  1
  O  O66  1  0.22921400  0.10946500  0.96233700  1
  O  O67  1  0.75000000  0.38379800  0.25000000  1
