# generated using pymatgen
data_RbCd(NO2)3
_symmetry_space_group_name_H-M   'P 1'
_cell_length_a   7.81629225
_cell_length_b   7.81629225
_cell_length_c   9.43398412
_cell_angle_alpha   90.00000000
_cell_angle_beta   90.00000000
_cell_angle_gamma   120.00000000
_symmetry_Int_Tables_number   1
_chemical_formula_structural   RbCd(NO2)3
_chemical_formula_sum   'Rb3 Cd3 N9 O18'
_cell_volume   499.14571976
_cell_formula_units_Z   3
loop_
 _symmetry_equiv_pos_site_id
 _symmetry_equiv_pos_as_xyz
  1  'x, y, z'
loop_
 _atom_site_type_symbol
 _atom_site_label
 _atom_site_symmetry_multiplicity
 _atom_site_fract_x
 _atom_site_fract_y
 _atom_site_fract_z
 _atom_site_occupancy
  Rb  Rb0  1  0.00000000  0.00000000  0.54483000  1
  Rb  Rb1  1  0.66666667  0.33333333  0.87816333  1
  Rb  Rb2  1  0.33333333  0.66666667  0.21149667  1
  Cd  Cd3  1  0.00000000  0.00000000  0.01311500  1
  Cd  Cd4  1  0.66666667  0.33333333  0.34644833  1
  Cd  Cd5  1  0.33333333  0.66666667  0.67978167  1
  N  N6  1  0.87997267  0.72085333  0.18828633  1
  N  N7  1  0.27914667  0.15911933  0.18828633  1
  N  N8  1  0.84088067  0.12002733  0.18828633  1
  N  N9  1  0.54663933  0.05418667  0.52161967  1
  N  N10  1  0.94581333  0.49245267  0.52161967  1
  N  N11  1  0.50754733  0.45336067  0.52161967  1
  N  N12  1  0.21330600  0.38752000  0.85495300  1
  N  N13  1  0.61248000  0.82578600  0.85495300  1
  N  N14  1  0.17421400  0.78669400  0.85495300  1
  O  O15  1  0.28788500  0.06373200  0.29221900  1
  O  O16  1  0.77584700  0.71211500  0.29221900  1
  O  O17  1  0.34044300  0.43830900  0.49865700  1
  O  O18  1  0.09786600  0.65955700  0.49865700  1
  O  O19  1  0.56169100  0.90213400  0.49865700  1
  O  O20  1  0.93626800  0.22415300  0.29221900  1
  O  O21  1  0.95455167  0.39706533  0.62555233  1
  O  O22  1  0.44251367  0.04544833  0.62555233  1
  O  O23  1  0.00710967  0.77164233  0.83199033  1
  O  O24  1  0.76453267  0.99289033  0.83199033  1
  O  O25  1  0.22835767  0.23546733  0.83199033  1
  O  O26  1  0.60293467  0.55748633  0.62555233  1
  O  O27  1  0.62121833  0.73039867  0.95888567  1
  O  O28  1  0.10918033  0.37878167  0.95888567  1
  O  O29  1  0.67377633  0.10497567  0.16532367  1
  O  O30  1  0.43119933  0.32622367  0.16532367  1
  O  O31  1  0.89502433  0.56880067  0.16532367  1
  O  O32  1  0.26960133  0.89081967  0.95888567  1
