# generated using pymatgen
data_Sb2Te3
_symmetry_space_group_name_H-M   'P 1'
_cell_length_a   4.33283633
_cell_length_b   4.33283633
_cell_length_c   31.34891821
_cell_angle_alpha   90.00000000
_cell_angle_beta   90.00000000
_cell_angle_gamma   120.00000000
_symmetry_Int_Tables_number   1
_chemical_formula_structural   Sb2Te3
_chemical_formula_sum   'Sb6 Te9'
_cell_volume   509.68019473
_cell_formula_units_Z   3
loop_
 _symmetry_equiv_pos_site_id
 _symmetry_equiv_pos_as_xyz
  1  'x, y, z'
loop_
 _atom_site_type_symbol
 _atom_site_label
 _atom_site_symmetry_multiplicity
 _atom_site_fract_x
 _atom_site_fract_y
 _atom_site_fract_z
 _atom_site_occupancy
  Sb  Sb0  1  0.33333333  0.66666667  0.06338867  1
  Sb  Sb1  1  0.33333333  0.66666667  0.26994467  1
  Sb  Sb2  1  0.00000000  0.00000000  0.39672200  1
  Sb  Sb3  1  0.00000000  0.00000000  0.60327800  1
  Sb  Sb4  1  0.66666667  0.33333333  0.73005533  1
  Sb  Sb5  1  0.66666667  0.33333333  0.93661133  1
  Te  Te6  1  0.00000000  0.00000000  0.21537500  1
  Te  Te7  1  0.66666667  0.33333333  0.11795833  1
  Te  Te8  1  0.00000000  0.00000000  0.00000000  1
  Te  Te9  1  0.66666667  0.33333333  0.54870833  1
  Te  Te10  1  0.33333333  0.66666667  0.45129167  1
  Te  Te11  1  0.66666667  0.33333333  0.33333333  1
  Te  Te12  1  0.33333333  0.66666667  0.88204167  1
  Te  Te13  1  0.00000000  0.00000000  0.78462500  1
  Te  Te14  1  0.33333333  0.66666667  0.66666667  1
