# generated using pymatgen
data_Rb2PdF6
_symmetry_space_group_name_H-M   'P 1'
_cell_length_a   8.78328400
_cell_length_b   8.78328400
_cell_length_c   8.78328400
_cell_angle_alpha   90.00000000
_cell_angle_beta   90.00000000
_cell_angle_gamma   90.00000000
_symmetry_Int_Tables_number   1
_chemical_formula_structural   Rb2PdF6
_chemical_formula_sum   'Rb8 Pd4 F24'
_cell_volume   677.59591102
_cell_formula_units_Z   4
loop_
 _symmetry_equiv_pos_site_id
 _symmetry_equiv_pos_as_xyz
  1  'x, y, z'
loop_
 _atom_site_type_symbol
 _atom_site_label
 _atom_site_symmetry_multiplicity
 _atom_site_fract_x
 _atom_site_fract_y
 _atom_site_fract_z
 _atom_site_occupancy
  Rb  Rb0  1  0.25000000  0.25000000  0.75000000  1
  Rb  Rb1  1  0.25000000  0.75000000  0.75000000  1
  Rb  Rb2  1  0.25000000  0.75000000  0.25000000  1
  Rb  Rb3  1  0.25000000  0.25000000  0.25000000  1
  Rb  Rb4  1  0.75000000  0.25000000  0.25000000  1
  Rb  Rb5  1  0.75000000  0.75000000  0.25000000  1
  Rb  Rb6  1  0.75000000  0.75000000  0.75000000  1
  Rb  Rb7  1  0.75000000  0.25000000  0.75000000  1
  Pd  Pd8  1  0.00000000  0.00000000  0.00000000  1
  Pd  Pd9  1  0.00000000  0.50000000  0.50000000  1
  Pd  Pd10  1  0.50000000  0.00000000  0.50000000  1
  Pd  Pd11  1  0.50000000  0.50000000  0.00000000  1
  F  F12  1  0.00000000  0.00000000  0.77752500  1
  F  F13  1  0.50000000  0.27752500  0.00000000  1
  F  F14  1  0.50000000  0.72247500  0.00000000  1
  F  F15  1  0.50000000  0.00000000  0.72247500  1
  F  F16  1  0.77752500  0.00000000  0.00000000  1
  F  F17  1  0.22247500  0.00000000  0.00000000  1
  F  F18  1  0.00000000  0.50000000  0.27752500  1
  F  F19  1  0.50000000  0.77752500  0.50000000  1
  F  F20  1  0.50000000  0.22247500  0.50000000  1
  F  F21  1  0.50000000  0.50000000  0.22247500  1
  F  F22  1  0.77752500  0.50000000  0.50000000  1
  F  F23  1  0.22247500  0.50000000  0.50000000  1
  F  F24  1  0.50000000  0.00000000  0.27752500  1
  F  F25  1  0.00000000  0.27752500  0.50000000  1
  F  F26  1  0.00000000  0.72247500  0.50000000  1
  F  F27  1  0.00000000  0.00000000  0.22247500  1
  F  F28  1  0.27752500  0.00000000  0.50000000  1
  F  F29  1  0.72247500  0.00000000  0.50000000  1
  F  F30  1  0.50000000  0.50000000  0.77752500  1
  F  F31  1  0.00000000  0.77752500  0.00000000  1
  F  F32  1  0.00000000  0.22247500  0.00000000  1
  F  F33  1  0.00000000  0.50000000  0.72247500  1
  F  F34  1  0.27752500  0.50000000  0.00000000  1
  F  F35  1  0.72247500  0.50000000  0.00000000  1
