# generated using pymatgen
data_RbCu3S2
_symmetry_space_group_name_H-M   'P 1'
_cell_length_a   14.65317400
_cell_length_b   3.91884600
_cell_length_c   8.53182241
_cell_angle_alpha   90.00000000
_cell_angle_beta   112.16943470
_cell_angle_gamma   90.00000000
_symmetry_Int_Tables_number   1
_chemical_formula_structural   RbCu3S2
_chemical_formula_sum   'Rb4 Cu12 S8'
_cell_volume   453.70803757
_cell_formula_units_Z   4
loop_
 _symmetry_equiv_pos_site_id
 _symmetry_equiv_pos_as_xyz
  1  'x, y, z'
loop_
 _atom_site_type_symbol
 _atom_site_label
 _atom_site_symmetry_multiplicity
 _atom_site_fract_x
 _atom_site_fract_y
 _atom_site_fract_z
 _atom_site_occupancy
  Rb  Rb0  1  0.13589600  0.00000000  0.04322400  1
  Rb  Rb1  1  0.36410400  0.50000000  0.95677600  1
  Rb  Rb2  1  0.63589600  0.50000000  0.04322400  1
  Rb  Rb3  1  0.86410400  0.00000000  0.95677600  1
  Cu  Cu4  1  0.09218200  0.50000000  0.63416900  1
  Cu  Cu5  1  0.19018500  0.50000000  0.42097500  1
  Cu  Cu6  1  0.43569500  0.50000000  0.58940900  1
  Cu  Cu7  1  0.06430500  0.00000000  0.41059100  1
  Cu  Cu8  1  0.30981500  0.00000000  0.57902500  1
  Cu  Cu9  1  0.40781800  0.00000000  0.36583100  1
  Cu  Cu10  1  0.59218200  0.00000000  0.63416900  1
  Cu  Cu11  1  0.69018500  0.00000000  0.42097500  1
  Cu  Cu12  1  0.93569500  0.00000000  0.58940900  1
  Cu  Cu13  1  0.56430500  0.50000000  0.41059100  1
  Cu  Cu14  1  0.80981500  0.50000000  0.57902500  1
  Cu  Cu15  1  0.90781800  0.50000000  0.36583100  1
  S  S16  1  0.18962700  0.00000000  0.68040500  1
  S  S17  1  0.31037300  0.50000000  0.31959500  1
  S  S18  1  0.47523600  0.00000000  0.75222300  1
  S  S19  1  0.02476400  0.50000000  0.24777700  1
  S  S20  1  0.68962700  0.50000000  0.68040500  1
  S  S21  1  0.81037300  0.00000000  0.31959500  1
  S  S22  1  0.97523600  0.50000000  0.75222300  1
  S  S23  1  0.52476400  0.00000000  0.24777700  1
