# generated using pymatgen
data_MgSiN2
_symmetry_space_group_name_H-M   'P 1'
_cell_length_a   2.85152539
_cell_length_b   2.85152539
_cell_length_c   14.68891277
_cell_angle_alpha   90.00000000
_cell_angle_beta   90.00000000
_cell_angle_gamma   120.00000000
_symmetry_Int_Tables_number   1
_chemical_formula_structural   MgSiN2
_chemical_formula_sum   'Mg3 Si3 N6'
_cell_volume   103.43672668
_cell_formula_units_Z   3
loop_
 _symmetry_equiv_pos_site_id
 _symmetry_equiv_pos_as_xyz
  1  'x, y, z'
loop_
 _atom_site_type_symbol
 _atom_site_label
 _atom_site_symmetry_multiplicity
 _atom_site_fract_x
 _atom_site_fract_y
 _atom_site_fract_z
 _atom_site_occupancy
  Mg  Mg0  1  0.00000000  0.00000000  0.00000000  1
  Mg  Mg1  1  0.66666667  0.33333333  0.33333333  1
  Mg  Mg2  1  0.33333333  0.66666667  0.66666667  1
  Si  Si3  1  0.33333333  0.66666667  0.16666667  1
  Si  Si4  1  1.00000000  1.00000000  0.50000000  1
  Si  Si5  1  0.66666667  0.33333333  0.83333333  1
  N  N6  1  0.66666667  0.33333333  0.09667033  1
  N  N7  1  0.00000000  0.00000000  0.23666300  1
  N  N8  1  0.33333333  0.66666667  0.43000367  1
  N  N9  1  0.66666667  0.33333333  0.56999633  1
  N  N10  1  0.00000000  0.00000000  0.76333700  1
  N  N11  1  0.33333333  0.66666667  0.90332967  1
