# generated using pymatgen
data_BaC2
_symmetry_space_group_name_H-M   'P 1'
_cell_length_a   5.23763473
_cell_length_b   5.23763473
_cell_length_c   7.45785850
_cell_angle_alpha   90.00000000
_cell_angle_beta   90.00000000
_cell_angle_gamma   120.00000000
_symmetry_Int_Tables_number   1
_chemical_formula_structural   BaC2
_chemical_formula_sum   'Ba3 C6'
_cell_volume   177.18019931
_cell_formula_units_Z   3
loop_
 _symmetry_equiv_pos_site_id
 _symmetry_equiv_pos_as_xyz
  1  'x, y, z'
loop_
 _atom_site_type_symbol
 _atom_site_label
 _atom_site_symmetry_multiplicity
 _atom_site_fract_x
 _atom_site_fract_y
 _atom_site_fract_z
 _atom_site_occupancy
  Ba  Ba0  1  0.00000000  0.00000000  0.00000000  1
  Ba  Ba1  1  0.66666667  0.33333333  0.33333333  1
  Ba  Ba2  1  0.33333333  0.66666667  0.66666667  1
  C  C3  1  0.33333333  0.66666667  0.25160367  1
  C  C4  1  0.33333333  0.66666667  0.08172967  1
  C  C5  1  0.00000000  0.00000000  0.58493700  1
  C  C6  1  0.00000000  0.00000000  0.41506300  1
  C  C7  1  0.66666667  0.33333333  0.91827033  1
  C  C8  1  0.66666667  0.33333333  0.74839633  1
