# generated using pymatgen
data_LiV2O5
_symmetry_space_group_name_H-M   'P 1'
_cell_length_a   3.62219515
_cell_length_b   4.72743159
_cell_length_c   11.48918170
_cell_angle_alpha   90.00000000
_cell_angle_beta   90.00000000
_cell_angle_gamma   90.00000000
_symmetry_Int_Tables_number   1
_chemical_formula_structural   LiV2O5
_chemical_formula_sum   'Li2 V4 O10'
_cell_volume   196.73706833
_cell_formula_units_Z   2
loop_
 _symmetry_equiv_pos_site_id
 _symmetry_equiv_pos_as_xyz
  1  'x, y, z'
loop_
 _atom_site_type_symbol
 _atom_site_label
 _atom_site_symmetry_multiplicity
 _atom_site_fract_x
 _atom_site_fract_y
 _atom_site_fract_z
 _atom_site_occupancy
  Li  Li0  1  0.00000000  0.78479885  0.50000000  1
  Li  Li1  1  0.50000000  0.21520115  0.00000000  1
  V  V2  1  0.50000000  0.39246659  0.65068703  1
  V  V3  1  0.00000000  0.60753341  0.84931297  1
  V  V4  1  0.50000000  0.39246659  0.34931297  1
  V  V5  1  0.00000000  0.60753341  0.15068703  1
  O  O6  1  0.50000000  0.04856193  0.63109232  1
  O  O7  1  0.00000000  0.46811745  0.00000000  1
  O  O8  1  0.00000000  0.95143807  0.86890768  1
  O  O9  1  0.50000000  0.53188255  0.50000000  1
  O  O10  1  0.00000000  0.95143807  0.13109232  1
  O  O11  1  0.50000000  0.04856193  0.36890768  1
  O  O12  1  0.50000000  0.47555745  0.82276365  1
  O  O13  1  0.50000000  0.47555745  0.17723635  1
  O  O14  1  0.00000000  0.52444255  0.67723635  1
  O  O15  1  0.00000000  0.52444255  0.32276365  1
