# generated using pymatgen
data_Sr3(BO3)2
_symmetry_space_group_name_H-M   'P 1'
_cell_length_a   9.11089568
_cell_length_b   9.11089568
_cell_length_c   12.87324710
_cell_angle_alpha   90.00000000
_cell_angle_beta   90.00000000
_cell_angle_gamma   120.00000000
_symmetry_Int_Tables_number   1
_chemical_formula_structural   Sr3(BO3)2
_chemical_formula_sum   'Sr18 B12 O36'
_cell_volume   925.42427039
_cell_formula_units_Z   6
loop_
 _symmetry_equiv_pos_site_id
 _symmetry_equiv_pos_as_xyz
  1  'x, y, z'
loop_
 _atom_site_type_symbol
 _atom_site_label
 _atom_site_symmetry_multiplicity
 _atom_site_fract_x
 _atom_site_fract_y
 _atom_site_fract_z
 _atom_site_occupancy
  Sr  Sr0  1  0.01913967  0.33333333  0.08333333  1
  Sr  Sr1  1  0.66666667  0.68580633  0.08333333  1
  Sr  Sr2  1  0.31419367  0.98086033  0.08333333  1
  Sr  Sr3  1  0.64752700  0.00000000  0.25000000  1
  Sr  Sr4  1  0.00000000  0.64752700  0.25000000  1
  Sr  Sr5  1  0.35247300  0.35247300  0.25000000  1
  Sr  Sr6  1  0.68580633  0.66666667  0.41666667  1
  Sr  Sr7  1  0.33333333  0.01913967  0.41666667  1
  Sr  Sr8  1  0.98086033  0.31419367  0.41666667  1
  Sr  Sr9  1  0.31419367  0.33333333  0.58333333  1
  Sr  Sr10  1  0.66666667  0.98086033  0.58333333  1
  Sr  Sr11  1  0.01913967  0.68580633  0.58333333  1
  Sr  Sr12  1  0.35247300  0.00000000  0.75000000  1
  Sr  Sr13  1  0.00000000  0.35247300  0.75000000  1
  Sr  Sr14  1  0.64752700  0.64752700  0.75000000  1
  Sr  Sr15  1  0.98086033  0.66666667  0.91666667  1
  Sr  Sr16  1  0.33333333  0.31419367  0.91666667  1
  Sr  Sr17  1  0.68580633  0.01913967  0.91666667  1
  B  B18  1  0.33333333  0.66666667  0.05061567  1
  B  B19  1  0.33333333  0.66666667  0.28271767  1
  B  B20  1  0.33333333  0.66666667  0.55061567  1
  B  B21  1  0.33333333  0.66666667  0.78271767  1
  B  B22  1  0.00000000  0.00000000  0.38394900  1
  B  B23  1  0.00000000  0.00000000  0.61605100  1
  B  B24  1  0.00000000  0.00000000  0.88394900  1
  B  B25  1  1.00000000  0.00000000  0.11605100  1
  B  B26  1  0.66666667  0.33333333  0.71728233  1
  B  B27  1  0.66666667  0.33333333  0.94938433  1
  B  B28  1  0.66666667  0.33333333  0.21728233  1
  B  B29  1  0.66666667  0.33333333  0.44938433  1
  O  O30  1  0.67562033  0.49115167  0.21841867  1
  O  O31  1  0.50884833  0.18446867  0.21841867  1
  O  O32  1  0.81553133  0.32437967  0.21841867  1
  O  O33  1  0.49115167  0.67562033  0.28158133  1
  O  O34  1  0.18446867  0.50884833  0.28158133  1
  O  O35  1  0.32437967  0.81553133  0.28158133  1
  O  O36  1  0.15781833  0.14886467  0.11491467  1
  O  O37  1  0.99104633  0.84218167  0.11491467  1
  O  O38  1  0.85113533  0.00895367  0.11491467  1
  O  O39  1  0.48219800  0.82448500  0.05175200  1
  O  O40  1  0.34228700  0.51780200  0.05175200  1
  O  O41  1  0.17551500  0.65771300  0.05175200  1
  O  O42  1  0.34228700  0.82448500  0.55175200  1
  O  O43  1  0.17551500  0.51780200  0.55175200  1
  O  O44  1  0.48219800  0.65771300  0.55175200  1
  O  O45  1  0.15781833  0.00895367  0.61491467  1
  O  O46  1  0.85113533  0.84218167  0.61491467  1
  O  O47  1  0.99104633  0.14886467  0.61491467  1
  O  O48  1  0.82448500  0.48219800  0.44824800  1
  O  O49  1  0.65771300  0.17551500  0.44824800  1
  O  O50  1  0.51780200  0.34228700  0.44824800  1
  O  O51  1  0.14886467  0.15781833  0.38508533  1
  O  O52  1  0.00895367  0.85113533  0.38508533  1
  O  O53  1  0.84218167  0.99104633  0.38508533  1
  O  O54  1  0.00895367  0.15781833  0.88508533  1
  O  O55  1  0.84218167  0.85113533  0.88508533  1
  O  O56  1  0.14886467  0.99104633  0.88508533  1
  O  O57  1  0.82448500  0.34228700  0.94824800  1
  O  O58  1  0.51780200  0.17551500  0.94824800  1
  O  O59  1  0.65771300  0.48219800  0.94824800  1
  O  O60  1  0.49115167  0.81553133  0.78158133  1
  O  O61  1  0.32437967  0.50884833  0.78158133  1
  O  O62  1  0.18446867  0.67562033  0.78158133  1
  O  O63  1  0.81553133  0.49115167  0.71841867  1
  O  O64  1  0.67562033  0.18446867  0.71841867  1
  O  O65  1  0.50884833  0.32437967  0.71841867  1
