# generated using pymatgen
data_CaCoP2O7
_symmetry_space_group_name_H-M   'P 1'
_cell_length_a   6.35010079
_cell_length_b   6.58636924
_cell_length_c   7.01151553
_cell_angle_alpha   96.20193509
_cell_angle_beta   90.18376196
_cell_angle_gamma   112.17971043
_symmetry_Int_Tables_number   1
_chemical_formula_structural   CaCoP2O7
_chemical_formula_sum   'Ca2 Co2 P4 O14'
_cell_volume   269.65341817
_cell_formula_units_Z   2
loop_
 _symmetry_equiv_pos_site_id
 _symmetry_equiv_pos_as_xyz
  1  'x, y, z'
loop_
 _atom_site_type_symbol
 _atom_site_label
 _atom_site_symmetry_multiplicity
 _atom_site_fract_x
 _atom_site_fract_y
 _atom_site_fract_z
 _atom_site_occupancy
  Ca  Ca0  1  0.70370300  0.73407600  0.38212600  1
  Ca  Ca1  1  0.29629700  0.26592400  0.61787400  1
  Co  Co2  1  0.75629100  0.13384100  0.80566900  1
  Co  Co3  1  0.24370900  0.86615900  0.19433100  1
  P  P4  1  0.83613800  0.65943200  0.87722300  1
  P  P5  1  0.16386200  0.34056800  0.12277700  1
  P  P6  1  0.75468400  0.22229400  0.36959500  1
  P  P7  1  0.24531600  0.77770600  0.63040500  1
  O  O8  1  0.91539700  0.75216000  0.08850800  1
  O  O9  1  0.08460300  0.24784000  0.91149200  1
  O  O10  1  0.76075400  0.81035700  0.76857400  1
  O  O11  1  0.23924600  0.18964300  0.23142600  1
  O  O12  1  0.67170500  0.41709000  0.85606400  1
  O  O13  1  0.32829500  0.58291000  0.14393600  1
  O  O14  1  0.35209600  0.61765100  0.55182800  1
  O  O15  1  0.64790400  0.38234900  0.44817200  1
  O  O16  1  0.88162300  0.15564700  0.52575400  1
  O  O17  1  0.11837700  0.84435300  0.47424600  1
  O  O18  1  0.93315200  0.35020900  0.22152000  1
  O  O19  1  0.41328800  0.99388800  0.74134100  1
  O  O20  1  0.58671200  0.00611200  0.25865900  1
  O  O21  1  0.06684800  0.64979100  0.77848000  1
