# generated using pymatgen
data_V2Zn2O7
_symmetry_space_group_name_H-M   'P 1'
_cell_length_a   7.00406560
_cell_length_b   8.51848158
_cell_length_c   5.09547411
_cell_angle_alpha   90.00000000
_cell_angle_beta   108.25244717
_cell_angle_gamma   90.00000000
_symmetry_Int_Tables_number   1
_chemical_formula_structural   V2Zn2O7
_chemical_formula_sum   'V4 Zn4 O14'
_cell_volume   288.72003017
_cell_formula_units_Z   2
loop_
 _symmetry_equiv_pos_site_id
 _symmetry_equiv_pos_as_xyz
  1  'x, y, z'
loop_
 _atom_site_type_symbol
 _atom_site_label
 _atom_site_symmetry_multiplicity
 _atom_site_fract_x
 _atom_site_fract_y
 _atom_site_fract_z
 _atom_site_occupancy
  V  V0  1  0.72334382  0.50000000  0.40335243  1
  V  V1  1  0.27665618  0.50000000  0.59664757  1
  V  V2  1  0.22334382  0.00000000  0.40335243  1
  V  V3  1  0.77665618  0.00000000  0.59664757  1
  Zn  Zn4  1  0.00000000  0.31608013  0.00000000  1
  Zn  Zn5  1  0.00000000  0.68391987  0.00000000  1
  Zn  Zn6  1  0.50000000  0.81608013  0.00000000  1
  Zn  Zn7  1  0.50000000  0.18391987  0.00000000  1
  O  O8  1  0.91906638  0.50000000  0.72497135  1
  O  O9  1  0.08093362  0.50000000  0.27502865  1
  O  O10  1  0.28585324  0.66670128  0.79046534  1
  O  O11  1  0.71414676  0.66670128  0.20953466  1
  O  O12  1  0.50000000  0.50000000  0.50000000  1
  O  O13  1  0.71414676  0.33329872  0.20953466  1
  O  O14  1  0.28585324  0.33329872  0.79046534  1
  O  O15  1  0.41906638  0.00000000  0.72497135  1
  O  O16  1  0.58093362  0.00000000  0.27502865  1
  O  O17  1  0.78585324  0.16670128  0.79046534  1
  O  O18  1  0.21414676  0.16670128  0.20953466  1
  O  O19  1  0.00000000  0.00000000  0.50000000  1
  O  O20  1  0.21414676  0.83329872  0.20953466  1
  O  O21  1  0.78585324  0.83329872  0.79046534  1
