# generated using pymatgen
data_BS4N4F3
_symmetry_space_group_name_H-M   'P 1'
_cell_length_a   7.49552000
_cell_length_b   10.91721700
_cell_length_c   12.86729308
_cell_angle_alpha   90.00000000
_cell_angle_beta   120.76531712
_cell_angle_gamma   90.00000000
_symmetry_Int_Tables_number   1
_chemical_formula_structural   BS4N4F3
_chemical_formula_sum   'B4 S16 N16 F12'
_cell_volume   904.75376363
_cell_formula_units_Z   4
loop_
 _symmetry_equiv_pos_site_id
 _symmetry_equiv_pos_as_xyz
  1  'x, y, z'
loop_
 _atom_site_type_symbol
 _atom_site_label
 _atom_site_symmetry_multiplicity
 _atom_site_fract_x
 _atom_site_fract_y
 _atom_site_fract_z
 _atom_site_occupancy
  B  B0  1  0.20850700  0.59692500  0.69875600  1
  B  B1  1  0.79149300  0.09692500  0.80124400  1
  B  B2  1  0.79149300  0.40307500  0.30124400  1
  B  B3  1  0.20850700  0.90307500  0.19875600  1
  S  S4  1  0.35637000  0.07314100  0.09098800  1
  S  S5  1  0.64363000  0.57314100  0.40901200  1
  S  S6  1  0.64363000  0.92685900  0.90901200  1
  S  S7  1  0.35637000  0.42685900  0.59098800  1
  S  S8  1  0.77105800  0.04767900  0.31359700  1
  S  S9  1  0.22894200  0.54767900  0.18640300  1
  S  S10  1  0.22894200  0.95232100  0.68640300  1
  S  S11  1  0.77105800  0.45232100  0.81359700  1
  S  S12  1  0.58587000  0.15616100  0.44976300  1
  S  S13  1  0.41413000  0.65616100  0.05023700  1
  S  S14  1  0.41413000  0.84383900  0.55023700  1
  S  S15  1  0.58587000  0.34383900  0.94976300  1
  S  S16  1  0.18189400  0.16613000  0.21812900  1
  S  S17  1  0.81810600  0.66613000  0.28187100  1
  S  S18  1  0.81810600  0.83387000  0.78187100  1
  S  S19  1  0.18189400  0.33387000  0.71812900  1
  N  N20  1  0.29097800  0.56228500  0.08564000  1
  N  N21  1  0.39700600  0.56208300  0.32313500  1
  N  N22  1  0.39700600  0.93791700  0.82313500  1
  N  N23  1  0.60299400  0.43791700  0.67686500  1
  N  N24  1  0.70902200  0.06228500  0.41436000  1
  N  N25  1  0.70902200  0.43771500  0.91436000  1
  N  N26  1  0.29097800  0.93771500  0.58564000  1
  N  N27  1  0.60299400  0.06208300  0.17686500  1
  N  N28  1  0.36192400  0.19828400  0.35275700  1
  N  N29  1  0.63807600  0.69828400  0.14724300  1
  N  N30  1  0.63807600  0.80171600  0.64724300  1
  N  N31  1  0.76058600  0.54026200  0.33176800  1
  N  N32  1  0.23941400  0.45973800  0.66823200  1
  N  N33  1  0.76058600  0.95973800  0.83176800  1
  N  N34  1  0.23941400  0.04026200  0.16823200  1
  N  N35  1  0.36192400  0.30171600  0.85275700  1
  F  F36  1  0.40420900  0.84780200  0.27056300  1
  F  F37  1  0.90134000  0.41026600  0.24005000  1
  F  F38  1  0.90134000  0.08973400  0.74005000  1
  F  F39  1  0.09866000  0.58973400  0.75995000  1
  F  F40  1  0.09866000  0.91026600  0.25995000  1
  F  F41  1  0.90379900  0.16066900  0.91162000  1
  F  F42  1  0.90379900  0.33933100  0.41162000  1
  F  F43  1  0.09620100  0.83933100  0.08838000  1
  F  F44  1  0.40420900  0.65219800  0.77056300  1
  F  F45  1  0.59579100  0.15219800  0.72943700  1
  F  F46  1  0.59579100  0.34780200  0.22943700  1
  F  F47  1  0.09620100  0.66066900  0.58838000  1
