# generated using pymatgen
data_UTl4C3O11
_symmetry_space_group_name_H-M   'P 1'
_cell_length_a   10.91392400
_cell_length_b   9.51519600
_cell_length_c   13.06352216
_cell_angle_alpha   90.00000000
_cell_angle_beta   94.47036938
_cell_angle_gamma   90.00000000
_symmetry_Int_Tables_number   1
_chemical_formula_structural   UTl4C3O11
_chemical_formula_sum   'U4 Tl16 C12 O44'
_cell_volume   1352.49514629
_cell_formula_units_Z   4
loop_
 _symmetry_equiv_pos_site_id
 _symmetry_equiv_pos_as_xyz
  1  'x, y, z'
loop_
 _atom_site_type_symbol
 _atom_site_label
 _atom_site_symmetry_multiplicity
 _atom_site_fract_x
 _atom_site_fract_y
 _atom_site_fract_z
 _atom_site_occupancy
  U  U0  1  0.50000000  0.70124000  0.75000000  1
  U  U1  1  0.50000000  0.29876000  0.25000000  1
  U  U2  1  0.00000000  0.20124000  0.75000000  1
  U  U3  1  0.00000000  0.79876000  0.25000000  1
  Tl  Tl4  1  0.81374550  0.85664350  0.64940400  1
  Tl  Tl5  1  0.18625450  0.85664350  0.85059600  1
  Tl  Tl6  1  0.39339400  0.19241300  0.94622600  1
  Tl  Tl7  1  0.60660600  0.19241300  0.55377400  1
  Tl  Tl8  1  0.60660600  0.80758700  0.05377400  1
  Tl  Tl9  1  0.39339400  0.80758700  0.44622600  1
  Tl  Tl10  1  0.81374550  0.14335650  0.14940400  1
  Tl  Tl11  1  0.18625450  0.14335650  0.35059600  1
  Tl  Tl12  1  0.31374550  0.35664350  0.64940400  1
  Tl  Tl13  1  0.68625450  0.35664350  0.85059600  1
  Tl  Tl14  1  0.89339400  0.69241300  0.94622600  1
  Tl  Tl15  1  0.10660600  0.69241300  0.55377400  1
  Tl  Tl16  1  0.10660600  0.30758700  0.05377400  1
  Tl  Tl17  1  0.89339400  0.30758700  0.44622600  1
  Tl  Tl18  1  0.31374550  0.64335650  0.14940400  1
  Tl  Tl19  1  0.68625450  0.64335650  0.35059600  1
  C  C20  1  0.11362500  0.04540500  0.59032700  1
  C  C21  1  0.88637500  0.95459500  0.40967300  1
  C  C22  1  0.11362500  0.95459500  0.09032700  1
  C  C23  1  0.88637500  0.04540500  0.90967300  1
  C  C24  1  0.50000000  0.99505600  0.25000000  1
  C  C25  1  0.50000000  0.00494400  0.75000000  1
  C  C26  1  0.61362500  0.54540500  0.59032700  1
  C  C27  1  0.38637500  0.45459500  0.40967300  1
  C  C28  1  0.61362500  0.45459500  0.09032700  1
  C  C29  1  0.38637500  0.54540500  0.90967300  1
  C  C30  1  0.00000000  0.49505600  0.25000000  1
  C  C31  1  0.00000000  0.50494400  0.75000000  1
  O  O32  1  0.17160800  0.97820400  0.52587000  1
  O  O33  1  0.82839200  0.97820400  0.97413000  1
  O  O34  1  0.50000000  0.86145000  0.25000000  1
  O  O35  1  0.50000000  0.13855000  0.75000000  1
  O  O36  1  0.17160800  0.02179600  0.02587000  1
  O  O37  1  0.82839200  0.02179600  0.47413000  1
  O  O38  1  0.34662900  0.70031900  0.67925600  1
  O  O39  1  0.34662900  0.29968100  0.17925600  1
  O  O40  1  0.65337100  0.70031900  0.82074400  1
  O  O41  1  0.65337100  0.29968100  0.32074400  1
  O  O42  1  0.45309200  0.92979900  0.82201300  1
  O  O43  1  0.54690800  0.92979900  0.67798700  1
  O  O44  1  0.54690800  0.07020100  0.17798700  1
  O  O45  1  0.45309200  0.07020100  0.32201300  1
  O  O46  1  0.40073200  0.68295500  0.91246100  1
  O  O47  1  0.59926800  0.68295500  0.58753900  1
  O  O48  1  0.59926800  0.31704500  0.08753900  1
  O  O49  1  0.40073200  0.31704500  0.41246100  1
  O  O50  1  0.93760550  0.98352950  0.83348700  1
  O  O51  1  0.06239450  0.98352950  0.66651300  1
  O  O52  1  0.06239450  0.01647050  0.16651300  1
  O  O53  1  0.93760550  0.01647050  0.33348700  1
  O  O54  1  0.67160800  0.47820400  0.52587000  1
  O  O55  1  0.32839200  0.47820400  0.97413000  1
  O  O56  1  0.00000000  0.36145000  0.25000000  1
  O  O57  1  0.00000000  0.63855000  0.75000000  1
  O  O58  1  0.67160800  0.52179600  0.02587000  1
  O  O59  1  0.32839200  0.52179600  0.47413000  1
  O  O60  1  0.84662900  0.20031900  0.67925600  1
  O  O61  1  0.84662900  0.79968100  0.17925600  1
  O  O62  1  0.15337100  0.20031900  0.82074400  1
  O  O63  1  0.15337100  0.79968100  0.32074400  1
  O  O64  1  0.95309200  0.42979900  0.82201300  1
  O  O65  1  0.04690800  0.42979900  0.67798700  1
  O  O66  1  0.04690800  0.57020100  0.17798700  1
  O  O67  1  0.95309200  0.57020100  0.32201300  1
  O  O68  1  0.90073200  0.18295500  0.91246100  1
  O  O69  1  0.09926800  0.18295500  0.58753900  1
  O  O70  1  0.09926800  0.81704500  0.08753900  1
  O  O71  1  0.90073200  0.81704500  0.41246100  1
  O  O72  1  0.43760550  0.48352950  0.83348700  1
  O  O73  1  0.56239450  0.48352950  0.66651300  1
  O  O74  1  0.56239450  0.51647050  0.16651300  1
  O  O75  1  0.43760550  0.51647050  0.33348700  1
