# generated using pymatgen
data_Pr3NbO7
_symmetry_space_group_name_H-M   'P 1'
_cell_length_a   7.60848200
_cell_length_b   11.10751200
_cell_length_c   7.79121300
_cell_angle_alpha   90.00000000
_cell_angle_beta   90.00000000
_cell_angle_gamma   90.00000000
_symmetry_Int_Tables_number   1
_chemical_formula_structural   Pr3NbO7
_chemical_formula_sum   'Pr12 Nb4 O28'
_cell_volume   658.44557907
_cell_formula_units_Z   4
loop_
 _symmetry_equiv_pos_site_id
 _symmetry_equiv_pos_as_xyz
  1  'x, y, z'
loop_
 _atom_site_type_symbol
 _atom_site_label
 _atom_site_symmetry_multiplicity
 _atom_site_fract_x
 _atom_site_fract_y
 _atom_site_fract_z
 _atom_site_occupancy
  Pr  Pr0  1  0.70358400  0.77449000  0.75000000  1
  Pr  Pr1  1  0.29641600  0.22551000  0.25000000  1
  Pr  Pr2  1  0.70358400  0.22551000  0.75000000  1
  Pr  Pr3  1  0.29641600  0.77449000  0.25000000  1
  Pr  Pr4  1  0.00000000  0.00000000  0.50000000  1
  Pr  Pr5  1  0.00000000  0.00000000  0.00000000  1
  Pr  Pr6  1  0.20358400  0.27449000  0.75000000  1
  Pr  Pr7  1  0.79641600  0.72551000  0.25000000  1
  Pr  Pr8  1  0.20358400  0.72551000  0.75000000  1
  Pr  Pr9  1  0.79641600  0.27449000  0.25000000  1
  Pr  Pr10  1  0.50000000  0.50000000  0.50000000  1
  Pr  Pr11  1  0.50000000  0.50000000  0.00000000  1
  Nb  Nb12  1  0.50000000  0.00000000  0.50000000  1
  Nb  Nb13  1  0.50000000  0.00000000  0.00000000  1
  Nb  Nb14  1  0.00000000  0.50000000  0.50000000  1
  Nb  Nb15  1  0.00000000  0.50000000  0.00000000  1
  O  O16  1  0.56899500  0.00000000  0.75000000  1
  O  O17  1  0.43100500  0.00000000  0.25000000  1
  O  O18  1  0.47722350  0.36887550  0.75000000  1
  O  O19  1  0.52277650  0.63112450  0.25000000  1
  O  O20  1  0.47722350  0.63112450  0.75000000  1
  O  O21  1  0.52277650  0.36887550  0.25000000  1
  O  O22  1  0.31246800  0.12631100  0.96550900  1
  O  O23  1  0.68753200  0.87368900  0.46550900  1
  O  O24  1  0.31246800  0.87368900  0.96550900  1
  O  O25  1  0.68753200  0.12631100  0.46550900  1
  O  O26  1  0.31246800  0.12631100  0.53449100  1
  O  O27  1  0.68753200  0.87368900  0.03449100  1
  O  O28  1  0.68753200  0.12631100  0.03449100  1
  O  O29  1  0.31246800  0.87368900  0.53449100  1
  O  O30  1  0.06899500  0.50000000  0.75000000  1
  O  O31  1  0.93100500  0.50000000  0.25000000  1
  O  O32  1  0.97722350  0.86887550  0.75000000  1
  O  O33  1  0.02277650  0.13112450  0.25000000  1
  O  O34  1  0.97722350  0.13112450  0.75000000  1
  O  O35  1  0.02277650  0.86887550  0.25000000  1
  O  O36  1  0.81246800  0.62631100  0.96550900  1
  O  O37  1  0.18753200  0.37368900  0.46550900  1
  O  O38  1  0.81246800  0.37368900  0.96550900  1
  O  O39  1  0.18753200  0.62631100  0.46550900  1
  O  O40  1  0.81246800  0.62631100  0.53449100  1
  O  O41  1  0.18753200  0.37368900  0.03449100  1
  O  O42  1  0.18753200  0.62631100  0.03449100  1
  O  O43  1  0.81246800  0.37368900  0.53449100  1
