# generated using pymatgen
data_PrVO4
_symmetry_space_group_name_H-M   'P 1'
_cell_length_a   7.48465400
_cell_length_b   7.48465400
_cell_length_c   6.53887000
_cell_angle_alpha   90.00000000
_cell_angle_beta   90.00000000
_cell_angle_gamma   90.00000000
_symmetry_Int_Tables_number   1
_chemical_formula_structural   PrVO4
_chemical_formula_sum   'Pr4 V4 O16'
_cell_volume   366.30779492
_cell_formula_units_Z   4
loop_
 _symmetry_equiv_pos_site_id
 _symmetry_equiv_pos_as_xyz
  1  'x, y, z'
loop_
 _atom_site_type_symbol
 _atom_site_label
 _atom_site_symmetry_multiplicity
 _atom_site_fract_x
 _atom_site_fract_y
 _atom_site_fract_z
 _atom_site_occupancy
  Pr  Pr0  1  0.50000000  0.50000000  0.50000000  1
  Pr  Pr1  1  0.50000000  0.00000000  0.25000000  1
  Pr  Pr2  1  0.00000000  0.00000000  0.00000000  1
  Pr  Pr3  1  0.00000000  0.50000000  0.75000000  1
  V  V4  1  0.50000000  0.00000000  0.75000000  1
  V  V5  1  0.00000000  0.00000000  0.50000000  1
  V  V6  1  0.00000000  0.50000000  0.25000000  1
  V  V7  1  0.50000000  0.50000000  0.00000000  1
  O  O8  1  0.00000000  0.32067850  0.07977650  1
  O  O9  1  0.50000000  0.17932150  0.57977650  1
  O  O10  1  0.67932150  0.00000000  0.92022350  1
  O  O11  1  0.00000000  0.82067850  0.67022350  1
  O  O12  1  0.00000000  0.17932150  0.67022350  1
  O  O13  1  0.82067850  0.50000000  0.42022350  1
  O  O14  1  0.17932150  0.00000000  0.32977650  1
  O  O15  1  0.82067850  0.00000000  0.32977650  1
  O  O16  1  0.50000000  0.82067850  0.57977650  1
  O  O17  1  0.00000000  0.67932150  0.07977650  1
  O  O18  1  0.17932150  0.50000000  0.42022350  1
  O  O19  1  0.50000000  0.32067850  0.17022350  1
  O  O20  1  0.50000000  0.67932150  0.17022350  1
  O  O21  1  0.32067850  0.00000000  0.92022350  1
  O  O22  1  0.67932150  0.50000000  0.82977650  1
  O  O23  1  0.32067850  0.50000000  0.82977650  1
