# generated using pymatgen
data_K2BaCo(NO2)6
_symmetry_space_group_name_H-M   'P 1'
_cell_length_a   10.62714200
_cell_length_b   10.67787400
_cell_length_c   11.12747800
_cell_angle_alpha   90.00000000
_cell_angle_beta   90.00000000
_cell_angle_gamma   90.00000000
_symmetry_Int_Tables_number   1
_chemical_formula_structural   K2BaCo(NO2)6
_chemical_formula_sum   'K8 Ba4 Co4 N24 O48'
_cell_volume   1262.69371798
_cell_formula_units_Z   4
loop_
 _symmetry_equiv_pos_site_id
 _symmetry_equiv_pos_as_xyz
  1  'x, y, z'
loop_
 _atom_site_type_symbol
 _atom_site_label
 _atom_site_symmetry_multiplicity
 _atom_site_fract_x
 _atom_site_fract_y
 _atom_site_fract_z
 _atom_site_occupancy
  K  K0  1  0.75000000  0.25000000  0.25000000  1
  K  K1  1  0.75000000  0.75000000  0.25000000  1
  K  K2  1  0.75000000  0.75000000  0.75000000  1
  K  K3  1  0.75000000  0.25000000  0.75000000  1
  K  K4  1  0.25000000  0.25000000  0.75000000  1
  K  K5  1  0.25000000  0.75000000  0.75000000  1
  K  K6  1  0.25000000  0.75000000  0.25000000  1
  K  K7  1  0.25000000  0.25000000  0.25000000  1
  Ba  Ba8  1  0.50000000  0.00000000  0.00000000  1
  Ba  Ba9  1  0.50000000  0.50000000  0.50000000  1
  Ba  Ba10  1  0.00000000  0.00000000  0.50000000  1
  Ba  Ba11  1  0.00000000  0.50000000  0.00000000  1
  Co  Co12  1  0.00000000  0.00000000  0.00000000  1
  Co  Co13  1  0.00000000  0.50000000  0.50000000  1
  Co  Co14  1  0.50000000  0.00000000  0.50000000  1
  Co  Co15  1  0.50000000  0.50000000  0.00000000  1
  N  N16  1  0.81762000  0.00000000  0.00000000  1
  N  N17  1  0.18238000  0.00000000  0.00000000  1
  N  N18  1  0.50000000  0.00000000  0.30277100  1
  N  N19  1  0.00000000  0.00000000  0.19722900  1
  N  N20  1  0.50000000  0.68222600  0.00000000  1
  N  N21  1  0.50000000  0.31777400  0.00000000  1
  N  N22  1  0.81762000  0.50000000  0.50000000  1
  N  N23  1  0.18238000  0.50000000  0.50000000  1
  N  N24  1  0.50000000  0.50000000  0.80277100  1
  N  N25  1  0.00000000  0.50000000  0.69722900  1
  N  N26  1  0.50000000  0.18222600  0.50000000  1
  N  N27  1  0.50000000  0.81777400  0.50000000  1
  N  N28  1  0.31762000  0.00000000  0.50000000  1
  N  N29  1  0.68238000  0.00000000  0.50000000  1
  N  N30  1  0.00000000  0.00000000  0.80277100  1
  N  N31  1  0.50000000  0.00000000  0.69722900  1
  N  N32  1  0.00000000  0.68222600  0.50000000  1
  N  N33  1  0.00000000  0.31777400  0.50000000  1
  N  N34  1  0.31762000  0.50000000  0.00000000  1
  N  N35  1  0.68238000  0.50000000  0.00000000  1
  N  N36  1  0.00000000  0.50000000  0.30277100  1
  N  N37  1  0.50000000  0.50000000  0.19722900  1
  N  N38  1  0.00000000  0.18222600  0.00000000  1
  N  N39  1  0.00000000  0.81777400  0.00000000  1
  O  O40  1  0.75627200  0.00000000  0.09712300  1
  O  O41  1  0.74372800  0.00000000  0.40287700  1
  O  O42  1  0.24372800  0.00000000  0.09712300  1
  O  O43  1  0.25627200  0.00000000  0.40287700  1
  O  O44  1  0.39828950  0.74384450  0.00000000  1
  O  O45  1  0.60171050  0.74384450  0.00000000  1
  O  O46  1  0.39828950  0.25615550  0.00000000  1
  O  O47  1  0.60171050  0.25615550  0.00000000  1
  O  O48  1  0.00000000  0.10104450  0.25697950  1
  O  O49  1  0.50000000  0.10104450  0.24302050  1
  O  O50  1  0.50000000  0.89895550  0.24302050  1
  O  O51  1  0.00000000  0.89895550  0.25697950  1
  O  O52  1  0.75627200  0.50000000  0.59712300  1
  O  O53  1  0.74372800  0.50000000  0.90287700  1
  O  O54  1  0.24372800  0.50000000  0.59712300  1
  O  O55  1  0.25627200  0.50000000  0.90287700  1
  O  O56  1  0.39828950  0.24384450  0.50000000  1
  O  O57  1  0.60171050  0.24384450  0.50000000  1
  O  O58  1  0.39828950  0.75615550  0.50000000  1
  O  O59  1  0.60171050  0.75615550  0.50000000  1
  O  O60  1  0.00000000  0.60104450  0.75697950  1
  O  O61  1  0.50000000  0.60104450  0.74302050  1
  O  O62  1  0.50000000  0.39895550  0.74302050  1
  O  O63  1  0.00000000  0.39895550  0.75697950  1
  O  O64  1  0.25627200  0.00000000  0.59712300  1
  O  O65  1  0.24372800  0.00000000  0.90287700  1
  O  O66  1  0.74372800  0.00000000  0.59712300  1
  O  O67  1  0.75627200  0.00000000  0.90287700  1
  O  O68  1  0.89828950  0.74384450  0.50000000  1
  O  O69  1  0.10171050  0.74384450  0.50000000  1
  O  O70  1  0.89828950  0.25615550  0.50000000  1
  O  O71  1  0.10171050  0.25615550  0.50000000  1
  O  O72  1  0.50000000  0.10104450  0.75697950  1
  O  O73  1  0.00000000  0.10104450  0.74302050  1
  O  O74  1  0.00000000  0.89895550  0.74302050  1
  O  O75  1  0.50000000  0.89895550  0.75697950  1
  O  O76  1  0.25627200  0.50000000  0.09712300  1
  O  O77  1  0.24372800  0.50000000  0.40287700  1
  O  O78  1  0.74372800  0.50000000  0.09712300  1
  O  O79  1  0.75627200  0.50000000  0.40287700  1
  O  O80  1  0.89828950  0.24384450  0.00000000  1
  O  O81  1  0.10171050  0.24384450  0.00000000  1
  O  O82  1  0.89828950  0.75615550  0.00000000  1
  O  O83  1  0.10171050  0.75615550  0.00000000  1
  O  O84  1  0.50000000  0.60104450  0.25697950  1
  O  O85  1  0.00000000  0.60104450  0.24302050  1
  O  O86  1  0.00000000  0.39895550  0.24302050  1
  O  O87  1  0.50000000  0.39895550  0.25697950  1
