# generated using pymatgen
data_WO3
_symmetry_space_group_name_H-M   'P 1'
_cell_length_a   7.56825200
_cell_length_b   7.63472200
_cell_length_c   10.73705673
_cell_angle_alpha   90.00000000
_cell_angle_beta   134.12955843
_cell_angle_gamma   90.00000000
_symmetry_Int_Tables_number   1
_chemical_formula_structural   WO3
_chemical_formula_sum   'W8 O24'
_cell_volume   445.30509087
_cell_formula_units_Z   8
loop_
 _symmetry_equiv_pos_site_id
 _symmetry_equiv_pos_as_xyz
  1  'x, y, z'
loop_
 _atom_site_type_symbol
 _atom_site_label
 _atom_site_symmetry_multiplicity
 _atom_site_fract_x
 _atom_site_fract_y
 _atom_site_fract_z
 _atom_site_occupancy
  W  W0  1  0.01535800  0.48535000  0.76810000  1
  W  W1  1  0.01535800  0.01465000  0.26810000  1
  W  W2  1  0.98464200  0.51465000  0.23190000  1
  W  W3  1  0.98464200  0.98535000  0.73190000  1
  W  W4  1  0.51977000  0.48298300  0.26702100  1
  W  W5  1  0.51977000  0.01701700  0.76702100  1
  W  W6  1  0.48023000  0.51701700  0.73297900  1
  W  W7  1  0.48023000  0.98298300  0.23297900  1
  O  O8  1  0.21878000  0.46612700  0.71808700  1
  O  O9  1  0.21878000  0.03387300  0.21808700  1
  O  O10  1  0.78122000  0.53387300  0.28191300  1
  O  O11  1  0.78122000  0.96612700  0.78191300  1
  O  O12  1  0.21911900  0.03561700  0.71906100  1
  O  O13  1  0.21911900  0.46438300  0.21906100  1
  O  O14  1  0.78088100  0.96438300  0.28093900  1
  O  O15  1  0.78088100  0.53561700  0.78093900  1
  O  O16  1  0.99585500  0.24322400  0.77812300  1
  O  O17  1  0.99585500  0.25677600  0.27812300  1
  O  O18  1  0.00414500  0.75677600  0.22187700  1
  O  O19  1  0.00414500  0.74322400  0.72187700  1
  O  O20  1  0.52012800  0.24278900  0.23233100  1
  O  O21  1  0.52012800  0.25721100  0.73233100  1
  O  O22  1  0.47987200  0.75721100  0.76766900  1
  O  O23  1  0.47987200  0.74278900  0.26766900  1
  O  O24  1  0.72208200  0.46679100  0.50418800  1
  O  O25  1  0.72208200  0.03320900  0.00418800  1
  O  O26  1  0.27791800  0.53320900  0.49581200  1
  O  O27  1  0.27791800  0.96679100  0.99581200  1
  O  O28  1  0.71436700  0.01314300  0.49660100  1
  O  O29  1  0.71436700  0.48685700  0.99660100  1
  O  O30  1  0.28563300  0.98685700  0.50339900  1
  O  O31  1  0.28563300  0.51314300  0.00339900  1
