# generated using pymatgen
data_Na6S2O9
_symmetry_space_group_name_H-M   'P 1'
_cell_length_a   9.78304200
_cell_length_b   9.78304200
_cell_length_c   9.78304200
_cell_angle_alpha   90.00000000
_cell_angle_beta   90.00000000
_cell_angle_gamma   90.00000000
_symmetry_Int_Tables_number   1
_chemical_formula_structural   Na6S2O9
_chemical_formula_sum   'Na24 S8 O36'
_cell_volume   936.31451083
_cell_formula_units_Z   4
loop_
 _symmetry_equiv_pos_site_id
 _symmetry_equiv_pos_as_xyz
  1  'x, y, z'
loop_
 _atom_site_type_symbol
 _atom_site_label
 _atom_site_symmetry_multiplicity
 _atom_site_fract_x
 _atom_site_fract_y
 _atom_site_fract_z
 _atom_site_occupancy
  Na  Na0  1  0.23570400  0.00000000  0.00000000  1
  Na  Na1  1  0.50000000  0.73570400  0.00000000  1
  Na  Na2  1  0.50000000  0.26429600  0.00000000  1
  Na  Na3  1  0.50000000  0.00000000  0.73570400  1
  Na  Na4  1  0.00000000  0.00000000  0.76429600  1
  Na  Na5  1  0.76429600  0.00000000  0.00000000  1
  Na  Na6  1  0.23570400  0.50000000  0.50000000  1
  Na  Na7  1  0.50000000  0.23570400  0.50000000  1
  Na  Na8  1  0.50000000  0.76429600  0.50000000  1
  Na  Na9  1  0.50000000  0.50000000  0.23570400  1
  Na  Na10  1  0.00000000  0.50000000  0.26429600  1
  Na  Na11  1  0.76429600  0.50000000  0.50000000  1
  Na  Na12  1  0.73570400  0.00000000  0.50000000  1
  Na  Na13  1  0.00000000  0.73570400  0.50000000  1
  Na  Na14  1  0.00000000  0.26429600  0.50000000  1
  Na  Na15  1  0.00000000  0.00000000  0.23570400  1
  Na  Na16  1  0.50000000  0.00000000  0.26429600  1
  Na  Na17  1  0.26429600  0.00000000  0.50000000  1
  Na  Na18  1  0.73570400  0.50000000  0.00000000  1
  Na  Na19  1  0.00000000  0.23570400  0.00000000  1
  Na  Na20  1  0.00000000  0.76429600  0.00000000  1
  Na  Na21  1  0.00000000  0.50000000  0.73570400  1
  Na  Na22  1  0.50000000  0.50000000  0.76429600  1
  Na  Na23  1  0.26429600  0.50000000  0.00000000  1
  S  S24  1  0.25000000  0.75000000  0.75000000  1
  S  S25  1  0.25000000  0.25000000  0.75000000  1
  S  S26  1  0.25000000  0.25000000  0.25000000  1
  S  S27  1  0.25000000  0.75000000  0.25000000  1
  S  S28  1  0.75000000  0.75000000  0.25000000  1
  S  S29  1  0.75000000  0.25000000  0.25000000  1
  S  S30  1  0.75000000  0.25000000  0.75000000  1
  S  S31  1  0.75000000  0.75000000  0.75000000  1
  O  O32  1  0.00000000  0.00000000  0.00000000  1
  O  O33  1  0.66179200  0.16179200  0.83820800  1
  O  O34  1  0.33820800  0.16179200  0.83820800  1
  O  O35  1  0.16179200  0.16179200  0.66179200  1
  O  O36  1  0.66179200  0.83820800  0.83820800  1
  O  O37  1  0.83820800  0.16179200  0.66179200  1
  O  O38  1  0.16179200  0.83820800  0.66179200  1
  O  O39  1  0.33820800  0.83820800  0.83820800  1
  O  O40  1  0.83820800  0.83820800  0.66179200  1
  O  O41  1  0.00000000  0.50000000  0.50000000  1
  O  O42  1  0.66179200  0.66179200  0.33820800  1
  O  O43  1  0.33820800  0.66179200  0.33820800  1
  O  O44  1  0.16179200  0.66179200  0.16179200  1
  O  O45  1  0.66179200  0.33820800  0.33820800  1
  O  O46  1  0.83820800  0.66179200  0.16179200  1
  O  O47  1  0.16179200  0.33820800  0.16179200  1
  O  O48  1  0.33820800  0.33820800  0.33820800  1
  O  O49  1  0.83820800  0.33820800  0.16179200  1
  O  O50  1  0.50000000  0.00000000  0.50000000  1
  O  O51  1  0.16179200  0.16179200  0.33820800  1
  O  O52  1  0.83820800  0.16179200  0.33820800  1
  O  O53  1  0.66179200  0.16179200  0.16179200  1
  O  O54  1  0.16179200  0.83820800  0.33820800  1
  O  O55  1  0.33820800  0.16179200  0.16179200  1
  O  O56  1  0.66179200  0.83820800  0.16179200  1
  O  O57  1  0.83820800  0.83820800  0.33820800  1
  O  O58  1  0.33820800  0.83820800  0.16179200  1
  O  O59  1  0.50000000  0.50000000  0.00000000  1
  O  O60  1  0.16179200  0.66179200  0.83820800  1
  O  O61  1  0.83820800  0.66179200  0.83820800  1
  O  O62  1  0.66179200  0.66179200  0.66179200  1
  O  O63  1  0.16179200  0.33820800  0.83820800  1
  O  O64  1  0.33820800  0.66179200  0.66179200  1
  O  O65  1  0.66179200  0.33820800  0.66179200  1
  O  O66  1  0.83820800  0.33820800  0.83820800  1
  O  O67  1  0.33820800  0.33820800  0.66179200  1
