# generated using pymatgen
data_K2Sn2Hg3S8
_symmetry_space_group_name_H-M   'P 1'
_cell_length_a   8.91897800
_cell_length_b   10.02957000
_cell_length_c   20.04598300
_cell_angle_alpha   90.00000000
_cell_angle_beta   90.00000000
_cell_angle_gamma   90.00000000
_symmetry_Int_Tables_number   1
_chemical_formula_structural   K2Sn2Hg3S8
_chemical_formula_sum   'K8 Sn8 Hg12 S32'
_cell_volume   1793.18362453
_cell_formula_units_Z   4
loop_
 _symmetry_equiv_pos_site_id
 _symmetry_equiv_pos_as_xyz
  1  'x, y, z'
loop_
 _atom_site_type_symbol
 _atom_site_label
 _atom_site_symmetry_multiplicity
 _atom_site_fract_x
 _atom_site_fract_y
 _atom_site_fract_z
 _atom_site_occupancy
  K  K0  1  0.65334600  0.20624300  0.88228200  1
  K  K1  1  0.65334600  0.79375700  0.11771800  1
  K  K2  1  0.65334600  0.70624300  0.61771800  1
  K  K3  1  0.65334600  0.29375700  0.38228200  1
  K  K4  1  0.15334600  0.70624300  0.88228200  1
  K  K5  1  0.15334600  0.29375700  0.11771800  1
  K  K6  1  0.15334600  0.20624300  0.61771800  1
  K  K7  1  0.15334600  0.79375700  0.38228200  1
  Sn  Sn8  1  0.66204700  0.71333700  0.86396500  1
  Sn  Sn9  1  0.66204700  0.28666300  0.13603500  1
  Sn  Sn10  1  0.66204700  0.21333700  0.63603500  1
  Sn  Sn11  1  0.66204700  0.78666300  0.36396500  1
  Sn  Sn12  1  0.16204700  0.21333700  0.86396500  1
  Sn  Sn13  1  0.16204700  0.78666300  0.13603500  1
  Sn  Sn14  1  0.16204700  0.71333700  0.63603500  1
  Sn  Sn15  1  0.16204700  0.28666300  0.36396500  1
  Hg  Hg16  1  0.35230100  0.96042400  0.75298200  1
  Hg  Hg17  1  0.35230100  0.03957600  0.24701800  1
  Hg  Hg18  1  0.85230100  0.96042400  0.74701800  1
  Hg  Hg19  1  0.85230100  0.03957600  0.25298200  1
  Hg  Hg20  1  0.01556900  0.00000000  0.00000000  1
  Hg  Hg21  1  0.51556900  0.00000000  0.50000000  1
  Hg  Hg22  1  0.85230100  0.46042400  0.75298200  1
  Hg  Hg23  1  0.85230100  0.53957600  0.24701800  1
  Hg  Hg24  1  0.35230100  0.46042400  0.74701800  1
  Hg  Hg25  1  0.35230100  0.53957600  0.25298200  1
  Hg  Hg26  1  0.51556900  0.50000000  0.00000000  1
  Hg  Hg27  1  0.01556900  0.50000000  0.50000000  1
  S  S28  1  0.31608950  0.91446850  0.63297600  1
  S  S29  1  0.31608950  0.08553150  0.36702400  1
  S  S30  1  0.81608950  0.91446850  0.86702400  1
  S  S31  1  0.81608950  0.08553150  0.13297600  1
  S  S32  1  0.31447700  0.01220200  0.87186100  1
  S  S33  1  0.31447700  0.98779800  0.12813900  1
  S  S34  1  0.81447700  0.01220200  0.62813900  1
  S  S35  1  0.81447700  0.98779800  0.37186100  1
  S  S36  1  0.51219750  0.72756050  0.96705600  1
  S  S37  1  0.51219750  0.27243950  0.03294400  1
  S  S38  1  0.51219750  0.22756050  0.53294400  1
  S  S39  1  0.51219750  0.77243950  0.46705600  1
  S  S40  1  0.50842250  0.71256250  0.76712300  1
  S  S41  1  0.50842250  0.28743750  0.23287700  1
  S  S42  1  0.50842250  0.78743750  0.26712300  1
  S  S43  1  0.50842250  0.21256250  0.73287700  1
  S  S44  1  0.81608950  0.41446850  0.63297600  1
  S  S45  1  0.81608950  0.58553150  0.36702400  1
  S  S46  1  0.31608950  0.41446850  0.86702400  1
  S  S47  1  0.31608950  0.58553150  0.13297600  1
  S  S48  1  0.81447700  0.51220200  0.87186100  1
  S  S49  1  0.81447700  0.48779800  0.12813900  1
  S  S50  1  0.31447700  0.51220200  0.62813900  1
  S  S51  1  0.31447700  0.48779800  0.37186100  1
  S  S52  1  0.01219750  0.22756050  0.96705600  1
  S  S53  1  0.01219750  0.77243950  0.03294400  1
  S  S54  1  0.01219750  0.72756050  0.53294400  1
  S  S55  1  0.01219750  0.27243950  0.46705600  1
  S  S56  1  0.00842250  0.21256250  0.76712300  1
  S  S57  1  0.00842250  0.78743750  0.23287700  1
  S  S58  1  0.00842250  0.28743750  0.26712300  1
  S  S59  1  0.00842250  0.71256250  0.73287700  1
