# generated using pymatgen
data_Ba4Zr3S10
_symmetry_space_group_name_H-M   'P 1'
_cell_length_a   5.04887000
_cell_length_b   5.04887000
_cell_length_c   35.92618400
_cell_angle_alpha   90.00000000
_cell_angle_beta   90.00000000
_cell_angle_gamma   90.00000000
_symmetry_Int_Tables_number   1
_chemical_formula_structural   Ba4Zr3S10
_chemical_formula_sum   'Ba8 Zr6 S20'
_cell_volume   915.79752780
_cell_formula_units_Z   2
loop_
 _symmetry_equiv_pos_site_id
 _symmetry_equiv_pos_as_xyz
  1  'x, y, z'
loop_
 _atom_site_type_symbol
 _atom_site_label
 _atom_site_symmetry_multiplicity
 _atom_site_fract_x
 _atom_site_fract_y
 _atom_site_fract_z
 _atom_site_occupancy
  Ba  Ba0  1  0.00000000  0.00000000  0.43263600  1
  Ba  Ba1  1  0.50000000  0.50000000  0.06736400  1
  Ba  Ba2  1  0.00000000  0.00000000  0.30028100  1
  Ba  Ba3  1  0.50000000  0.50000000  0.19971900  1
  Ba  Ba4  1  0.50000000  0.50000000  0.93263600  1
  Ba  Ba5  1  0.00000000  0.00000000  0.56736400  1
  Ba  Ba6  1  0.50000000  0.50000000  0.80028100  1
  Ba  Ba7  1  0.00000000  0.00000000  0.69971900  1
  Zr  Zr8  1  0.00000000  0.00000000  0.00000000  1
  Zr  Zr9  1  0.50000000  0.50000000  0.35682900  1
  Zr  Zr10  1  0.00000000  0.00000000  0.14317100  1
  Zr  Zr11  1  0.50000000  0.50000000  0.50000000  1
  Zr  Zr12  1  0.00000000  0.00000000  0.85682900  1
  Zr  Zr13  1  0.50000000  0.50000000  0.64317100  1
  S  S14  1  0.50000000  0.00000000  0.36059600  1
  S  S15  1  0.50000000  0.00000000  0.13940400  1
  S  S16  1  0.00000000  0.50000000  0.13940400  1
  S  S17  1  0.00000000  0.50000000  0.36059600  1
  S  S18  1  0.00000000  0.50000000  0.00000000  1
  S  S19  1  0.50000000  0.00000000  0.00000000  1
  S  S20  1  0.00000000  0.00000000  0.21310900  1
  S  S21  1  0.50000000  0.50000000  0.42950300  1
  S  S22  1  0.00000000  0.00000000  0.07049700  1
  S  S23  1  0.50000000  0.50000000  0.28689100  1
  S  S24  1  0.00000000  0.50000000  0.86059600  1
  S  S25  1  0.00000000  0.50000000  0.63940400  1
  S  S26  1  0.50000000  0.00000000  0.63940400  1
  S  S27  1  0.50000000  0.00000000  0.86059600  1
  S  S28  1  0.50000000  0.00000000  0.50000000  1
  S  S29  1  0.00000000  0.50000000  0.50000000  1
  S  S30  1  0.50000000  0.50000000  0.71310900  1
  S  S31  1  0.00000000  0.00000000  0.92950300  1
  S  S32  1  0.50000000  0.50000000  0.57049700  1
  S  S33  1  0.00000000  0.00000000  0.78689100  1
