# generated using pymatgen
data_ZnHCO4
_symmetry_space_group_name_H-M   'P 1'
_cell_length_a   10.83597199
_cell_length_b   10.83597199
_cell_length_c   6.39790700
_cell_angle_alpha   90.00000000
_cell_angle_beta   90.00000000
_cell_angle_gamma   120.00000000
_symmetry_Int_Tables_number   1
_chemical_formula_structural   ZnHCO4
_chemical_formula_sum   'Zn6 H6 C6 O24'
_cell_volume   650.58538360
_cell_formula_units_Z   6
loop_
 _symmetry_equiv_pos_site_id
 _symmetry_equiv_pos_as_xyz
  1  'x, y, z'
loop_
 _atom_site_type_symbol
 _atom_site_label
 _atom_site_symmetry_multiplicity
 _atom_site_fract_x
 _atom_site_fract_y
 _atom_site_fract_z
 _atom_site_occupancy
  Zn  Zn0  1  0.50000000  0.50000000  0.00000000  1
  Zn  Zn1  1  0.50000000  0.50000000  0.50000000  1
  Zn  Zn2  1  0.50000000  0.00000000  0.00000000  1
  Zn  Zn3  1  0.50000000  0.00000000  0.50000000  1
  Zn  Zn4  1  0.00000000  0.50000000  0.00000000  1
  Zn  Zn5  1  0.00000000  0.50000000  0.50000000  1
  H  H6  1  0.63193400  0.44608300  0.25000000  1
  H  H7  1  0.81414900  0.36806600  0.25000000  1
  H  H8  1  0.55391700  0.18585100  0.25000000  1
  H  H9  1  0.44608300  0.81414900  0.75000000  1
  H  H10  1  0.18585100  0.63193400  0.75000000  1
  H  H11  1  0.36806600  0.55391700  0.75000000  1
  C  C12  1  0.76946800  0.56585400  0.75000000  1
  C  C13  1  0.43414600  0.20361400  0.75000000  1
  C  C14  1  0.79638600  0.23053200  0.75000000  1
  C  C15  1  0.20361400  0.76946800  0.25000000  1
  C  C16  1  0.56585400  0.79638600  0.25000000  1
  C  C17  1  0.23053200  0.43414600  0.25000000  1
  O  O18  1  0.71288500  0.56697800  0.92549300  1
  O  O19  1  0.71288500  0.56697800  0.57450700  1
  O  O20  1  0.88725600  0.56417600  0.75000000  1
  O  O21  1  0.52896200  0.41067600  0.25000000  1
  O  O22  1  0.43582400  0.32308000  0.75000000  1
  O  O23  1  0.88171400  0.47103800  0.25000000  1
  O  O24  1  0.43302200  0.14590700  0.92549300  1
  O  O25  1  0.43302200  0.14590700  0.57450700  1
  O  O26  1  0.85409300  0.28711500  0.57450700  1
  O  O27  1  0.85409300  0.28711500  0.92549300  1
  O  O28  1  0.58932400  0.11828600  0.25000000  1
  O  O29  1  0.67692000  0.11274400  0.75000000  1
  O  O30  1  0.32308000  0.88725600  0.25000000  1
  O  O31  1  0.41067600  0.88171400  0.75000000  1
  O  O32  1  0.14590700  0.71288500  0.07450700  1
  O  O33  1  0.14590700  0.71288500  0.42549300  1
  O  O34  1  0.56697800  0.85409300  0.42549300  1
  O  O35  1  0.56697800  0.85409300  0.07450700  1
  O  O36  1  0.11828600  0.52896200  0.75000000  1
  O  O37  1  0.56417600  0.67692000  0.25000000  1
  O  O38  1  0.47103800  0.58932400  0.75000000  1
  O  O39  1  0.11274400  0.43582400  0.25000000  1
  O  O40  1  0.28711500  0.43302200  0.42549300  1
  O  O41  1  0.28711500  0.43302200  0.07450700  1
