# generated using pymatgen
data_NaMg4(AsO4)3
_symmetry_space_group_name_H-M   'P 1'
_cell_length_a   6.90603600
_cell_length_b   6.90603600
_cell_length_c   19.50684800
_cell_angle_alpha   90.00000000
_cell_angle_beta   90.00000000
_cell_angle_gamma   90.00000000
_symmetry_Int_Tables_number   1
_chemical_formula_structural   NaMg4(AsO4)3
_chemical_formula_sum   'Na4 Mg16 As12 O48'
_cell_volume   930.34660200
_cell_formula_units_Z   4
loop_
 _symmetry_equiv_pos_site_id
 _symmetry_equiv_pos_as_xyz
  1  'x, y, z'
loop_
 _atom_site_type_symbol
 _atom_site_label
 _atom_site_symmetry_multiplicity
 _atom_site_fract_x
 _atom_site_fract_y
 _atom_site_fract_z
 _atom_site_occupancy
  Na  Na0  1  0.50000000  0.00000000  0.25000000  1
  Na  Na1  1  0.50000000  0.50000000  0.00000000  1
  Na  Na2  1  0.00000000  0.50000000  0.75000000  1
  Na  Na3  1  0.00000000  0.00000000  0.50000000  1
  Mg  Mg4  1  0.75691000  0.25000000  0.12500000  1
  Mg  Mg5  1  0.75000000  0.74309000  0.37500000  1
  Mg  Mg6  1  0.25000000  0.25691000  0.37500000  1
  Mg  Mg7  1  0.24309000  0.75000000  0.12500000  1
  Mg  Mg8  1  0.50000000  0.50000000  0.27003300  1
  Mg  Mg9  1  0.00000000  0.00000000  0.22996700  1
  Mg  Mg10  1  0.00000000  0.50000000  0.47996700  1
  Mg  Mg11  1  0.00000000  0.50000000  0.02003300  1
  Mg  Mg12  1  0.25691000  0.75000000  0.62500000  1
  Mg  Mg13  1  0.25000000  0.24309000  0.87500000  1
  Mg  Mg14  1  0.75000000  0.75691000  0.87500000  1
  Mg  Mg15  1  0.74309000  0.25000000  0.62500000  1
  Mg  Mg16  1  0.00000000  0.00000000  0.77003300  1
  Mg  Mg17  1  0.50000000  0.50000000  0.72996700  1
  Mg  Mg18  1  0.50000000  0.00000000  0.97996700  1
  Mg  Mg19  1  0.50000000  0.00000000  0.52003300  1
  As  As20  1  0.34383800  0.25000000  0.12500000  1
  As  As21  1  0.75000000  0.15616200  0.37500000  1
  As  As22  1  0.25000000  0.84383800  0.37500000  1
  As  As23  1  0.65616200  0.75000000  0.12500000  1
  As  As24  1  0.00000000  0.50000000  0.25000000  1
  As  As25  1  0.00000000  0.00000000  0.00000000  1
  As  As26  1  0.84383800  0.75000000  0.62500000  1
  As  As27  1  0.25000000  0.65616200  0.87500000  1
  As  As28  1  0.75000000  0.34383800  0.87500000  1
  As  As29  1  0.15616200  0.25000000  0.62500000  1
  As  As30  1  0.50000000  0.00000000  0.75000000  1
  As  As31  1  0.50000000  0.50000000  0.50000000  1
  O  O32  1  0.20774200  0.44062400  0.29400700  1
  O  O33  1  0.79225800  0.55937600  0.29400700  1
  O  O34  1  0.94062400  0.20774200  0.04400700  1
  O  O35  1  0.05937600  0.70774200  0.20599300  1
  O  O36  1  0.94062400  0.29225800  0.20599300  1
  O  O37  1  0.70774200  0.55937600  0.45599300  1
  O  O38  1  0.29225800  0.44062400  0.45599300  1
  O  O39  1  0.05937600  0.79225800  0.04400700  1
  O  O40  1  0.45469000  0.72271200  0.34848300  1
  O  O41  1  0.54531000  0.27728800  0.34848300  1
  O  O42  1  0.22271200  0.45469000  0.09848300  1
  O  O43  1  0.77728800  0.95469000  0.15151700  1
  O  O44  1  0.22271200  0.04531000  0.15151700  1
  O  O45  1  0.95469000  0.27728800  0.40151700  1
  O  O46  1  0.04531000  0.72271200  0.40151700  1
  O  O47  1  0.77728800  0.54531000  0.09848300  1
  O  O48  1  0.49183050  0.79670050  0.05963550  1
  O  O49  1  0.29670050  0.00816950  0.44036450  1
  O  O50  1  0.70329950  0.99183050  0.44036450  1
  O  O51  1  0.50816950  0.29670050  0.19036450  1
  O  O52  1  0.49183050  0.70329950  0.19036450  1
  O  O53  1  0.50816950  0.20329950  0.05963550  1
  O  O54  1  0.79670050  0.99183050  0.30963550  1
  O  O55  1  0.20329950  0.00816950  0.30963550  1
  O  O56  1  0.70774200  0.94062400  0.79400700  1
  O  O57  1  0.29225800  0.05937600  0.79400700  1
  O  O58  1  0.44062400  0.70774200  0.54400700  1
  O  O59  1  0.55937600  0.20774200  0.70599300  1
  O  O60  1  0.44062400  0.79225800  0.70599300  1
  O  O61  1  0.20774200  0.05937600  0.95599300  1
  O  O62  1  0.79225800  0.94062400  0.95599300  1
  O  O63  1  0.55937600  0.29225800  0.54400700  1
  O  O64  1  0.95469000  0.22271200  0.84848300  1
  O  O65  1  0.04531000  0.77728800  0.84848300  1
  O  O66  1  0.72271200  0.95469000  0.59848300  1
  O  O67  1  0.27728800  0.45469000  0.65151700  1
  O  O68  1  0.72271200  0.54531000  0.65151700  1
  O  O69  1  0.45469000  0.77728800  0.90151700  1
  O  O70  1  0.54531000  0.22271200  0.90151700  1
  O  O71  1  0.27728800  0.04531000  0.59848300  1
  O  O72  1  0.99183050  0.29670050  0.55963550  1
  O  O73  1  0.79670050  0.50816950  0.94036450  1
  O  O74  1  0.20329950  0.49183050  0.94036450  1
  O  O75  1  0.00816950  0.79670050  0.69036450  1
  O  O76  1  0.99183050  0.20329950  0.69036450  1
  O  O77  1  0.00816950  0.70329950  0.55963550  1
  O  O78  1  0.29670050  0.49183050  0.80963550  1
  O  O79  1  0.70329950  0.50816950  0.80963550  1
