# generated using pymatgen
data_NaSiSbO5
_symmetry_space_group_name_H-M   'P 1'
_cell_length_a   6.41640700
_cell_length_b   10.75173600
_cell_length_c   12.99239200
_cell_angle_alpha   90.00000000
_cell_angle_beta   90.00000000
_cell_angle_gamma   90.00000000
_symmetry_Int_Tables_number   1
_chemical_formula_structural   NaSiSbO5
_chemical_formula_sum   'Na8 Si8 Sb8 O40'
_cell_volume   896.31282672
_cell_formula_units_Z   8
loop_
 _symmetry_equiv_pos_site_id
 _symmetry_equiv_pos_as_xyz
  1  'x, y, z'
loop_
 _atom_site_type_symbol
 _atom_site_label
 _atom_site_symmetry_multiplicity
 _atom_site_fract_x
 _atom_site_fract_y
 _atom_site_fract_z
 _atom_site_occupancy
  Na  Na0  1  0.24599600  0.57388200  0.39406300  1
  Na  Na1  1  0.75400400  0.07388200  0.60593700  1
  Na  Na2  1  0.25400400  0.57388200  0.89406300  1
  Na  Na3  1  0.74599600  0.07388200  0.10593700  1
  Na  Na4  1  0.28984200  0.77603700  0.15494600  1
  Na  Na5  1  0.71015800  0.27603700  0.84505400  1
  Na  Na6  1  0.21015800  0.77603700  0.65494600  1
  Na  Na7  1  0.78984200  0.27603700  0.34505400  1
  Si  Si8  1  0.02469300  0.99559800  0.31560200  1
  Si  Si9  1  0.97530700  0.49559800  0.68439800  1
  Si  Si10  1  0.47530700  0.99559800  0.81560200  1
  Si  Si11  1  0.52469300  0.49559800  0.18439800  1
  Si  Si12  1  0.82593200  0.75787500  0.01424900  1
  Si  Si13  1  0.17406800  0.25787500  0.98575100  1
  Si  Si14  1  0.67406800  0.75787500  0.51424900  1
  Si  Si15  1  0.32593200  0.25787500  0.48575100  1
  Sb  Sb16  1  0.76865100  0.73729200  0.26722800  1
  Sb  Sb17  1  0.23134900  0.23729200  0.73277200  1
  Sb  Sb18  1  0.73134900  0.73729200  0.76722800  1
  Sb  Sb19  1  0.26865100  0.23729200  0.23277200  1
  Sb  Sb20  1  0.02010400  0.50283400  0.11797500  1
  Sb  Sb21  1  0.97989600  0.00283400  0.88202500  1
  Sb  Sb22  1  0.47989600  0.50283400  0.61797500  1
  Sb  Sb23  1  0.52010400  0.00283400  0.38202500  1
  O  O24  1  0.53570700  0.85758600  0.28835400  1
  O  O25  1  0.46429300  0.35758600  0.71164600  1
  O  O26  1  0.96429300  0.85758600  0.78835400  1
  O  O27  1  0.03570700  0.35758600  0.21164600  1
  O  O28  1  0.50105200  0.11669900  0.25886500  1
  O  O29  1  0.49894800  0.61669900  0.74113500  1
  O  O30  1  0.99894800  0.11669900  0.75886500  1
  O  O31  1  0.00105200  0.61669900  0.24113500  1
  O  O32  1  0.98563000  0.86820900  0.24848400  1
  O  O33  1  0.01437000  0.36820900  0.75151600  1
  O  O34  1  0.51437000  0.86820900  0.74848400  1
  O  O35  1  0.48563000  0.36820900  0.25151600  1
  O  O36  1  0.05739900  0.10125400  0.22456200  1
  O  O37  1  0.94260100  0.60125400  0.77543800  1
  O  O38  1  0.44260100  0.10125400  0.72456200  1
  O  O39  1  0.66953800  0.72673200  0.91731800  1
  O  O40  1  0.55739900  0.60125400  0.27543800  1
  O  O41  1  0.78247000  0.47939800  0.60374600  1
  O  O42  1  0.28247000  0.97939800  0.89625400  1
  O  O43  1  0.71753000  0.47939800  0.10374600  1
  O  O44  1  0.82557500  0.03818000  0.38591700  1
  O  O45  1  0.17442500  0.53818000  0.61408300  1
  O  O46  1  0.67442500  0.03818000  0.88591700  1
  O  O47  1  0.32557500  0.53818000  0.11408300  1
  O  O48  1  0.51743600  0.15518200  0.47508500  1
  O  O49  1  0.48256400  0.65518200  0.52491500  1
  O  O50  1  0.98256400  0.15518200  0.97508500  1
  O  O51  1  0.01743600  0.65518200  0.02491500  1
  O  O52  1  0.43378100  0.39755100  0.49314600  1
  O  O53  1  0.56621900  0.89755100  0.50685400  1
  O  O54  1  0.06621900  0.39755100  0.99314600  1
  O  O55  1  0.93378100  0.89755100  0.00685400  1
  O  O56  1  0.18091600  0.25659400  0.38169400  1
  O  O57  1  0.81908400  0.75659400  0.61830600  1
  O  O58  1  0.31908400  0.25659400  0.88169400  1
  O  O59  1  0.68091600  0.75659400  0.11830600  1
  O  O60  1  0.16953800  0.22673200  0.58268200  1
  O  O61  1  0.83046200  0.72673200  0.41731800  1
  O  O62  1  0.33046200  0.22673200  0.08268200  1
  O  O63  1  0.21753000  0.97939800  0.39625400  1
