# generated using pymatgen
data_PrZnPO
_symmetry_space_group_name_H-M   'P 1'
_cell_length_a   4.02469798
_cell_length_b   4.02469798
_cell_length_c   31.40631536
_cell_angle_alpha   90.00000000
_cell_angle_beta   90.00000000
_cell_angle_gamma   120.00000000
_symmetry_Int_Tables_number   1
_chemical_formula_structural   PrZnPO
_chemical_formula_sum   'Pr6 Zn6 P6 O6'
_cell_volume   440.56927801
_cell_formula_units_Z   6
loop_
 _symmetry_equiv_pos_site_id
 _symmetry_equiv_pos_as_xyz
  1  'x, y, z'
loop_
 _atom_site_type_symbol
 _atom_site_label
 _atom_site_symmetry_multiplicity
 _atom_site_fract_x
 _atom_site_fract_y
 _atom_site_fract_z
 _atom_site_occupancy
  Pr  Pr0  1  0.33333333  0.66666667  0.28502867  1
  Pr  Pr1  1  0.33333333  0.66666667  0.04830467  1
  Pr  Pr2  1  0.00000000  0.00000000  0.61836200  1
  Pr  Pr3  1  0.00000000  0.00000000  0.38163800  1
  Pr  Pr4  1  0.66666667  0.33333333  0.95169533  1
  Pr  Pr5  1  0.66666667  0.33333333  0.71497133  1
  Zn  Zn6  1  0.00000000  0.00000000  0.19604000  1
  Zn  Zn7  1  0.66666667  0.33333333  0.13729333  1
  Zn  Zn8  1  0.66666667  0.33333333  0.52937333  1
  Zn  Zn9  1  0.33333333  0.66666667  0.47062667  1
  Zn  Zn10  1  0.33333333  0.66666667  0.86270667  1
  Zn  Zn11  1  0.00000000  0.00000000  0.80396000  1
  P  P12  1  0.00000000  0.00000000  0.11470400  1
  P  P13  1  0.66666667  0.33333333  0.21862933  1
  P  P14  1  0.66666667  0.33333333  0.44803733  1
  P  P15  1  0.33333333  0.66666667  0.55196267  1
  P  P16  1  0.33333333  0.66666667  0.78137067  1
  P  P17  1  0.00000000  0.00000000  0.88529600  1
  O  O18  1  0.66666667  0.33333333  0.02834033  1
  O  O19  1  0.00000000  0.00000000  0.30499300  1
  O  O20  1  0.33333333  0.66666667  0.36167367  1
  O  O21  1  0.66666667  0.33333333  0.63832633  1
  O  O22  1  0.00000000  0.00000000  0.69500700  1
  O  O23  1  0.33333333  0.66666667  0.97165967  1
