# generated using pymatgen
data_Rb2GeB4O9
_symmetry_space_group_name_H-M   'P 1'
_cell_length_a   6.72935500
_cell_length_b   10.06679800
_cell_length_c   13.46842072
_cell_angle_alpha   90.00000000
_cell_angle_beta   90.35513738
_cell_angle_gamma   90.00000000
_symmetry_Int_Tables_number   1
_chemical_formula_structural   Rb2GeB4O9
_chemical_formula_sum   'Rb8 Ge4 B16 O36'
_cell_volume   912.37447218
_cell_formula_units_Z   4
loop_
 _symmetry_equiv_pos_site_id
 _symmetry_equiv_pos_as_xyz
  1  'x, y, z'
loop_
 _atom_site_type_symbol
 _atom_site_label
 _atom_site_symmetry_multiplicity
 _atom_site_fract_x
 _atom_site_fract_y
 _atom_site_fract_z
 _atom_site_occupancy
  Rb  Rb0  1  0.21861500  0.37364100  0.88288300  1
  Rb  Rb1  1  0.78138500  0.87364100  0.11711700  1
  Rb  Rb2  1  0.74375300  0.65858100  0.88052000  1
  Rb  Rb3  1  0.25624700  0.15858100  0.11948000  1
  Rb  Rb4  1  0.22920500  0.15297000  0.63460400  1
  Rb  Rb5  1  0.77079500  0.65297000  0.36539600  1
  Rb  Rb6  1  0.29277600  0.43237400  0.37285500  1
  Rb  Rb7  1  0.70722400  0.93237400  0.62714500  1
  Ge  Ge8  1  0.74352900  0.14813600  0.86945100  1
  Ge  Ge9  1  0.25647100  0.64813600  0.13054900  1
  Ge  Ge10  1  0.24570200  0.65786500  0.61640400  1
  Ge  Ge11  1  0.75429800  0.15786500  0.38359600  1
  B  B12  1  0.40237600  0.98374100  0.83992100  1
  B  B13  1  0.59762400  0.48374100  0.16007900  1
  B  B14  1  0.66146200  0.32282900  0.54431500  1
  B  B15  1  0.33853800  0.82282900  0.45568500  1
  B  B16  1  0.07204200  0.98171600  0.90588100  1
  B  B17  1  0.92795800  0.48171600  0.09411900  1
  B  B18  1  0.80544400  0.32286800  0.70675500  1
  B  B19  1  0.19455600  0.82286800  0.29324500  1
  B  B20  1  0.50891700  0.46010300  0.67342400  1
  B  B21  1  0.49108300  0.96010300  0.32657600  1
  B  B22  1  0.33340000  0.84360800  0.98444600  1
  B  B23  1  0.66660000  0.34360800  0.01555400  1
  B  B24  1  0.04334500  0.96145700  0.42292200  1
  B  B25  1  0.95665500  0.46145700  0.57707800  1
  B  B26  1  0.14152600  0.84917000  0.75631900  1
  B  B27  1  0.85847400  0.34917000  0.24368100  1
  O  O28  1  0.07565800  0.75277600  0.68860300  1
  O  O29  1  0.92434200  0.25277600  0.31139700  1
  O  O30  1  0.59585800  0.24434200  0.95311800  1
  O  O31  1  0.40414200  0.74434200  0.04688200  1
  O  O32  1  0.41342400  0.74346600  0.54055600  1
  O  O33  1  0.58657600  0.24346600  0.45944400  1
  O  O34  1  0.08396800  0.56021900  0.54113900  1
  O  O35  1  0.91603200  0.06021900  0.45886100  1
  O  O36  1  0.90553300  0.05698400  0.94746700  1
  O  O37  1  0.09446700  0.55698400  0.05253300  1
  O  O38  1  0.38707500  0.56488000  0.70476100  1
  O  O39  1  0.61292500  0.06488000  0.29523900  1
  O  O40  1  0.88853500  0.24479800  0.78828500  1
  O  O41  1  0.11146500  0.74479800  0.21171500  1
  O  O42  1  0.56567400  0.06127600  0.79856500  1
  O  O43  1  0.43432600  0.56127600  0.20143500  1
  O  O44  1  0.23648200  0.06448500  0.87376600  1
  O  O45  1  0.76351800  0.56448500  0.12623400  1
  O  O46  1  0.73478000  0.24137800  0.62486700  1
  O  O47  1  0.26522000  0.74137800  0.37513300  1
  O  O48  1  0.48865300  0.40782300  0.57935700  1
  O  O49  1  0.51134700  0.90782300  0.42064300  1
  O  O50  1  0.97372100  0.41279600  0.67178400  1
  O  O51  1  0.02627900  0.91279600  0.32821600  1
  O  O52  1  0.81899300  0.41795600  0.50882700  1
  O  O53  1  0.18100700  0.91795600  0.49117300  1
  O  O54  1  0.33370300  0.89363500  0.75463100  1
  O  O55  1  0.66629700  0.39363500  0.24536900  1
  O  O56  1  0.99950200  0.89490300  0.82049100  1
  O  O57  1  0.00049800  0.39490300  0.17950900  1
  O  O58  1  0.64233600  0.41497300  0.74285900  1
  O  O59  1  0.35766400  0.91497300  0.25714100  1
  O  O60  1  0.47451200  0.89377400  0.92121600  1
  O  O61  1  0.52548800  0.39377400  0.07878400  1
  O  O62  1  0.14020500  0.88753800  0.98751200  1
  O  O63  1  0.85979500  0.38753800  0.01248800  1
