# generated using pymatgen
data_Sr(ScTe2)2
_symmetry_space_group_name_H-M   'P 1'
_cell_length_a   4.25894500
_cell_length_b   13.30724000
_cell_length_c   15.47403800
_cell_angle_alpha   90.00000000
_cell_angle_beta   90.00000000
_cell_angle_gamma   90.00000000
_symmetry_Int_Tables_number   1
_chemical_formula_structural   Sr(ScTe2)2
_chemical_formula_sum   'Sr4 Sc8 Te16'
_cell_volume   876.98805932
_cell_formula_units_Z   4
loop_
 _symmetry_equiv_pos_site_id
 _symmetry_equiv_pos_as_xyz
  1  'x, y, z'
loop_
 _atom_site_type_symbol
 _atom_site_label
 _atom_site_symmetry_multiplicity
 _atom_site_fract_x
 _atom_site_fract_y
 _atom_site_fract_z
 _atom_site_occupancy
  Sr  Sr0  1  0.25000000  0.73827800  0.82652400  1
  Sr  Sr1  1  0.75000000  0.26172200  0.17347600  1
  Sr  Sr2  1  0.25000000  0.23827800  0.67347600  1
  Sr  Sr3  1  0.75000000  0.76172200  0.32652400  1
  Sc  Sc4  1  0.25000000  0.05356800  0.88811200  1
  Sc  Sc5  1  0.75000000  0.94643200  0.11188800  1
  Sc  Sc6  1  0.25000000  0.55356800  0.61188800  1
  Sc  Sc7  1  0.75000000  0.44643200  0.38811200  1
  Sc  Sc8  1  0.75000000  0.91584800  0.59387300  1
  Sc  Sc9  1  0.25000000  0.08415200  0.40612700  1
  Sc  Sc10  1  0.75000000  0.41584800  0.90612700  1
  Sc  Sc11  1  0.25000000  0.58415200  0.09387300  1
  Te  Te12  1  0.75000000  0.90730800  0.92650600  1
  Te  Te13  1  0.25000000  0.09269200  0.07349400  1
  Te  Te14  1  0.75000000  0.40730800  0.57349400  1
  Te  Te15  1  0.25000000  0.59269200  0.42650600  1
  Te  Te16  1  0.75000000  0.70200400  0.65723100  1
  Te  Te17  1  0.25000000  0.29799600  0.34276900  1
  Te  Te18  1  0.75000000  0.20200400  0.84276900  1
  Te  Te19  1  0.25000000  0.79799600  0.15723100  1
  Te  Te20  1  0.75000000  0.62440300  0.96768600  1
  Te  Te21  1  0.25000000  0.37559700  0.03231400  1
  Te  Te22  1  0.75000000  0.12440300  0.53231400  1
  Te  Te23  1  0.25000000  0.87559700  0.46768600  1
  Te  Te24  1  0.75000000  0.53193700  0.21415600  1
  Te  Te25  1  0.25000000  0.46806300  0.78584400  1
  Te  Te26  1  0.75000000  0.03193700  0.28584400  1
  Te  Te27  1  0.25000000  0.96806300  0.71415600  1
