# generated using pymatgen
data_Ba3Y2(B2O5)3
_symmetry_space_group_name_H-M   'P 1'
_cell_length_a   14.43490400
_cell_length_b   14.43490400
_cell_length_c   14.43490400
_cell_angle_alpha   90.00000000
_cell_angle_beta   90.00000000
_cell_angle_gamma   90.00000000
_symmetry_Int_Tables_number   1
_chemical_formula_structural   Ba3Y2(B2O5)3
_chemical_formula_sum   'Ba24 Y16 B48 O120'
_cell_volume   3007.74975294
_cell_formula_units_Z   8
loop_
 _symmetry_equiv_pos_site_id
 _symmetry_equiv_pos_as_xyz
  1  'x, y, z'
loop_
 _atom_site_type_symbol
 _atom_site_label
 _atom_site_symmetry_multiplicity
 _atom_site_fract_x
 _atom_site_fract_y
 _atom_site_fract_z
 _atom_site_occupancy
  Ba  Ba0  1  0.75000000  0.11939300  0.00000000  1
  Ba  Ba1  1  0.25000000  0.38060700  0.00000000  1
  Ba  Ba2  1  0.38060700  0.00000000  0.25000000  1
  Ba  Ba3  1  0.11939300  0.00000000  0.75000000  1
  Ba  Ba4  1  0.00000000  0.75000000  0.11939300  1
  Ba  Ba5  1  0.00000000  0.25000000  0.38060700  1
  Ba  Ba6  1  0.75000000  0.38060700  0.50000000  1
  Ba  Ba7  1  0.25000000  0.11939300  0.50000000  1
  Ba  Ba8  1  0.11939300  0.50000000  0.25000000  1
  Ba  Ba9  1  0.38060700  0.50000000  0.75000000  1
  Ba  Ba10  1  0.50000000  0.75000000  0.38060700  1
  Ba  Ba11  1  0.50000000  0.25000000  0.11939300  1
  Ba  Ba12  1  0.25000000  0.61939300  0.50000000  1
  Ba  Ba13  1  0.75000000  0.88060700  0.50000000  1
  Ba  Ba14  1  0.88060700  0.50000000  0.75000000  1
  Ba  Ba15  1  0.61939300  0.50000000  0.25000000  1
  Ba  Ba16  1  0.50000000  0.25000000  0.61939300  1
  Ba  Ba17  1  0.50000000  0.75000000  0.88060700  1
  Ba  Ba18  1  0.25000000  0.88060700  0.00000000  1
  Ba  Ba19  1  0.75000000  0.61939300  0.00000000  1
  Ba  Ba20  1  0.61939300  0.00000000  0.75000000  1
  Ba  Ba21  1  0.88060700  0.00000000  0.25000000  1
  Ba  Ba22  1  0.00000000  0.25000000  0.88060700  1
  Ba  Ba23  1  0.00000000  0.75000000  0.61939300  1
  Y  Y24  1  0.25000000  0.25000000  0.25000000  1
  Y  Y25  1  0.25000000  0.25000000  0.75000000  1
  Y  Y26  1  0.25000000  0.75000000  0.25000000  1
  Y  Y27  1  0.75000000  0.25000000  0.25000000  1
  Y  Y28  1  0.50000000  0.00000000  0.00000000  1
  Y  Y29  1  0.00000000  0.00000000  0.00000000  1
  Y  Y30  1  0.00000000  0.50000000  0.00000000  1
  Y  Y31  1  0.00000000  0.00000000  0.50000000  1
  Y  Y32  1  0.75000000  0.75000000  0.75000000  1
  Y  Y33  1  0.75000000  0.75000000  0.25000000  1
  Y  Y34  1  0.75000000  0.25000000  0.75000000  1
  Y  Y35  1  0.25000000  0.75000000  0.75000000  1
  Y  Y36  1  0.00000000  0.50000000  0.50000000  1
  Y  Y37  1  0.50000000  0.50000000  0.50000000  1
  Y  Y38  1  0.50000000  0.00000000  0.50000000  1
  Y  Y39  1  0.50000000  0.50000000  0.00000000  1
  B  B40  1  0.18615650  0.36198150  0.44221650  1
  B  B41  1  0.31384350  0.36198150  0.55778350  1
  B  B42  1  0.18615650  0.63801850  0.05778350  1
  B  B43  1  0.31384350  0.63801850  0.94221650  1
  B  B44  1  0.63801850  0.94221650  0.31384350  1
  B  B45  1  0.63801850  0.05778350  0.18615650  1
  B  B46  1  0.36198150  0.55778350  0.31384350  1
  B  B47  1  0.36198150  0.44221650  0.18615650  1
  B  B48  1  0.55778350  0.31384350  0.36198150  1
  B  B49  1  0.44221650  0.18615650  0.36198150  1
  B  B50  1  0.94221650  0.31384350  0.63801850  1
  B  B51  1  0.05778350  0.18615650  0.63801850  1
  B  B52  1  0.31384350  0.13801850  0.05778350  1
  B  B53  1  0.18615650  0.13801850  0.94221650  1
  B  B54  1  0.31384350  0.86198150  0.44221650  1
  B  B55  1  0.18615650  0.86198150  0.55778350  1
  B  B56  1  0.86198150  0.55778350  0.18615650  1
  B  B57  1  0.86198150  0.44221650  0.31384350  1
  B  B58  1  0.13801850  0.94221650  0.18615650  1
  B  B59  1  0.13801850  0.05778350  0.31384350  1
  B  B60  1  0.94221650  0.18615650  0.13801850  1
  B  B61  1  0.05778350  0.31384350  0.13801850  1
  B  B62  1  0.55778350  0.18615650  0.86198150  1
  B  B63  1  0.44221650  0.31384350  0.86198150  1
  B  B64  1  0.68615650  0.86198150  0.94221650  1
  B  B65  1  0.81384350  0.86198150  0.05778350  1
  B  B66  1  0.68615650  0.13801850  0.55778350  1
  B  B67  1  0.81384350  0.13801850  0.44221650  1
  B  B68  1  0.13801850  0.44221650  0.81384350  1
  B  B69  1  0.13801850  0.55778350  0.68615650  1
  B  B70  1  0.86198150  0.05778350  0.81384350  1
  B  B71  1  0.86198150  0.94221650  0.68615650  1
  B  B72  1  0.05778350  0.81384350  0.86198150  1
  B  B73  1  0.94221650  0.68615650  0.86198150  1
  B  B74  1  0.44221650  0.81384350  0.13801850  1
  B  B75  1  0.55778350  0.68615650  0.13801850  1
  B  B76  1  0.81384350  0.63801850  0.55778350  1
  B  B77  1  0.68615650  0.63801850  0.44221650  1
  B  B78  1  0.81384350  0.36198150  0.94221650  1
  B  B79  1  0.68615650  0.36198150  0.05778350  1
  B  B80  1  0.36198150  0.05778350  0.68615650  1
  B  B81  1  0.36198150  0.94221650  0.81384350  1
  B  B82  1  0.63801850  0.44221650  0.68615650  1
  B  B83  1  0.63801850  0.55778350  0.81384350  1
  B  B84  1  0.44221650  0.68615650  0.63801850  1
  B  B85  1  0.55778350  0.81384350  0.63801850  1
  B  B86  1  0.05778350  0.68615650  0.36198150  1
  B  B87  1  0.94221650  0.81384350  0.36198150  1
  O  O88  1  0.20886100  0.27933500  0.40065500  1
  O  O89  1  0.29113900  0.27933500  0.59934500  1
  O  O90  1  0.20886100  0.72066500  0.09934500  1
  O  O91  1  0.79113900  0.22066500  0.40065500  1
  O  O92  1  0.22066500  0.40065500  0.79113900  1
  O  O93  1  0.72066500  0.09934500  0.20886100  1
  O  O94  1  0.27933500  0.59934500  0.29113900  1
  O  O95  1  0.27933500  0.40065500  0.20886100  1
  O  O96  1  0.59934500  0.29113900  0.27933500  1
  O  O97  1  0.40065500  0.20886100  0.27933500  1
  O  O98  1  0.40065500  0.79113900  0.22066500  1
  O  O99  1  0.09934500  0.20886100  0.72066500  1
  O  O100  1  0.29113900  0.22066500  0.09934500  1
  O  O101  1  0.20886100  0.22066500  0.90065500  1
  O  O102  1  0.29113900  0.77933500  0.40065500  1
  O  O103  1  0.70886100  0.27933500  0.09934500  1
  O  O104  1  0.27933500  0.09934500  0.70886100  1
  O  O105  1  0.77933500  0.40065500  0.29113900  1
  O  O106  1  0.22066500  0.90065500  0.20886100  1
  O  O107  1  0.22066500  0.09934500  0.29113900  1
  O  O108  1  0.90065500  0.20886100  0.22066500  1
  O  O109  1  0.09934500  0.29113900  0.22066500  1
  O  O110  1  0.09934500  0.70886100  0.27933500  1
  O  O111  1  0.40065500  0.29113900  0.77933500  1
  O  O112  1  0.25000000  0.40836100  0.50000000  1
  O  O113  1  0.25000000  0.59163900  0.00000000  1
  O  O114  1  0.59163900  0.00000000  0.25000000  1
  O  O115  1  0.40836100  0.50000000  0.25000000  1
  O  O116  1  0.50000000  0.25000000  0.40836100  1
  O  O117  1  0.00000000  0.25000000  0.59163900  1
  O  O118  1  0.25000000  0.09163900  0.00000000  1
  O  O119  1  0.25000000  0.90836100  0.50000000  1
  O  O120  1  0.90836100  0.50000000  0.25000000  1
  O  O121  1  0.09163900  0.00000000  0.25000000  1
  O  O122  1  0.00000000  0.25000000  0.09163900  1
  O  O123  1  0.50000000  0.25000000  0.90836100  1
  O  O124  1  0.10322950  0.40528050  0.42699850  1
  O  O125  1  0.39677050  0.40528050  0.57300150  1
  O  O126  1  0.10322950  0.59471950  0.07300150  1
  O  O127  1  0.39677050  0.59471950  0.92699850  1
  O  O128  1  0.59471950  0.92699850  0.39677050  1
  O  O129  1  0.59471950  0.07300150  0.10322950  1
  O  O130  1  0.40528050  0.57300150  0.39677050  1
  O  O131  1  0.40528050  0.42699850  0.10322950  1
  O  O132  1  0.57300150  0.39677050  0.40528050  1
  O  O133  1  0.42699850  0.10322950  0.40528050  1
  O  O134  1  0.92699850  0.39677050  0.59471950  1
  O  O135  1  0.07300150  0.10322950  0.59471950  1
  O  O136  1  0.39677050  0.09471950  0.07300150  1
  O  O137  1  0.10322950  0.09471950  0.92699850  1
  O  O138  1  0.39677050  0.90528050  0.42699850  1
  O  O139  1  0.10322950  0.90528050  0.57300150  1
  O  O140  1  0.90528050  0.57300150  0.10322950  1
  O  O141  1  0.90528050  0.42699850  0.39677050  1
  O  O142  1  0.09471950  0.92699850  0.10322950  1
  O  O143  1  0.09471950  0.07300150  0.39677050  1
  O  O144  1  0.92699850  0.10322950  0.09471950  1
  O  O145  1  0.07300150  0.39677050  0.09471950  1
  O  O146  1  0.57300150  0.10322950  0.90528050  1
  O  O147  1  0.42699850  0.39677050  0.90528050  1
  O  O148  1  0.70886100  0.77933500  0.90065500  1
  O  O149  1  0.79113900  0.77933500  0.09934500  1
  O  O150  1  0.70886100  0.22066500  0.59934500  1
  O  O151  1  0.29113900  0.72066500  0.90065500  1
  O  O152  1  0.72066500  0.90065500  0.29113900  1
  O  O153  1  0.22066500  0.59934500  0.70886100  1
  O  O154  1  0.77933500  0.09934500  0.79113900  1
  O  O155  1  0.77933500  0.90065500  0.70886100  1
  O  O156  1  0.09934500  0.79113900  0.77933500  1
  O  O157  1  0.90065500  0.70886100  0.77933500  1
  O  O158  1  0.90065500  0.29113900  0.72066500  1
  O  O159  1  0.59934500  0.70886100  0.22066500  1
  O  O160  1  0.79113900  0.72066500  0.59934500  1
  O  O161  1  0.70886100  0.72066500  0.40065500  1
  O  O162  1  0.79113900  0.27933500  0.90065500  1
  O  O163  1  0.20886100  0.77933500  0.59934500  1
  O  O164  1  0.77933500  0.59934500  0.20886100  1
  O  O165  1  0.27933500  0.90065500  0.79113900  1
  O  O166  1  0.72066500  0.40065500  0.70886100  1
  O  O167  1  0.72066500  0.59934500  0.79113900  1
  O  O168  1  0.40065500  0.70886100  0.72066500  1
  O  O169  1  0.59934500  0.79113900  0.72066500  1
  O  O170  1  0.59934500  0.20886100  0.77933500  1
  O  O171  1  0.90065500  0.79113900  0.27933500  1
  O  O172  1  0.75000000  0.90836100  0.00000000  1
  O  O173  1  0.75000000  0.09163900  0.50000000  1
  O  O174  1  0.09163900  0.50000000  0.75000000  1
  O  O175  1  0.90836100  0.00000000  0.75000000  1
  O  O176  1  0.00000000  0.75000000  0.90836100  1
  O  O177  1  0.50000000  0.75000000  0.09163900  1
  O  O178  1  0.75000000  0.59163900  0.50000000  1
  O  O179  1  0.75000000  0.40836100  0.00000000  1
  O  O180  1  0.40836100  0.00000000  0.75000000  1
  O  O181  1  0.59163900  0.50000000  0.75000000  1
  O  O182  1  0.50000000  0.75000000  0.59163900  1
  O  O183  1  0.00000000  0.75000000  0.40836100  1
  O  O184  1  0.60322950  0.90528050  0.92699850  1
  O  O185  1  0.89677050  0.90528050  0.07300150  1
  O  O186  1  0.60322950  0.09471950  0.57300150  1
  O  O187  1  0.89677050  0.09471950  0.42699850  1
  O  O188  1  0.09471950  0.42699850  0.89677050  1
  O  O189  1  0.09471950  0.57300150  0.60322950  1
  O  O190  1  0.90528050  0.07300150  0.89677050  1
  O  O191  1  0.90528050  0.92699850  0.60322950  1
  O  O192  1  0.07300150  0.89677050  0.90528050  1
  O  O193  1  0.92699850  0.60322950  0.90528050  1
  O  O194  1  0.42699850  0.89677050  0.09471950  1
  O  O195  1  0.57300150  0.60322950  0.09471950  1
  O  O196  1  0.89677050  0.59471950  0.57300150  1
  O  O197  1  0.60322950  0.59471950  0.42699850  1
  O  O198  1  0.89677050  0.40528050  0.92699850  1
  O  O199  1  0.60322950  0.40528050  0.07300150  1
  O  O200  1  0.40528050  0.07300150  0.60322950  1
  O  O201  1  0.40528050  0.92699850  0.89677050  1
  O  O202  1  0.59471950  0.42699850  0.60322950  1
  O  O203  1  0.59471950  0.57300150  0.89677050  1
  O  O204  1  0.42699850  0.60322950  0.59471950  1
  O  O205  1  0.57300150  0.89677050  0.59471950  1
  O  O206  1  0.07300150  0.60322950  0.40528050  1
  O  O207  1  0.92699850  0.89677050  0.40528050  1
