# generated using pymatgen
data_CaTi4(PO4)6
_symmetry_space_group_name_H-M   'P 1'
_cell_length_a   8.56178650
_cell_length_b   8.56178650
_cell_length_c   22.10091664
_cell_angle_alpha   90.00000000
_cell_angle_beta   90.00000000
_cell_angle_gamma   120.00000000
_symmetry_Int_Tables_number   1
_chemical_formula_structural   CaTi4(PO4)6
_chemical_formula_sum   'Ca3 Ti12 P18 O72'
_cell_volume   1403.03888025
_cell_formula_units_Z   3
loop_
 _symmetry_equiv_pos_site_id
 _symmetry_equiv_pos_as_xyz
  1  'x, y, z'
loop_
 _atom_site_type_symbol
 _atom_site_label
 _atom_site_symmetry_multiplicity
 _atom_site_fract_x
 _atom_site_fract_y
 _atom_site_fract_z
 _atom_site_occupancy
  Ca  Ca0  1  0.00000000  0.00000000  0.00000000  1
  Ca  Ca1  1  0.66666667  0.33333333  0.33333333  1
  Ca  Ca2  1  0.33333333  0.66666667  0.66666667  1
  Ti  Ti3  1  0.33333333  0.66666667  0.02667567  1
  Ti  Ti4  1  0.00000000  0.00000000  0.14843000  1
  Ti  Ti5  1  0.66666667  0.33333333  0.18490333  1
  Ti  Ti6  1  0.33333333  0.66666667  0.30665767  1
  Ti  Ti7  1  0.00000000  0.00000000  0.36000900  1
  Ti  Ti8  1  0.66666667  0.33333333  0.48176333  1
  Ti  Ti9  1  0.33333333  0.66666667  0.51823667  1
  Ti  Ti10  1  0.00000000  0.00000000  0.63999100  1
  Ti  Ti11  1  0.66666667  0.33333333  0.69334233  1
  Ti  Ti12  1  0.33333333  0.66666667  0.81509667  1
  Ti  Ti13  1  0.00000000  0.00000000  0.85157000  1
  Ti  Ti14  1  0.66666667  0.33333333  0.97332433  1
  P  P15  1  0.71772400  0.71233700  0.25233300  1
  P  P16  1  0.99461300  0.28227600  0.25233300  1
  P  P17  1  0.28766300  0.00538700  0.25233300  1
  P  P18  1  0.94894267  0.62099633  0.08100033  1
  P  P19  1  0.67205367  0.05105733  0.08100033  1
  P  P20  1  0.37900367  0.32794633  0.08100033  1
  P  P21  1  0.38439067  0.04567033  0.58566633  1
  P  P22  1  0.66127967  0.61560933  0.58566633  1
  P  P23  1  0.95432967  0.33872033  0.58566633  1
  P  P24  1  0.61560933  0.95432967  0.41433367  1
  P  P25  1  0.33872033  0.38439067  0.41433367  1
  P  P26  1  0.04567033  0.66127967  0.41433367  1
  P  P27  1  0.05105733  0.37900367  0.91899967  1
  P  P28  1  0.32794633  0.94894267  0.91899967  1
  P  P29  1  0.62099633  0.67205367  0.91899967  1
  P  P30  1  0.28227600  0.28766300  0.74766700  1
  P  P31  1  0.00538700  0.71772400  0.74766700  1
  P  P32  1  0.71233700  0.99461300  0.74766700  1
  O  O33  1  0.17743933  0.45666067  0.25934267  1
  O  O34  1  0.27922133  0.82256067  0.25934267  1
  O  O35  1  0.54333933  0.72077867  0.25934267  1
  O  O36  1  0.48922733  0.87667267  0.07399067  1
  O  O37  1  0.38744533  0.51077267  0.07399067  1
  O  O38  1  0.12332733  0.61255467  0.07399067  1
  O  O39  1  0.99641700  0.82088400  0.08607500  1
  O  O40  1  0.82446700  0.00358300  0.08607500  1
  O  O41  1  0.17911600  0.17553300  0.08607500  1
  O  O42  1  0.67024967  0.51244933  0.24725833  1
  O  O43  1  0.84219967  0.32975033  0.24725833  1
  O  O44  1  0.48130033  0.33662967  0.14003467  1
  O  O45  1  0.66337033  0.14467067  0.14003467  1
  O  O46  1  0.85532933  0.51869967  0.14003467  1
  O  O47  1  0.18536633  0.99670367  0.19329867  1
  O  O48  1  0.00329633  0.18866267  0.19329867  1
  O  O49  1  0.81133733  0.81463367  0.19329867  1
  O  O50  1  0.94741800  0.15557400  0.30680100  1
  O  O51  1  0.84442600  0.79184400  0.30680100  1
  O  O52  1  0.20815600  0.05258200  0.30680100  1
  O  O53  1  0.71924867  0.17775933  0.02653233  1
  O  O54  1  0.82224067  0.54148933  0.02653233  1
  O  O55  1  0.45851067  0.28075133  0.02653233  1
  O  O56  1  0.48755067  0.15780033  0.24725833  1
  O  O57  1  0.84410600  0.78999400  0.59267600  1
  O  O58  1  0.94588800  0.15589400  0.59267600  1
  O  O59  1  0.21000600  0.05411200  0.59267600  1
  O  O60  1  0.15589400  0.21000600  0.40732400  1
  O  O61  1  0.05411200  0.84410600  0.40732400  1
  O  O62  1  0.78999400  0.94588800  0.40732400  1
  O  O63  1  0.66308367  0.15421733  0.41940833  1
  O  O64  1  0.49113367  0.33691633  0.41940833  1
  O  O65  1  0.84578267  0.50886633  0.41940833  1
  O  O66  1  0.33691633  0.84578267  0.58059167  1
  O  O67  1  0.50886633  0.66308367  0.58059167  1
  O  O68  1  0.14796700  0.66996300  0.47336800  1
  O  O69  1  0.33003700  0.47800400  0.47336800  1
  O  O70  1  0.52199600  0.85203300  0.47336800  1
  O  O71  1  0.85203300  0.33003700  0.52663200  1
  O  O72  1  0.66996300  0.52199600  0.52663200  1
  O  O73  1  0.47800400  0.14796700  0.52663200  1
  O  O74  1  0.61408467  0.48890733  0.64013433  1
  O  O75  1  0.51109267  0.12517733  0.64013433  1
  O  O76  1  0.87482267  0.38591533  0.64013433  1
  O  O77  1  0.38591533  0.51109267  0.35986567  1
  O  O78  1  0.48890733  0.87482267  0.35986567  1
  O  O79  1  0.12517733  0.61408467  0.35986567  1
  O  O80  1  0.15421733  0.49113367  0.58059167  1
  O  O81  1  0.51077267  0.12332733  0.92600933  1
  O  O82  1  0.61255467  0.48922733  0.92600933  1
  O  O83  1  0.87667267  0.38744533  0.92600933  1
  O  O84  1  0.82256067  0.54333933  0.74065733  1
  O  O85  1  0.72077867  0.17743933  0.74065733  1
  O  O86  1  0.45666067  0.27922133  0.74065733  1
  O  O87  1  0.32975033  0.48755067  0.75274167  1
  O  O88  1  0.15780033  0.67024967  0.75274167  1
  O  O89  1  0.51244933  0.84219967  0.75274167  1
  O  O90  1  0.00358300  0.17911600  0.91392500  1
  O  O91  1  0.17553300  0.99641700  0.91392500  1
  O  O92  1  0.81463367  0.00329633  0.80670133  1
  O  O93  1  0.99670367  0.81133733  0.80670133  1
  O  O94  1  0.18866267  0.18536633  0.80670133  1
  O  O95  1  0.51869967  0.66337033  0.85996533  1
  O  O96  1  0.33662967  0.85532933  0.85996533  1
  O  O97  1  0.14467067  0.48130033  0.85996533  1
  O  O98  1  0.28075133  0.82224067  0.97346767  1
  O  O99  1  0.17775933  0.45851067  0.97346767  1
  O  O100  1  0.54148933  0.71924867  0.97346767  1
  O  O101  1  0.05258200  0.84442600  0.69319900  1
  O  O102  1  0.15557400  0.20815600  0.69319900  1
  O  O103  1  0.79184400  0.94741800  0.69319900  1
  O  O104  1  0.82088400  0.82446700  0.91392500  1
