# generated using pymatgen
data_LaSnF7
_symmetry_space_group_name_H-M   'P 1'
_cell_length_a   9.39116500
_cell_length_b   5.87197400
_cell_length_c   12.60866382
_cell_angle_alpha   90.00000000
_cell_angle_beta   117.88686491
_cell_angle_gamma   90.00000000
_symmetry_Int_Tables_number   1
_chemical_formula_structural   LaSnF7
_chemical_formula_sum   'La4 Sn4 F28'
_cell_volume   614.55742323
_cell_formula_units_Z   4
loop_
 _symmetry_equiv_pos_site_id
 _symmetry_equiv_pos_as_xyz
  1  'x, y, z'
loop_
 _atom_site_type_symbol
 _atom_site_label
 _atom_site_symmetry_multiplicity
 _atom_site_fract_x
 _atom_site_fract_y
 _atom_site_fract_z
 _atom_site_occupancy
  La  La0  1  0.81106100  0.24186500  0.73491800  1
  La  La1  1  0.18893900  0.74186500  0.76508200  1
  La  La2  1  0.18893900  0.75813500  0.26508200  1
  La  La3  1  0.81106100  0.25813500  0.23491800  1
  Sn  Sn4  1  0.72625600  0.75562800  0.45712600  1
  Sn  Sn5  1  0.27374400  0.25562800  0.04287400  1
  Sn  Sn6  1  0.27374400  0.24437200  0.54287400  1
  Sn  Sn7  1  0.72625600  0.74437200  0.95712600  1
  F  F8  1  0.71512700  0.03728300  0.54360300  1
  F  F9  1  0.28487300  0.53728300  0.95639700  1
  F  F10  1  0.28487300  0.96271700  0.45639700  1
  F  F11  1  0.71512700  0.46271700  0.04360300  1
  F  F12  1  0.70934200  0.94725300  0.07822000  1
  F  F13  1  0.29065800  0.44725300  0.42178000  1
  F  F14  1  0.29065800  0.05274700  0.92178000  1
  F  F15  1  0.70934200  0.55274700  0.57822000  1
  F  F16  1  0.51344700  0.26612900  0.13905500  1
  F  F17  1  0.48655300  0.76612900  0.36094500  1
  F  F18  1  0.48655300  0.73387100  0.86094500  1
  F  F19  1  0.51344700  0.23387100  0.63905500  1
  F  F20  1  0.03365500  0.26046200  0.94811200  1
  F  F21  1  0.96634500  0.76046200  0.55188800  1
  F  F22  1  0.96634500  0.73953800  0.05188800  1
  F  F23  1  0.03365500  0.23953800  0.44811200  1
  F  F24  1  0.74310700  0.95254800  0.33296800  1
  F  F25  1  0.25689300  0.45254800  0.16703200  1
  F  F26  1  0.25689300  0.04745200  0.66703200  1
  F  F27  1  0.74310700  0.54745200  0.83296800  1
  F  F28  1  0.26854900  0.98419800  0.13721900  1
  F  F29  1  0.73145100  0.48419800  0.36278100  1
  F  F30  1  0.73145100  0.01580200  0.86278100  1
  F  F31  1  0.26854900  0.51580200  0.63721900  1
  F  F32  1  0.96890400  0.91460400  0.76735500  1
  F  F33  1  0.03109600  0.41460400  0.73264500  1
  F  F34  1  0.03109600  0.08539600  0.23264500  1
  F  F35  1  0.96890400  0.58539600  0.26735500  1
