# generated using pymatgen
data_SrTb2O4
_symmetry_space_group_name_H-M   'P 1'
_cell_length_a   3.45257100
_cell_length_b   10.19995900
_cell_length_c   12.06163100
_cell_angle_alpha   90.00000000
_cell_angle_beta   90.00000000
_cell_angle_gamma   90.00000000
_symmetry_Int_Tables_number   1
_chemical_formula_structural   SrTb2O4
_chemical_formula_sum   'Sr4 Tb8 O16'
_cell_volume   424.76339412
_cell_formula_units_Z   4
loop_
 _symmetry_equiv_pos_site_id
 _symmetry_equiv_pos_as_xyz
  1  'x, y, z'
loop_
 _atom_site_type_symbol
 _atom_site_label
 _atom_site_symmetry_multiplicity
 _atom_site_fract_x
 _atom_site_fract_y
 _atom_site_fract_z
 _atom_site_occupancy
  Sr  Sr0  1  0.75000000  0.75288400  0.35127300  1
  Sr  Sr1  1  0.25000000  0.24711600  0.64872700  1
  Sr  Sr2  1  0.75000000  0.25288400  0.14872700  1
  Sr  Sr3  1  0.25000000  0.74711600  0.85127300  1
  Tb  Tb4  1  0.25000000  0.07694200  0.38890600  1
  Tb  Tb5  1  0.75000000  0.92305800  0.61109400  1
  Tb  Tb6  1  0.25000000  0.57694200  0.11109400  1
  Tb  Tb7  1  0.75000000  0.42305800  0.88890600  1
  Tb  Tb8  1  0.75000000  0.42252800  0.38786200  1
  Tb  Tb9  1  0.25000000  0.57747200  0.61213800  1
  Tb  Tb10  1  0.75000000  0.92252800  0.11213800  1
  Tb  Tb11  1  0.25000000  0.07747200  0.88786200  1
  O  O12  1  0.25000000  0.07467500  0.07764200  1
  O  O13  1  0.75000000  0.92532500  0.92235800  1
  O  O14  1  0.25000000  0.57467500  0.42235800  1
  O  O15  1  0.75000000  0.42532500  0.57764200  1
  O  O16  1  0.25000000  0.98532600  0.71621200  1
  O  O17  1  0.75000000  0.01467400  0.28378800  1
  O  O18  1  0.25000000  0.48532600  0.78378800  1
  O  O19  1  0.75000000  0.51467400  0.21621200  1
  O  O20  1  0.25000000  0.37403100  0.02036900  1
  O  O21  1  0.75000000  0.62596900  0.97963100  1
  O  O22  1  0.25000000  0.87403100  0.47963100  1
  O  O23  1  0.75000000  0.12596900  0.52036900  1
  O  O24  1  0.75000000  0.21144000  0.82430800  1
  O  O25  1  0.25000000  0.78856000  0.17569200  1
  O  O26  1  0.75000000  0.71144000  0.67569200  1
  O  O27  1  0.25000000  0.28856000  0.32430800  1
