# generated using pymatgen
data_TbCu(BO2)5
_symmetry_space_group_name_H-M   'P 1'
_cell_length_a   6.39515800
_cell_length_b   8.54506400
_cell_length_c   12.78143800
_cell_angle_alpha   90.00000000
_cell_angle_beta   90.00000000
_cell_angle_gamma   90.00000000
_symmetry_Int_Tables_number   1
_chemical_formula_structural   TbCu(BO2)5
_chemical_formula_sum   'Tb4 Cu4 B20 O40'
_cell_volume   698.46768207
_cell_formula_units_Z   4
loop_
 _symmetry_equiv_pos_site_id
 _symmetry_equiv_pos_as_xyz
  1  'x, y, z'
loop_
 _atom_site_type_symbol
 _atom_site_label
 _atom_site_symmetry_multiplicity
 _atom_site_fract_x
 _atom_site_fract_y
 _atom_site_fract_z
 _atom_site_occupancy
  Tb  Tb0  1  0.00000000  0.50000000  0.75000000  1
  Tb  Tb1  1  0.00000000  0.50000000  0.25000000  1
  Tb  Tb2  1  0.50000000  0.00000000  0.25000000  1
  Tb  Tb3  1  0.50000000  0.00000000  0.75000000  1
  Cu  Cu4  1  0.50000000  0.00000000  0.00000000  1
  Cu  Cu5  1  0.00000000  0.50000000  0.00000000  1
  Cu  Cu6  1  0.00000000  0.50000000  0.50000000  1
  Cu  Cu7  1  0.50000000  0.00000000  0.50000000  1
  B  B8  1  0.50000000  0.50000000  0.75000000  1
  B  B9  1  0.50000000  0.50000000  0.25000000  1
  B  B10  1  0.88560300  0.18939800  0.09822000  1
  B  B11  1  0.11439700  0.81060200  0.09822000  1
  B  B12  1  0.38560300  0.31060200  0.90178000  1
  B  B13  1  0.61439700  0.68939800  0.90178000  1
  B  B14  1  0.11439700  0.81060200  0.90178000  1
  B  B15  1  0.88560300  0.18939800  0.90178000  1
  B  B16  1  0.61439700  0.68939800  0.09822000  1
  B  B17  1  0.38560300  0.31060200  0.09822000  1
  B  B18  1  0.00000000  0.00000000  0.25000000  1
  B  B19  1  0.00000000  0.00000000  0.75000000  1
  B  B20  1  0.38560300  0.68939800  0.59822000  1
  B  B21  1  0.61439700  0.31060200  0.59822000  1
  B  B22  1  0.88560300  0.81060200  0.40178000  1
  B  B23  1  0.11439700  0.18939800  0.40178000  1
  B  B24  1  0.61439700  0.31060200  0.40178000  1
  B  B25  1  0.38560300  0.68939800  0.40178000  1
  B  B26  1  0.11439700  0.18939800  0.59822000  1
  B  B27  1  0.88560300  0.81060200  0.59822000  1
  O  O28  1  0.64699900  0.40635400  0.31451600  1
  O  O29  1  0.35300100  0.40635400  0.81451600  1
  O  O30  1  0.35145900  0.37731900  0.00000000  1
  O  O31  1  0.64854100  0.62268100  0.00000000  1
  O  O32  1  0.64699900  0.59364600  0.81451600  1
  O  O33  1  0.85145900  0.12268100  0.00000000  1
  O  O34  1  0.35300100  0.40635400  0.18548400  1
  O  O35  1  0.64699900  0.59364600  0.18548400  1
  O  O36  1  0.64699900  0.40635400  0.68548400  1
  O  O37  1  0.35300100  0.59364600  0.68548400  1
  O  O38  1  0.44158100  0.15890300  0.11046900  1
  O  O39  1  0.55841900  0.84109700  0.11046900  1
  O  O40  1  0.05841900  0.65890300  0.11046900  1
  O  O41  1  0.94158100  0.34109700  0.11046900  1
  O  O42  1  0.44158100  0.15890300  0.88953100  1
  O  O43  1  0.55841900  0.84109700  0.88953100  1
  O  O44  1  0.05841900  0.65890300  0.88953100  1
  O  O45  1  0.94158100  0.34109700  0.88953100  1
  O  O46  1  0.14854100  0.87731900  0.00000000  1
  O  O47  1  0.35300100  0.59364600  0.31451600  1
  O  O48  1  0.14699900  0.90635400  0.81451600  1
  O  O49  1  0.85300100  0.90635400  0.31451600  1
  O  O50  1  0.85145900  0.87731900  0.50000000  1
  O  O51  1  0.14854100  0.12268100  0.50000000  1
  O  O52  1  0.14699900  0.09364600  0.31451600  1
  O  O53  1  0.35145900  0.62268100  0.50000000  1
  O  O54  1  0.85300100  0.90635400  0.68548400  1
  O  O55  1  0.14699900  0.09364600  0.68548400  1
  O  O56  1  0.14699900  0.90635400  0.18548400  1
  O  O57  1  0.85300100  0.09364600  0.18548400  1
  O  O58  1  0.94158100  0.65890300  0.61046900  1
  O  O59  1  0.05841900  0.34109700  0.61046900  1
  O  O60  1  0.55841900  0.15890300  0.61046900  1
  O  O61  1  0.44158100  0.84109700  0.61046900  1
  O  O62  1  0.94158100  0.65890300  0.38953100  1
  O  O63  1  0.05841900  0.34109700  0.38953100  1
  O  O64  1  0.55841900  0.15890300  0.38953100  1
  O  O65  1  0.44158100  0.84109700  0.38953100  1
  O  O66  1  0.64854100  0.37731900  0.50000000  1
  O  O67  1  0.85300100  0.09364600  0.81451600  1
