# generated using pymatgen
data_Rb3SiF7
_symmetry_space_group_name_H-M   'P 1'
_cell_length_a   8.10579900
_cell_length_b   8.10579900
_cell_length_c   5.90475700
_cell_angle_alpha   90.00000000
_cell_angle_beta   90.00000000
_cell_angle_gamma   90.00000000
_symmetry_Int_Tables_number   1
_chemical_formula_structural   Rb3SiF7
_chemical_formula_sum   'Rb6 Si2 F14'
_cell_volume   387.96602065
_cell_formula_units_Z   2
loop_
 _symmetry_equiv_pos_site_id
 _symmetry_equiv_pos_as_xyz
  1  'x, y, z'
loop_
 _atom_site_type_symbol
 _atom_site_label
 _atom_site_symmetry_multiplicity
 _atom_site_fract_x
 _atom_site_fract_y
 _atom_site_fract_z
 _atom_site_occupancy
  Rb  Rb0  1  0.69507100  0.19507100  0.50000000  1
  Rb  Rb1  1  0.80492900  0.69507100  0.50000000  1
  Rb  Rb2  1  0.19507100  0.30492900  0.50000000  1
  Rb  Rb3  1  0.30492900  0.80492900  0.50000000  1
  Rb  Rb4  1  0.50000000  0.50000000  0.00000000  1
  Rb  Rb5  1  0.00000000  0.00000000  0.00000000  1
  Si  Si6  1  0.50000000  0.00000000  0.00000000  1
  Si  Si7  1  0.00000000  0.50000000  0.00000000  1
  F  F8  1  0.89450500  0.39450500  0.79238000  1
  F  F9  1  0.10549500  0.60549500  0.79238000  1
  F  F10  1  0.39450500  0.10549500  0.79238000  1
  F  F11  1  0.60549500  0.89450500  0.79238000  1
  F  F12  1  0.89450500  0.39450500  0.20762000  1
  F  F13  1  0.60549500  0.89450500  0.20762000  1
  F  F14  1  0.39450500  0.10549500  0.20762000  1
  F  F15  1  0.10549500  0.60549500  0.20762000  1
  F  F16  1  0.00000000  0.00000000  0.50000000  1
  F  F17  1  0.50000000  0.50000000  0.50000000  1
  F  F18  1  0.35009500  0.85009500  0.00000000  1
  F  F19  1  0.14990500  0.35009500  0.00000000  1
  F  F20  1  0.85009500  0.64990500  0.00000000  1
  F  F21  1  0.64990500  0.14990500  0.00000000  1
