# generated using pymatgen
data_K2NaZn(BO2)5
_symmetry_space_group_name_H-M   'P 1'
_cell_length_a   8.06122000
_cell_length_b   13.08420600
_cell_length_c   19.64192342
_cell_angle_alpha   90.00000000
_cell_angle_beta   99.41054665
_cell_angle_gamma   90.00000000
_symmetry_Int_Tables_number   1
_chemical_formula_structural   K2NaZn(BO2)5
_chemical_formula_sum   'K16 Na8 Zn8 B40 O80'
_cell_volume   2043.84414392
_cell_formula_units_Z   8
loop_
 _symmetry_equiv_pos_site_id
 _symmetry_equiv_pos_as_xyz
  1  'x, y, z'
loop_
 _atom_site_type_symbol
 _atom_site_label
 _atom_site_symmetry_multiplicity
 _atom_site_fract_x
 _atom_site_fract_y
 _atom_site_fract_z
 _atom_site_occupancy
  K  K0  1  0.09240650  0.09003250  0.43772700  1
  K  K1  1  0.90759350  0.09003250  0.06227300  1
  K  K2  1  0.90759350  0.90996750  0.56227300  1
  K  K3  1  0.09240650  0.90996750  0.93772700  1
  K  K4  1  0.54060250  0.08078050  0.42262800  1
  K  K5  1  0.45939750  0.08078050  0.07737200  1
  K  K6  1  0.45939750  0.91921950  0.57737200  1
  K  K7  1  0.54060250  0.91921950  0.92262800  1
  K  K8  1  0.59240650  0.59003250  0.43772700  1
  K  K9  1  0.40759350  0.59003250  0.06227300  1
  K  K10  1  0.40759350  0.40996750  0.56227300  1
  K  K11  1  0.59240650  0.40996750  0.93772700  1
  K  K12  1  0.04060250  0.58078050  0.42262800  1
  K  K13  1  0.95939750  0.58078050  0.07737200  1
  K  K14  1  0.95939750  0.41921950  0.57737200  1
  K  K15  1  0.04060250  0.41921950  0.92262800  1
  Na  Na16  1  0.50000000  0.34713800  0.25000000  1
  Na  Na17  1  0.50000000  0.65286200  0.75000000  1
  Na  Na18  1  0.50000000  0.84891300  0.25000000  1
  Na  Na19  1  0.50000000  0.15108700  0.75000000  1
  Na  Na20  1  0.00000000  0.84713800  0.25000000  1
  Na  Na21  1  0.00000000  0.15286200  0.75000000  1
  Na  Na22  1  0.00000000  0.34891300  0.25000000  1
  Na  Na23  1  0.00000000  0.65108700  0.75000000  1
  Zn  Zn24  1  0.79797300  0.83960000  0.38946800  1
  Zn  Zn25  1  0.20202700  0.83960000  0.11053200  1
  Zn  Zn26  1  0.20202700  0.16040000  0.61053200  1
  Zn  Zn27  1  0.79797300  0.16040000  0.88946800  1
  Zn  Zn28  1  0.29797300  0.33960000  0.38946800  1
  Zn  Zn29  1  0.70202700  0.33960000  0.11053200  1
  Zn  Zn30  1  0.70202700  0.66040000  0.61053200  1
  Zn  Zn31  1  0.29797300  0.66040000  0.88946800  1
  B  B32  1  0.65802600  0.33710700  0.41661300  1
  B  B33  1  0.34197400  0.33710700  0.08338700  1
  B  B34  1  0.34197400  0.66289300  0.58338700  1
  B  B35  1  0.65802600  0.66289300  0.91661300  1
  B  B36  1  0.46604100  0.83663800  0.41868800  1
  B  B37  1  0.53395900  0.83663800  0.08131200  1
  B  B38  1  0.53395900  0.16336200  0.58131200  1
  B  B39  1  0.46604100  0.16336200  0.91868800  1
  B  B40  1  0.28224350  0.72129550  0.33285900  1
  B  B41  1  0.71775650  0.72129550  0.16714100  1
  B  B42  1  0.71775650  0.27870450  0.66714100  1
  B  B43  1  0.28224350  0.27870450  0.83285900  1
  B  B44  1  0.76337100  0.03453800  0.29558800  1
  B  B45  1  0.23662900  0.03453800  0.20441200  1
  B  B46  1  0.23662900  0.96546200  0.70441200  1
  B  B47  1  0.76337100  0.96546200  0.79558800  1
  B  B48  1  0.73593750  0.16861150  0.20620800  1
  B  B49  1  0.26406250  0.16861150  0.29379200  1
  B  B50  1  0.26406250  0.83138850  0.79379200  1
  B  B51  1  0.73593750  0.83138850  0.70620800  1
  B  B52  1  0.15802600  0.83710700  0.41661300  1
  B  B53  1  0.84197400  0.83710700  0.08338700  1
  B  B54  1  0.84197400  0.16289300  0.58338700  1
  B  B55  1  0.15802600  0.16289300  0.91661300  1
  B  B56  1  0.96604100  0.33663800  0.41868800  1
  B  B57  1  0.03395900  0.33663800  0.08131200  1
  B  B58  1  0.03395900  0.66336200  0.58131200  1
  B  B59  1  0.96604100  0.66336200  0.91868800  1
  B  B60  1  0.78224350  0.22129550  0.33285900  1
  B  B61  1  0.21775650  0.22129550  0.16714100  1
  B  B62  1  0.21775650  0.77870450  0.66714100  1
  B  B63  1  0.78224350  0.77870450  0.83285900  1
  B  B64  1  0.26337100  0.53453800  0.29558800  1
  B  B65  1  0.73662900  0.53453800  0.20441200  1
  B  B66  1  0.73662900  0.46546200  0.70441200  1
  B  B67  1  0.26337100  0.46546200  0.79558800  1
  B  B68  1  0.23593750  0.66861150  0.20620800  1
  B  B69  1  0.76406250  0.66861150  0.29379200  1
  B  B70  1  0.76406250  0.33138850  0.79379200  1
  B  B71  1  0.23593750  0.33138850  0.70620800  1
  O  O72  1  0.52468500  0.37510500  0.44183000  1
  O  O73  1  0.47531500  0.37510500  0.05817000  1
  O  O74  1  0.47531500  0.62489500  0.55817000  1
  O  O75  1  0.52468500  0.62489500  0.94183000  1
  O  O76  1  0.64152550  0.26803350  0.36231000  1
  O  O77  1  0.35847450  0.26803350  0.13769000  1
  O  O78  1  0.35847450  0.73196650  0.63769000  1
  O  O79  1  0.64152550  0.73196650  0.86231000  1
  O  O80  1  0.32222850  0.87103450  0.44556700  1
  O  O81  1  0.67777150  0.87103450  0.05443300  1
  O  O82  1  0.67777150  0.12896550  0.55443300  1
  O  O83  1  0.32222850  0.12896550  0.94556700  1
  O  O84  1  0.44327800  0.76916800  0.36372000  1
  O  O85  1  0.55672200  0.76916800  0.13628000  1
  O  O86  1  0.55672200  0.23083200  0.63628000  1
  O  O87  1  0.44327800  0.23083200  0.86372000  1
  O  O88  1  0.61912000  0.87298200  0.44682300  1
  O  O89  1  0.38088000  0.87298200  0.05317700  1
  O  O90  1  0.38088000  0.12701800  0.55317700  1
  O  O91  1  0.61912000  0.12701800  0.94682300  1
  O  O92  1  0.78882550  0.10955950  0.34681200  1
  O  O93  1  0.21117450  0.10955950  0.15318800  1
  O  O94  1  0.21117450  0.89044050  0.65318800  1
  O  O95  1  0.78882550  0.89044050  0.84681200  1
  O  O96  1  0.75414250  0.24147850  0.25835600  1
  O  O97  1  0.24585750  0.24147850  0.24164400  1
  O  O98  1  0.24585750  0.75852150  0.74164400  1
  O  O99  1  0.75414250  0.75852150  0.75835600  1
  O  O100  1  0.73904300  0.06462500  0.22533900  1
  O  O101  1  0.26095700  0.06462500  0.27466100  1
  O  O102  1  0.26095700  0.93537500  0.77466100  1
  O  O103  1  0.73904300  0.93537500  0.72533900  1
  O  O104  1  0.75907450  0.93396850  0.30915700  1
  O  O105  1  0.24092550  0.93396850  0.19084300  1
  O  O106  1  0.24092550  0.06603150  0.69084300  1
  O  O107  1  0.75907450  0.06603150  0.80915700  1
  O  O108  1  0.71346700  0.19404700  0.13896700  1
  O  O109  1  0.28653300  0.19404700  0.36103300  1
  O  O110  1  0.28653300  0.80595300  0.86103300  1
  O  O111  1  0.71346700  0.80595300  0.63896700  1
  O  O112  1  0.02468500  0.87510500  0.44183000  1
  O  O113  1  0.97531500  0.87510500  0.05817000  1
  O  O114  1  0.97531500  0.12489500  0.55817000  1
  O  O115  1  0.02468500  0.12489500  0.94183000  1
  O  O116  1  0.14152550  0.76803350  0.36231000  1
  O  O117  1  0.85847450  0.76803350  0.13769000  1
  O  O118  1  0.85847450  0.23196650  0.63769000  1
  O  O119  1  0.14152550  0.23196650  0.86231000  1
  O  O120  1  0.82222850  0.37103450  0.44556700  1
  O  O121  1  0.17777150  0.37103450  0.05443300  1
  O  O122  1  0.17777150  0.62896550  0.55443300  1
  O  O123  1  0.82222850  0.62896550  0.94556700  1
  O  O124  1  0.94327800  0.26916800  0.36372000  1
  O  O125  1  0.05672200  0.26916800  0.13628000  1
  O  O126  1  0.05672200  0.73083200  0.63628000  1
  O  O127  1  0.94327800  0.73083200  0.86372000  1
  O  O128  1  0.11912000  0.37298200  0.44682300  1
  O  O129  1  0.88088000  0.37298200  0.05317700  1
  O  O130  1  0.88088000  0.62701800  0.55317700  1
  O  O131  1  0.11912000  0.62701800  0.94682300  1
  O  O132  1  0.28882550  0.60955950  0.34681200  1
  O  O133  1  0.71117450  0.60955950  0.15318800  1
  O  O134  1  0.71117450  0.39044050  0.65318800  1
  O  O135  1  0.28882550  0.39044050  0.84681200  1
  O  O136  1  0.25414250  0.74147850  0.25835600  1
  O  O137  1  0.74585750  0.74147850  0.24164400  1
  O  O138  1  0.74585750  0.25852150  0.74164400  1
  O  O139  1  0.25414250  0.25852150  0.75835600  1
  O  O140  1  0.23904300  0.56462500  0.22533900  1
  O  O141  1  0.76095700  0.56462500  0.27466100  1
  O  O142  1  0.76095700  0.43537500  0.77466100  1
  O  O143  1  0.23904300  0.43537500  0.72533900  1
  O  O144  1  0.25907450  0.43396850  0.30915700  1
  O  O145  1  0.74092550  0.43396850  0.19084300  1
  O  O146  1  0.74092550  0.56603150  0.69084300  1
  O  O147  1  0.25907450  0.56603150  0.80915700  1
  O  O148  1  0.21346700  0.69404700  0.13896700  1
  O  O149  1  0.78653300  0.69404700  0.36103300  1
  O  O150  1  0.78653300  0.30595300  0.86103300  1
  O  O151  1  0.21346700  0.30595300  0.63896700  1
