# generated using pymatgen
data_Cu2HgGeS4
_symmetry_space_group_name_H-M   'P 1'
_cell_length_a   5.55882200
_cell_length_b   5.55882200
_cell_length_c   10.61038600
_cell_angle_alpha   90.00000000
_cell_angle_beta   90.00000000
_cell_angle_gamma   90.00000000
_symmetry_Int_Tables_number   1
_chemical_formula_structural   Cu2HgGeS4
_chemical_formula_sum   'Cu4 Hg2 Ge2 S8'
_cell_volume   327.86625411
_cell_formula_units_Z   2
loop_
 _symmetry_equiv_pos_site_id
 _symmetry_equiv_pos_as_xyz
  1  'x, y, z'
loop_
 _atom_site_type_symbol
 _atom_site_label
 _atom_site_symmetry_multiplicity
 _atom_site_fract_x
 _atom_site_fract_y
 _atom_site_fract_z
 _atom_site_occupancy
  Cu  Cu0  1  0.00000000  0.50000000  0.25000000  1
  Cu  Cu1  1  0.50000000  0.00000000  0.25000000  1
  Cu  Cu2  1  0.50000000  0.00000000  0.75000000  1
  Cu  Cu3  1  0.00000000  0.50000000  0.75000000  1
  Hg  Hg4  1  0.00000000  0.00000000  0.00000000  1
  Hg  Hg5  1  0.50000000  0.50000000  0.50000000  1
  Ge  Ge6  1  0.50000000  0.50000000  0.00000000  1
  Ge  Ge7  1  0.00000000  0.00000000  0.50000000  1
  S  S8  1  0.27451050  0.72548950  0.13585450  1
  S  S9  1  0.22548950  0.22548950  0.36414550  1
  S  S10  1  0.72548950  0.27451050  0.13585450  1
  S  S11  1  0.77451050  0.77451050  0.36414550  1
  S  S12  1  0.77451050  0.22548950  0.63585450  1
  S  S13  1  0.72548950  0.72548950  0.86414550  1
  S  S14  1  0.22548950  0.77451050  0.63585450  1
  S  S15  1  0.27451050  0.27451050  0.86414550  1
