# generated using pymatgen
data_Rb2Pd3S4
_symmetry_space_group_name_H-M   'P 1'
_cell_length_a   6.36915000
_cell_length_b   10.77693800
_cell_length_c   13.39212600
_cell_angle_alpha   90.00000000
_cell_angle_beta   90.00000000
_cell_angle_gamma   90.00000000
_symmetry_Int_Tables_number   1
_chemical_formula_structural   Rb2Pd3S4
_chemical_formula_sum   'Rb8 Pd12 S16'
_cell_volume   919.23465363
_cell_formula_units_Z   4
loop_
 _symmetry_equiv_pos_site_id
 _symmetry_equiv_pos_as_xyz
  1  'x, y, z'
loop_
 _atom_site_type_symbol
 _atom_site_label
 _atom_site_symmetry_multiplicity
 _atom_site_fract_x
 _atom_site_fract_y
 _atom_site_fract_z
 _atom_site_occupancy
  Rb  Rb0  1  0.00000000  0.00000000  0.15864600  1
  Rb  Rb1  1  0.50000000  0.00000000  0.34135400  1
  Rb  Rb2  1  0.00000000  0.50000000  0.65864600  1
  Rb  Rb3  1  0.50000000  0.50000000  0.84135400  1
  Rb  Rb4  1  0.50000000  0.00000000  0.65864600  1
  Rb  Rb5  1  0.00000000  0.00000000  0.84135400  1
  Rb  Rb6  1  0.50000000  0.50000000  0.15864600  1
  Rb  Rb7  1  0.00000000  0.50000000  0.34135400  1
  Pd  Pd8  1  0.50000000  0.00000000  0.00000000  1
  Pd  Pd9  1  0.75000000  0.25000000  0.00000000  1
  Pd  Pd10  1  0.75000000  0.75000000  0.00000000  1
  Pd  Pd11  1  0.50000000  0.50000000  0.50000000  1
  Pd  Pd12  1  0.75000000  0.75000000  0.50000000  1
  Pd  Pd13  1  0.75000000  0.25000000  0.50000000  1
  Pd  Pd14  1  0.00000000  0.00000000  0.50000000  1
  Pd  Pd15  1  0.25000000  0.25000000  0.50000000  1
  Pd  Pd16  1  0.25000000  0.75000000  0.50000000  1
  Pd  Pd17  1  0.00000000  0.50000000  0.00000000  1
  Pd  Pd18  1  0.25000000  0.75000000  0.00000000  1
  Pd  Pd19  1  0.25000000  0.25000000  0.00000000  1
  S  S20  1  0.50000000  0.83191700  0.11464400  1
  S  S21  1  0.00000000  0.16808300  0.38535600  1
  S  S22  1  0.00000000  0.83191700  0.38535600  1
  S  S23  1  0.50000000  0.16808300  0.11464400  1
  S  S24  1  0.50000000  0.33191700  0.61464400  1
  S  S25  1  0.00000000  0.66808300  0.88535600  1
  S  S26  1  0.00000000  0.33191700  0.88535600  1
  S  S27  1  0.50000000  0.66808300  0.61464400  1
  S  S28  1  0.00000000  0.83191700  0.61464400  1
  S  S29  1  0.50000000  0.16808300  0.88535600  1
  S  S30  1  0.50000000  0.83191700  0.88535600  1
  S  S31  1  0.00000000  0.16808300  0.61464400  1
  S  S32  1  0.00000000  0.33191700  0.11464400  1
  S  S33  1  0.50000000  0.66808300  0.38535600  1
  S  S34  1  0.50000000  0.33191700  0.38535600  1
  S  S35  1  0.00000000  0.66808300  0.11464400  1
