# generated using pymatgen
data_BaCo2(AsO4)2
_symmetry_space_group_name_H-M   'P 1'
_cell_length_a   5.06269351
_cell_length_b   5.06269351
_cell_length_c   24.27739900
_cell_angle_alpha   90.00000000
_cell_angle_beta   90.00000000
_cell_angle_gamma   120.00000000
_symmetry_Int_Tables_number   1
_chemical_formula_structural   BaCo2(AsO4)2
_chemical_formula_sum   'Ba3 Co6 As6 O24'
_cell_volume   538.88495768
_cell_formula_units_Z   3
loop_
 _symmetry_equiv_pos_site_id
 _symmetry_equiv_pos_as_xyz
  1  'x, y, z'
loop_
 _atom_site_type_symbol
 _atom_site_label
 _atom_site_symmetry_multiplicity
 _atom_site_fract_x
 _atom_site_fract_y
 _atom_site_fract_z
 _atom_site_occupancy
  Ba  Ba0  1  0.00000000  0.00000000  0.00000000  1
  Ba  Ba1  1  0.66666667  0.33333333  0.33333333  1
  Ba  Ba2  1  0.33333333  0.66666667  0.66666667  1
  Co  Co3  1  0.66666667  0.33333333  0.16375667  1
  Co  Co4  1  0.00000000  0.00000000  0.16957667  1
  Co  Co5  1  0.33333333  0.66666667  0.49709000  1
  Co  Co6  1  0.66666667  0.33333333  0.50291000  1
  Co  Co7  1  0.00000000  0.00000000  0.83042333  1
  Co  Co8  1  0.33333333  0.66666667  0.83624333  1
  As  As9  1  0.33333333  0.66666667  0.09398133  1
  As  As10  1  0.33333333  0.66666667  0.23935200  1
  As  As11  1  0.00000000  0.00000000  0.42731467  1
  As  As12  1  0.00000000  0.00000000  0.57268533  1
  As  As13  1  0.66666667  0.33333333  0.76064800  1
  As  As14  1  0.66666667  0.33333333  0.90601867  1
  O  O15  1  0.33333333  0.66666667  0.02412367  1
  O  O16  1  0.33333333  0.66666667  0.30920967  1
  O  O17  1  0.34370867  0.34341933  0.21746333  1
  O  O18  1  0.99971067  0.65629133  0.21746333  1
  O  O19  1  0.65658067  0.00028933  0.21746333  1
  O  O20  1  0.32295800  0.98991400  0.11587000  1
  O  O21  1  0.66695600  0.67704200  0.11587000  1
  O  O22  1  0.01008600  0.33304400  0.11587000  1
  O  O23  1  0.00000000  0.00000000  0.35745700  1
  O  O24  1  0.00000000  0.00000000  0.64254300  1
  O  O25  1  0.01037533  0.67675267  0.55079667  1
  O  O26  1  0.66637733  0.98962467  0.55079667  1
  O  O27  1  0.32324733  0.33362267  0.55079667  1
  O  O28  1  0.98962467  0.32324733  0.44920333  1
  O  O29  1  0.33362267  0.01037533  0.44920333  1
  O  O30  1  0.67675267  0.66637733  0.44920333  1
  O  O31  1  0.66666667  0.33333333  0.69079033  1
  O  O32  1  0.66666667  0.33333333  0.97587633  1
  O  O33  1  0.67704200  0.01008600  0.88413000  1
  O  O34  1  0.33304400  0.32295800  0.88413000  1
  O  O35  1  0.98991400  0.66695600  0.88413000  1
  O  O36  1  0.65629133  0.65658067  0.78253667  1
  O  O37  1  0.00028933  0.34370867  0.78253667  1
  O  O38  1  0.34341933  0.99971067  0.78253667  1
