# generated using pymatgen
data_CrNiO4
_symmetry_space_group_name_H-M   'P 1'
_cell_length_a   5.52860232
_cell_length_b   8.38227040
_cell_length_c   6.29715600
_cell_angle_alpha   90.00000000
_cell_angle_beta   90.00000000
_cell_angle_gamma   90.00000000
_symmetry_Int_Tables_number   1
_chemical_formula_structural   CrNiO4
_chemical_formula_sum   'Cr4 Ni4 O16'
_cell_volume   291.82431163
_cell_formula_units_Z   4
loop_
 _symmetry_equiv_pos_site_id
 _symmetry_equiv_pos_as_xyz
  1  'x, y, z'
loop_
 _atom_site_type_symbol
 _atom_site_label
 _atom_site_symmetry_multiplicity
 _atom_site_fract_x
 _atom_site_fract_y
 _atom_site_fract_z
 _atom_site_occupancy
  Cr  Cr0  1  0.50000000  0.14326000  0.75000000  1
  Cr  Cr1  1  0.50000000  0.85674000  0.25000000  1
  Cr  Cr2  1  0.00000000  0.64326000  0.75000000  1
  Cr  Cr3  1  0.00000000  0.35674000  0.25000000  1
  Ni  Ni4  1  0.00000000  0.00000000  0.00000000  1
  Ni  Ni5  1  0.00000000  0.00000000  0.50000000  1
  Ni  Ni6  1  0.50000000  0.50000000  0.00000000  1
  Ni  Ni7  1  0.50000000  0.50000000  0.50000000  1
  O  O8  1  0.24477500  0.02754200  0.75000000  1
  O  O9  1  0.75522500  0.97245800  0.25000000  1
  O  O10  1  0.24477500  0.97245800  0.25000000  1
  O  O11  1  0.75522500  0.02754200  0.75000000  1
  O  O12  1  0.50000000  0.25729800  0.96007800  1
  O  O13  1  0.50000000  0.74270200  0.46007800  1
  O  O14  1  0.50000000  0.74270200  0.03992200  1
  O  O15  1  0.50000000  0.25729800  0.53992200  1
  O  O16  1  0.74477500  0.52754200  0.75000000  1
  O  O17  1  0.25522500  0.47245800  0.25000000  1
  O  O18  1  0.74477500  0.47245800  0.25000000  1
  O  O19  1  0.25522500  0.52754200  0.75000000  1
  O  O20  1  0.00000000  0.75729800  0.96007800  1
  O  O21  1  0.00000000  0.24270200  0.46007800  1
  O  O22  1  0.00000000  0.24270200  0.03992200  1
  O  O23  1  0.00000000  0.75729800  0.53992200  1
