# generated using pymatgen
data_TiFeO3
_symmetry_space_group_name_H-M   'P 1'
_cell_length_a   5.16891544
_cell_length_b   5.16891544
_cell_length_c   14.11394384
_cell_angle_alpha   90.00000000
_cell_angle_beta   90.00000000
_cell_angle_gamma   120.00000000
_symmetry_Int_Tables_number   1
_chemical_formula_structural   TiFeO3
_chemical_formula_sum   'Ti6 Fe6 O18'
_cell_volume   326.57119201
_cell_formula_units_Z   6
loop_
 _symmetry_equiv_pos_site_id
 _symmetry_equiv_pos_as_xyz
  1  'x, y, z'
loop_
 _atom_site_type_symbol
 _atom_site_label
 _atom_site_symmetry_multiplicity
 _atom_site_fract_x
 _atom_site_fract_y
 _atom_site_fract_z
 _atom_site_occupancy
  Ti  Ti0  1  0.66666667  0.33333333  0.47949383  1
  Ti  Ti1  1  0.33333333  0.66666667  0.52050617  1
  Ti  Ti2  1  0.33333333  0.66666667  0.81282717  1
  Ti  Ti3  1  0.00000000  0.00000000  0.85383950  1
  Ti  Ti4  1  0.00000000  0.00000000  0.14616050  1
  Ti  Ti5  1  0.66666667  0.33333333  0.18717283  1
  Fe  Fe6  1  0.00000000  0.00000000  0.35532717  1
  Fe  Fe7  1  0.00000000  0.00000000  0.64467283  1
  Fe  Fe8  1  0.66666667  0.33333333  0.68866050  1
  Fe  Fe9  1  0.66666667  0.33333333  0.97800617  1
  Fe  Fe10  1  0.33333333  0.66666667  0.02199383  1
  Fe  Fe11  1  0.33333333  0.66666667  0.31133950  1
  O  O12  1  0.37210117  0.35969483  0.57896083  1
  O  O13  1  0.64030517  0.01240633  0.57896083  1
  O  O14  1  0.98759367  0.62789883  0.57896083  1
  O  O15  1  0.62789883  0.64030517  0.42103917  1
  O  O16  1  0.35969483  0.98759367  0.42103917  1
  O  O17  1  0.01240633  0.37210117  0.42103917  1
  O  O18  1  0.03876783  0.69302817  0.91229417  1
  O  O19  1  0.30697183  0.34573967  0.91229417  1
  O  O20  1  0.65426033  0.96123217  0.91229417  1
  O  O21  1  0.29456550  0.97363850  0.75437250  1
  O  O22  1  0.02636150  0.32092700  0.75437250  1
  O  O23  1  0.67907300  0.70543450  0.75437250  1
  O  O24  1  0.70543450  0.02636150  0.24562750  1
  O  O25  1  0.97363850  0.67907300  0.24562750  1
  O  O26  1  0.32092700  0.29456550  0.24562750  1
  O  O27  1  0.96123217  0.30697183  0.08770583  1
  O  O28  1  0.69302817  0.65426033  0.08770583  1
  O  O29  1  0.34573967  0.03876783  0.08770583  1
