# generated using pymatgen
data_Sr2Ta2O7
_symmetry_space_group_name_H-M   'P 1'
_cell_length_a   3.99051400
_cell_length_b   27.64624200
_cell_length_c   5.75446000
_cell_angle_alpha   90.00000000
_cell_angle_beta   90.00000000
_cell_angle_gamma   90.00000000
_symmetry_Int_Tables_number   1
_chemical_formula_structural   Sr2Ta2O7
_chemical_formula_sum   'Sr8 Ta8 O28'
_cell_volume   634.84765487
_cell_formula_units_Z   4
loop_
 _symmetry_equiv_pos_site_id
 _symmetry_equiv_pos_as_xyz
  1  'x, y, z'
loop_
 _atom_site_type_symbol
 _atom_site_label
 _atom_site_symmetry_multiplicity
 _atom_site_fract_x
 _atom_site_fract_y
 _atom_site_fract_z
 _atom_site_occupancy
  Sr  Sr0  1  0.00000000  0.55337900  0.23748700  1
  Sr  Sr1  1  0.50000000  0.94662100  0.73748700  1
  Sr  Sr2  1  0.00000000  0.71450200  0.75023700  1
  Sr  Sr3  1  0.50000000  0.78549800  0.25023700  1
  Sr  Sr4  1  0.50000000  0.05337900  0.23748700  1
  Sr  Sr5  1  0.00000000  0.44662100  0.73748700  1
  Sr  Sr6  1  0.50000000  0.21450200  0.75023700  1
  Sr  Sr7  1  0.00000000  0.28549800  0.25023700  1
  Ta  Ta8  1  0.50000000  0.55472800  0.73960300  1
  Ta  Ta9  1  0.00000000  0.94527200  0.23960300  1
  Ta  Ta10  1  0.50000000  0.65908600  0.24374500  1
  Ta  Ta11  1  0.00000000  0.84091400  0.74374500  1
  Ta  Ta12  1  0.00000000  0.05472800  0.73960300  1
  Ta  Ta13  1  0.50000000  0.44527200  0.23960300  1
  Ta  Ta14  1  0.00000000  0.15908600  0.24374500  1
  Ta  Ta15  1  0.50000000  0.34091400  0.74374500  1
  O  O16  1  0.00000000  0.79280500  0.51107400  1
  O  O17  1  0.50000000  0.70719500  0.01107400  1
  O  O18  1  0.00000000  0.89911800  0.48719400  1
  O  O19  1  0.50000000  0.60088200  0.98719400  1
  O  O20  1  0.50000000  0.85094200  0.73920200  1
  O  O21  1  0.00000000  0.64905800  0.23920200  1
  O  O22  1  0.50000000  0.95297500  0.23657800  1
  O  O23  1  0.00000000  0.54702500  0.73657800  1
  O  O24  1  0.00000000  0.99809800  0.49557300  1
  O  O25  1  0.50000000  0.50190200  0.99557300  1
  O  O26  1  0.50000000  0.59712600  0.47216000  1
  O  O27  1  0.00000000  0.90287400  0.97216000  1
  O  O28  1  0.50000000  0.70441200  0.48734800  1
  O  O29  1  0.00000000  0.79558800  0.98734800  1
  O  O30  1  0.50000000  0.29280500  0.51107400  1
  O  O31  1  0.00000000  0.20719500  0.01107400  1
  O  O32  1  0.50000000  0.39911800  0.48719400  1
  O  O33  1  0.00000000  0.10088200  0.98719400  1
  O  O34  1  0.00000000  0.35094200  0.73920200  1
  O  O35  1  0.50000000  0.14905800  0.23920200  1
  O  O36  1  0.00000000  0.45297500  0.23657800  1
  O  O37  1  0.50000000  0.04702500  0.73657800  1
  O  O38  1  0.50000000  0.49809800  0.49557300  1
  O  O39  1  0.00000000  0.00190200  0.99557300  1
  O  O40  1  0.00000000  0.09712600  0.47216000  1
  O  O41  1  0.50000000  0.40287400  0.97216000  1
  O  O42  1  0.00000000  0.20441200  0.48734800  1
  O  O43  1  0.50000000  0.29558800  0.98734800  1
