# generated using pymatgen
data_Sr3ErRhO6
_symmetry_space_group_name_H-M   'P 1'
_cell_length_a   9.86587170
_cell_length_b   9.86587170
_cell_length_c   11.38451899
_cell_angle_alpha   90.00000000
_cell_angle_beta   90.00000000
_cell_angle_gamma   120.00000000
_symmetry_Int_Tables_number   1
_chemical_formula_structural   Sr3ErRhO6
_chemical_formula_sum   'Sr18 Er6 Rh6 O36'
_cell_volume   959.65746170
_cell_formula_units_Z   6
loop_
 _symmetry_equiv_pos_site_id
 _symmetry_equiv_pos_as_xyz
  1  'x, y, z'
loop_
 _atom_site_type_symbol
 _atom_site_label
 _atom_site_symmetry_multiplicity
 _atom_site_fract_x
 _atom_site_fract_y
 _atom_site_fract_z
 _atom_site_occupancy
  Sr  Sr0  1  0.03537367  0.70204033  0.58333333  1
  Sr  Sr1  1  0.66666667  0.96462633  0.58333333  1
  Sr  Sr2  1  0.29795967  0.33333333  0.58333333  1
  Sr  Sr3  1  0.96462633  0.29795967  0.41666667  1
  Sr  Sr4  1  0.70204033  0.66666667  0.41666667  1
  Sr  Sr5  1  0.33333333  0.03537367  0.41666667  1
  Sr  Sr6  1  0.70204033  0.03537367  0.91666667  1
  Sr  Sr7  1  0.33333333  0.29795967  0.91666667  1
  Sr  Sr8  1  0.96462633  0.66666667  0.91666667  1
  Sr  Sr9  1  0.63129300  0.63129300  0.75000000  1
  Sr  Sr10  1  0.36870700  0.00000000  0.75000000  1
  Sr  Sr11  1  0.00000000  0.36870700  0.75000000  1
  Sr  Sr12  1  0.36870700  0.36870700  0.25000000  1
  Sr  Sr13  1  0.00000000  0.63129300  0.25000000  1
  Sr  Sr14  1  0.63129300  0.00000000  0.25000000  1
  Sr  Sr15  1  0.29795967  0.96462633  0.08333333  1
  Sr  Sr16  1  0.03537367  0.33333333  0.08333333  1
  Sr  Sr17  1  0.66666667  0.70204033  0.08333333  1
  Er  Er18  1  0.00000000  0.00000000  0.75000000  1
  Er  Er19  1  0.00000000  0.00000000  0.25000000  1
  Er  Er20  1  0.66666667  0.33333333  0.08333333  1
  Er  Er21  1  0.66666667  0.33333333  0.58333333  1
  Er  Er22  1  0.33333333  0.66666667  0.41666667  1
  Er  Er23  1  0.33333333  0.66666667  0.91666667  1
  Rh  Rh24  1  0.00000000  0.00000000  0.50000000  1
  Rh  Rh25  1  0.00000000  0.00000000  0.00000000  1
  Rh  Rh26  1  0.66666667  0.33333333  0.83333333  1
  Rh  Rh27  1  0.66666667  0.33333333  0.33333333  1
  Rh  Rh28  1  0.33333333  0.66666667  0.16666667  1
  Rh  Rh29  1  0.33333333  0.66666667  0.66666667  1
  O  O30  1  0.17792833  0.02170367  0.61420167  1
  O  O31  1  0.97829633  0.15622467  0.61420167  1
  O  O32  1  0.84377533  0.82207167  0.61420167  1
  O  O33  1  0.48955800  0.64496300  0.55246500  1
  O  O34  1  0.35503700  0.84459500  0.55246500  1
  O  O35  1  0.15540500  0.51044200  0.55246500  1
  O  O36  1  0.82207167  0.97829633  0.38579833  1
  O  O37  1  0.02170367  0.84377533  0.38579833  1
  O  O38  1  0.15622467  0.17792833  0.38579833  1
  O  O39  1  0.51044200  0.35503700  0.44753500  1
  O  O40  1  0.84459500  0.48955800  0.44753500  1
  O  O41  1  0.64496300  0.15540500  0.44753500  1
  O  O42  1  0.84459500  0.35503700  0.94753500  1
  O  O43  1  0.64496300  0.48955800  0.94753500  1
  O  O44  1  0.51044200  0.15540500  0.94753500  1
  O  O45  1  0.15622467  0.97829633  0.88579833  1
  O  O46  1  0.02170367  0.17792833  0.88579833  1
  O  O47  1  0.82207167  0.84377533  0.88579833  1
  O  O48  1  0.48873833  0.31162967  0.71913167  1
  O  O49  1  0.68837033  0.17710867  0.71913167  1
  O  O50  1  0.82289133  0.51126167  0.71913167  1
  O  O51  1  0.17710867  0.68837033  0.78086833  1
  O  O52  1  0.51126167  0.82289133  0.78086833  1
  O  O53  1  0.31162967  0.48873833  0.78086833  1
  O  O54  1  0.51126167  0.68837033  0.28086833  1
  O  O55  1  0.31162967  0.82289133  0.28086833  1
  O  O56  1  0.17710867  0.48873833  0.28086833  1
  O  O57  1  0.82289133  0.31162967  0.21913167  1
  O  O58  1  0.68837033  0.51126167  0.21913167  1
  O  O59  1  0.48873833  0.17710867  0.21913167  1
  O  O60  1  0.15540500  0.64496300  0.05246500  1
  O  O61  1  0.35503700  0.51044200  0.05246500  1
  O  O62  1  0.48955800  0.84459500  0.05246500  1
  O  O63  1  0.84377533  0.02170367  0.11420167  1
  O  O64  1  0.17792833  0.15622467  0.11420167  1
  O  O65  1  0.97829633  0.82207167  0.11420167  1
