# generated using pymatgen
data_AlPO4
_symmetry_space_group_name_H-M   'P 1'
_cell_length_a   6.19983200
_cell_length_b   7.60132668
_cell_length_c   8.69773329
_cell_angle_alpha   98.36879828
_cell_angle_beta   104.48430676
_cell_angle_gamma   102.25244665
_symmetry_Int_Tables_number   1
_chemical_formula_structural   AlPO4
_chemical_formula_sum   'Al6 P6 O24'
_cell_volume   379.18778889
_cell_formula_units_Z   6
loop_
 _symmetry_equiv_pos_site_id
 _symmetry_equiv_pos_as_xyz
  1  'x, y, z'
loop_
 _atom_site_type_symbol
 _atom_site_label
 _atom_site_symmetry_multiplicity
 _atom_site_fract_x
 _atom_site_fract_y
 _atom_site_fract_z
 _atom_site_occupancy
  Al  Al0  1  0.23810600  0.31161500  0.58080800  1
  Al  Al1  1  0.76189400  0.68838500  0.41919200  1
  Al  Al2  1  0.53172500  0.10520700  0.78988100  1
  Al  Al3  1  0.46827500  0.89479300  0.21011900  1
  Al  Al4  1  0.01572500  0.70104900  0.97790800  1
  Al  Al5  1  0.98427500  0.29895100  0.02209200  1
  P  P6  1  0.99093500  0.99278200  0.74012600  1
  P  P7  1  0.00906500  0.00721800  0.25987400  1
  P  P8  1  0.80054000  0.40365200  0.65690800  1
  P  P9  1  0.19946000  0.59634800  0.34309200  1
  P  P10  1  0.47795200  0.69931000  0.86960300  1
  P  P11  1  0.52204800  0.30069000  0.13039700  1
  O  O12  1  0.05360600  0.85968800  0.84515800  1
  O  O13  1  0.94639400  0.14031200  0.15484200  1
  O  O14  1  0.22432400  0.12116700  0.73271100  1
  O  O15  1  0.77567600  0.87883300  0.26728900  1
  O  O16  1  0.86361600  0.11973500  0.82665400  1
  O  O17  1  0.13638400  0.88026500  0.17334600  1
  O  O18  1  0.82869000  0.90510000  0.57321900  1
  O  O19  1  0.17131000  0.09490000  0.42678100  1
  O  O20  1  0.93734500  0.47000500  0.84478200  1
  O  O21  1  0.06265500  0.52999500  0.15521800  1
  O  O22  1  0.73869700  0.56099100  0.58331700  1
  O  O23  1  0.26130300  0.43900900  0.41668300  1
  O  O24  1  0.93427200  0.30057900  0.56925800  1
  O  O25  1  0.06572800  0.69942100  0.43074200  1
  O  O26  1  0.56136100  0.26606300  0.64963600  1
  O  O27  1  0.43863900  0.73393700  0.35036400  1
  O  O28  1  0.64493000  0.26864000  0.98908500  1
  O  O29  1  0.35507000  0.73136000  0.01091500  1
  O  O30  1  0.47902800  0.86670100  0.78849000  1
  O  O31  1  0.52097200  0.13329900  0.21151000  1
  O  O32  1  0.71903500  0.69551500  0.96112600  1
  O  O33  1  0.28096500  0.30448500  0.03887400  1
  O  O34  1  0.34425400  0.52153100  0.74936800  1
  O  O35  1  0.65574600  0.47846900  0.25063200  1
