# generated using pymatgen
data_KV(CuSe2)2
_symmetry_space_group_name_H-M   'P 1'
_cell_length_a   5.61032600
_cell_length_b   18.78568600
_cell_length_c   7.70886500
_cell_angle_alpha   90.00000000
_cell_angle_beta   90.00000000
_cell_angle_gamma   90.00000000
_symmetry_Int_Tables_number   1
_chemical_formula_structural   KV(CuSe2)2
_chemical_formula_sum   'K4 V4 Cu8 Se16'
_cell_volume   812.46675021
_cell_formula_units_Z   4
loop_
 _symmetry_equiv_pos_site_id
 _symmetry_equiv_pos_as_xyz
  1  'x, y, z'
loop_
 _atom_site_type_symbol
 _atom_site_label
 _atom_site_symmetry_multiplicity
 _atom_site_fract_x
 _atom_site_fract_y
 _atom_site_fract_z
 _atom_site_occupancy
  K  K0  1  0.98500950  0.81496550  0.25000000  1
  K  K1  1  0.48500950  0.68503450  0.75000000  1
  K  K2  1  0.48500950  0.31496550  0.25000000  1
  K  K3  1  0.98500950  0.18503450  0.75000000  1
  V  V4  1  0.24989400  0.60788800  0.25000000  1
  V  V5  1  0.74989400  0.89211200  0.75000000  1
  V  V6  1  0.74989400  0.10788800  0.25000000  1
  V  V7  1  0.24989400  0.39211200  0.75000000  1
  Cu  Cu8  1  0.73426100  0.00000000  0.50000000  1
  Cu  Cu9  1  0.73426100  0.00000000  0.00000000  1
  Cu  Cu10  1  0.25057900  0.89147000  0.75000000  1
  Cu  Cu11  1  0.75057900  0.60853000  0.25000000  1
  Cu  Cu12  1  0.23426100  0.50000000  0.50000000  1
  Cu  Cu13  1  0.23426100  0.50000000  0.00000000  1
  Cu  Cu14  1  0.75057900  0.39147000  0.75000000  1
  Cu  Cu15  1  0.25057900  0.10853000  0.25000000  1
  Se  Se16  1  0.51218450  0.89001850  0.99897000  1
  Se  Se17  1  0.01218450  0.60998150  0.49897000  1
  Se  Se18  1  0.49454800  0.50462000  0.25000000  1
  Se  Se19  1  0.01218450  0.60998150  0.00103000  1
  Se  Se20  1  0.98301850  0.79103050  0.75000000  1
  Se  Se21  1  0.48301850  0.70896950  0.25000000  1
  Se  Se22  1  0.99454800  0.99538000  0.75000000  1
  Se  Se23  1  0.51218450  0.89001850  0.50103000  1
  Se  Se24  1  0.01218450  0.39001850  0.99897000  1
  Se  Se25  1  0.51218450  0.10998150  0.49897000  1
  Se  Se26  1  0.99454800  0.00462000  0.25000000  1
  Se  Se27  1  0.51218450  0.10998150  0.00103000  1
  Se  Se28  1  0.48301850  0.29103050  0.75000000  1
  Se  Se29  1  0.98301850  0.20896950  0.25000000  1
  Se  Se30  1  0.49454800  0.49538000  0.75000000  1
  Se  Se31  1  0.01218450  0.39001850  0.50103000  1
