# generated using pymatgen
data_Lu2PdO4
_symmetry_space_group_name_H-M   'P 1'
_cell_length_a   5.53462200
_cell_length_b   11.65332000
_cell_length_c   5.53087100
_cell_angle_alpha   90.00000000
_cell_angle_beta   90.00000000
_cell_angle_gamma   90.00000000
_symmetry_Int_Tables_number   1
_chemical_formula_structural   Lu2PdO4
_chemical_formula_sum   'Lu8 Pd4 O16'
_cell_volume   356.72304513
_cell_formula_units_Z   4
loop_
 _symmetry_equiv_pos_site_id
 _symmetry_equiv_pos_as_xyz
  1  'x, y, z'
loop_
 _atom_site_type_symbol
 _atom_site_label
 _atom_site_symmetry_multiplicity
 _atom_site_fract_x
 _atom_site_fract_y
 _atom_site_fract_z
 _atom_site_occupancy
  Lu  Lu0  1  0.00000000  0.33843300  0.00000000  1
  Lu  Lu1  1  0.00000000  0.16156700  0.50000000  1
  Lu  Lu2  1  0.50000000  0.16156700  0.00000000  1
  Lu  Lu3  1  0.50000000  0.33843300  0.50000000  1
  Lu  Lu4  1  0.50000000  0.83843300  0.00000000  1
  Lu  Lu5  1  0.50000000  0.66156700  0.50000000  1
  Lu  Lu6  1  0.00000000  0.66156700  0.00000000  1
  Lu  Lu7  1  0.00000000  0.83843300  0.50000000  1
  Pd  Pd8  1  0.00000000  0.00000000  0.00000000  1
  Pd  Pd9  1  0.50000000  0.00000000  0.50000000  1
  Pd  Pd10  1  0.50000000  0.50000000  0.00000000  1
  Pd  Pd11  1  0.00000000  0.50000000  0.50000000  1
  O  O12  1  0.25939000  0.25000000  0.25000000  1
  O  O13  1  0.74061000  0.25000000  0.75000000  1
  O  O14  1  0.24061000  0.25000000  0.75000000  1
  O  O15  1  0.75939000  0.25000000  0.25000000  1
  O  O16  1  0.16844300  0.00000000  0.33154300  1
  O  O17  1  0.66844300  0.00000000  0.16845700  1
  O  O18  1  0.33155700  0.00000000  0.83154300  1
  O  O19  1  0.83155700  0.00000000  0.66845700  1
  O  O20  1  0.75939000  0.75000000  0.25000000  1
  O  O21  1  0.24061000  0.75000000  0.75000000  1
  O  O22  1  0.74061000  0.75000000  0.75000000  1
  O  O23  1  0.25939000  0.75000000  0.25000000  1
  O  O24  1  0.66844300  0.50000000  0.33154300  1
  O  O25  1  0.16844300  0.50000000  0.16845700  1
  O  O26  1  0.83155700  0.50000000  0.83154300  1
  O  O27  1  0.33155700  0.50000000  0.66845700  1
