# generated using pymatgen
data_BaSmC2O6F
_symmetry_space_group_name_H-M   'P 1'
_cell_length_a   5.06858162
_cell_length_b   5.06858162
_cell_length_c   38.45321052
_cell_angle_alpha   90.00000000
_cell_angle_beta   90.00000000
_cell_angle_gamma   120.00000000
_symmetry_Int_Tables_number   1
_chemical_formula_structural   BaSmC2O6F
_chemical_formula_sum   'Ba6 Sm6 C12 O36 F6'
_cell_volume   855.53173979
_cell_formula_units_Z   6
loop_
 _symmetry_equiv_pos_site_id
 _symmetry_equiv_pos_as_xyz
  1  'x, y, z'
loop_
 _atom_site_type_symbol
 _atom_site_label
 _atom_site_symmetry_multiplicity
 _atom_site_fract_x
 _atom_site_fract_y
 _atom_site_fract_z
 _atom_site_occupancy
  Ba  Ba0  1  0.00000000  0.00000000  0.00000000  1
  Ba  Ba1  1  0.33333333  0.66666667  0.16666667  1
  Ba  Ba2  1  0.66666667  0.33333333  0.33333333  1
  Ba  Ba3  1  1.00000000  1.00000000  0.50000000  1
  Ba  Ba4  1  0.33333333  0.66666667  0.66666667  1
  Ba  Ba5  1  0.66666667  0.33333333  0.83333333  1
  Sm  Sm6  1  0.00000000  0.00000000  0.25490300  1
  Sm  Sm7  1  0.66666667  0.33333333  0.07843033  1
  Sm  Sm8  1  0.66666667  0.33333333  0.58823633  1
  Sm  Sm9  1  0.33333333  0.66666667  0.41176367  1
  Sm  Sm10  1  0.33333333  0.66666667  0.92156967  1
  Sm  Sm11  1  0.00000000  0.00000000  0.74509700  1
  C  C12  1  0.66666667  0.33333333  0.20801333  1
  C  C13  1  0.00000000  0.00000000  0.12532000  1
  C  C14  1  0.33333333  0.66666667  0.27320667  1
  C  C15  1  0.33333333  0.66666667  0.06012667  1
  C  C16  1  0.33333333  0.66666667  0.54134667  1
  C  C17  1  0.66666667  0.33333333  0.45865333  1
  C  C18  1  0.00000000  0.00000000  0.60654000  1
  C  C19  1  0.00000000  0.00000000  0.39346000  1
  C  C20  1  0.00000000  0.00000000  0.87468000  1
  C  C21  1  0.33333333  0.66666667  0.79198667  1
  C  C22  1  0.66666667  0.33333333  0.93987333  1
  C  C23  1  0.66666667  0.33333333  0.72679333  1
  O  O24  1  0.85232033  0.70464067  0.12622867  1
  O  O25  1  0.29535933  0.14767967  0.12622867  1
  O  O26  1  0.62789667  0.81394833  0.06098533  1
  O  O27  1  0.18605167  0.37210333  0.06098533  1
  O  O28  1  0.18605167  0.81394833  0.06098533  1
  O  O29  1  0.48061500  0.51938500  0.27234800  1
  O  O30  1  0.03877000  0.51938500  0.27234800  1
  O  O31  1  0.48061500  0.96123000  0.27234800  1
  O  O32  1  0.37130733  0.18565367  0.20710467  1
  O  O33  1  0.81434633  0.62869267  0.20710467  1
  O  O34  1  0.81434633  0.18565367  0.20710467  1
  O  O35  1  0.85232033  0.14767967  0.12622867  1
  O  O36  1  0.51898700  0.03797400  0.45956200  1
  O  O37  1  0.96202600  0.48101300  0.45956200  1
  O  O38  1  0.29456333  0.14728167  0.39431867  1
  O  O39  1  0.85271833  0.70543667  0.39431867  1
  O  O40  1  0.85271833  0.14728167  0.39431867  1
  O  O41  1  0.14728167  0.85271833  0.60568133  1
  O  O42  1  0.70543667  0.85271833  0.60568133  1
  O  O43  1  0.14728167  0.29456333  0.60568133  1
  O  O44  1  0.03797400  0.51898700  0.54043800  1
  O  O45  1  0.48101300  0.96202600  0.54043800  1
  O  O46  1  0.48101300  0.51898700  0.54043800  1
  O  O47  1  0.51898700  0.48101300  0.45956200  1
  O  O48  1  0.18565367  0.37130733  0.79289533  1
  O  O49  1  0.62869267  0.81434633  0.79289533  1
  O  O50  1  0.96123000  0.48061500  0.72765200  1
  O  O51  1  0.51938500  0.03877000  0.72765200  1
  O  O52  1  0.51938500  0.48061500  0.72765200  1
  O  O53  1  0.81394833  0.18605167  0.93901467  1
  O  O54  1  0.37210333  0.18605167  0.93901467  1
  O  O55  1  0.81394833  0.62789667  0.93901467  1
  O  O56  1  0.70464067  0.85232033  0.87377133  1
  O  O57  1  0.14767967  0.29535933  0.87377133  1
  O  O58  1  0.14767967  0.85232033  0.87377133  1
  O  O59  1  0.18565367  0.81434633  0.79289533  1
  F  F60  1  0.00000000  0.00000000  0.31410900  1
  F  F61  1  0.66666667  0.33333333  0.01922433  1
  F  F62  1  0.66666667  0.33333333  0.64744233  1
  F  F63  1  0.33333333  0.66666667  0.35255767  1
  F  F64  1  0.33333333  0.66666667  0.98077567  1
  F  F65  1  0.00000000  0.00000000  0.68589100  1
