# generated using pymatgen
data_Ag3Ge5P6
_symmetry_space_group_name_H-M   'P 1'
_cell_length_a   10.44339400
_cell_length_b   10.44339400
_cell_length_c   10.44339400
_cell_angle_alpha   90.00000000
_cell_angle_beta   90.00000000
_cell_angle_gamma   90.00000000
_symmetry_Int_Tables_number   1
_chemical_formula_structural   Ag3Ge5P6
_chemical_formula_sum   'Ag12 Ge20 P24'
_cell_volume   1139.00331766
_cell_formula_units_Z   4
loop_
 _symmetry_equiv_pos_site_id
 _symmetry_equiv_pos_as_xyz
  1  'x, y, z'
loop_
 _atom_site_type_symbol
 _atom_site_label
 _atom_site_symmetry_multiplicity
 _atom_site_fract_x
 _atom_site_fract_y
 _atom_site_fract_z
 _atom_site_occupancy
  Ag  Ag0  1  0.00000000  0.80281500  0.00000000  1
  Ag  Ag1  1  0.00000000  0.00000000  0.19718500  1
  Ag  Ag2  1  0.00000000  0.00000000  0.80281500  1
  Ag  Ag3  1  0.19718500  0.00000000  0.00000000  1
  Ag  Ag4  1  0.80281500  0.00000000  0.00000000  1
  Ag  Ag5  1  0.00000000  0.19718500  0.00000000  1
  Ag  Ag6  1  0.50000000  0.30281500  0.50000000  1
  Ag  Ag7  1  0.50000000  0.50000000  0.69718500  1
  Ag  Ag8  1  0.50000000  0.50000000  0.30281500  1
  Ag  Ag9  1  0.69718500  0.50000000  0.50000000  1
  Ag  Ag10  1  0.30281500  0.50000000  0.50000000  1
  Ag  Ag11  1  0.50000000  0.69718500  0.50000000  1
  Ge  Ge12  1  0.25000000  0.50000000  0.00000000  1
  Ge  Ge13  1  0.00000000  0.50000000  0.25000000  1
  Ge  Ge14  1  0.50000000  0.00000000  0.25000000  1
  Ge  Ge15  1  0.00000000  0.25000000  0.50000000  1
  Ge  Ge16  1  0.21106200  0.21106200  0.21106200  1
  Ge  Ge17  1  0.28893800  0.71106200  0.28893800  1
  Ge  Ge18  1  0.71106200  0.28893800  0.28893800  1
  Ge  Ge19  1  0.28893800  0.28893800  0.71106200  1
  Ge  Ge20  1  0.50000000  0.25000000  0.00000000  1
  Ge  Ge21  1  0.25000000  0.00000000  0.50000000  1
  Ge  Ge22  1  0.75000000  0.00000000  0.50000000  1
  Ge  Ge23  1  0.50000000  0.00000000  0.75000000  1
  Ge  Ge24  1  0.00000000  0.50000000  0.75000000  1
  Ge  Ge25  1  0.50000000  0.75000000  0.00000000  1
  Ge  Ge26  1  0.71106200  0.71106200  0.71106200  1
  Ge  Ge27  1  0.78893800  0.21106200  0.78893800  1
  Ge  Ge28  1  0.21106200  0.78893800  0.78893800  1
  Ge  Ge29  1  0.78893800  0.78893800  0.21106200  1
  Ge  Ge30  1  0.00000000  0.75000000  0.50000000  1
  Ge  Ge31  1  0.75000000  0.50000000  0.00000000  1
  P  P32  1  0.37135300  0.37135300  0.13974500  1
  P  P33  1  0.36025500  0.12864700  0.87135300  1
  P  P34  1  0.12864700  0.36025500  0.87135300  1
  P  P35  1  0.12864700  0.63974500  0.12864700  1
  P  P36  1  0.63974500  0.12864700  0.12864700  1
  P  P37  1  0.13974500  0.37135300  0.37135300  1
  P  P38  1  0.37135300  0.13974500  0.37135300  1
  P  P39  1  0.12864700  0.87135300  0.36025500  1
  P  P40  1  0.87135300  0.12864700  0.36025500  1
  P  P41  1  0.12864700  0.12864700  0.63974500  1
  P  P42  1  0.87135300  0.36025500  0.12864700  1
  P  P43  1  0.36025500  0.87135300  0.12864700  1
  P  P44  1  0.87135300  0.87135300  0.63974500  1
  P  P45  1  0.86025500  0.62864700  0.37135300  1
  P  P46  1  0.62864700  0.86025500  0.37135300  1
  P  P47  1  0.62864700  0.13974500  0.62864700  1
  P  P48  1  0.13974500  0.62864700  0.62864700  1
  P  P49  1  0.63974500  0.87135300  0.87135300  1
  P  P50  1  0.87135300  0.63974500  0.87135300  1
  P  P51  1  0.62864700  0.37135300  0.86025500  1
  P  P52  1  0.37135300  0.62864700  0.86025500  1
  P  P53  1  0.62864700  0.62864700  0.13974500  1
  P  P54  1  0.37135300  0.86025500  0.62864700  1
  P  P55  1  0.86025500  0.37135300  0.62864700  1
