# generated using pymatgen
data_Ba2Na(NiO2)3
_symmetry_space_group_name_H-M   'P 1'
_cell_length_a   8.23440600
_cell_length_b   11.40616400
_cell_length_c   14.75317000
_cell_angle_alpha   90.00000000
_cell_angle_beta   90.00000000
_cell_angle_gamma   90.00000000
_symmetry_Int_Tables_number   1
_chemical_formula_structural   Ba2Na(NiO2)3
_chemical_formula_sum   'Ba16 Na8 Ni24 O48'
_cell_volume   1385.66176872
_cell_formula_units_Z   8
loop_
 _symmetry_equiv_pos_site_id
 _symmetry_equiv_pos_as_xyz
  1  'x, y, z'
loop_
 _atom_site_type_symbol
 _atom_site_label
 _atom_site_symmetry_multiplicity
 _atom_site_fract_x
 _atom_site_fract_y
 _atom_site_fract_z
 _atom_site_occupancy
  Ba  Ba0  1  0.75000000  0.75000000  0.25000000  1
  Ba  Ba1  1  0.75000000  0.25000000  0.25000000  1
  Ba  Ba2  1  0.50000000  0.26506100  0.00000000  1
  Ba  Ba3  1  0.50000000  0.73493900  0.00000000  1
  Ba  Ba4  1  0.75000000  0.25000000  0.75000000  1
  Ba  Ba5  1  0.75000000  0.75000000  0.75000000  1
  Ba  Ba6  1  0.50000000  0.76506100  0.50000000  1
  Ba  Ba7  1  0.50000000  0.23493900  0.50000000  1
  Ba  Ba8  1  0.25000000  0.75000000  0.75000000  1
  Ba  Ba9  1  0.25000000  0.25000000  0.75000000  1
  Ba  Ba10  1  0.00000000  0.26506100  0.50000000  1
  Ba  Ba11  1  0.00000000  0.73493900  0.50000000  1
  Ba  Ba12  1  0.25000000  0.25000000  0.25000000  1
  Ba  Ba13  1  0.25000000  0.75000000  0.25000000  1
  Ba  Ba14  1  0.00000000  0.76506100  0.00000000  1
  Ba  Ba15  1  0.00000000  0.23493900  0.00000000  1
  Na  Na16  1  0.00000000  0.00000000  0.33595500  1
  Na  Na17  1  0.50000000  0.00000000  0.16404500  1
  Na  Na18  1  0.00000000  0.50000000  0.83595500  1
  Na  Na19  1  0.50000000  0.50000000  0.66404500  1
  Na  Na20  1  0.50000000  0.00000000  0.83595500  1
  Na  Na21  1  0.00000000  0.00000000  0.66404500  1
  Na  Na22  1  0.50000000  0.50000000  0.33595500  1
  Na  Na23  1  0.00000000  0.50000000  0.16404500  1
  Ni  Ni24  1  0.85720350  0.00000000  0.14501350  1
  Ni  Ni25  1  0.35720350  0.00000000  0.35498650  1
  Ni  Ni26  1  0.14279650  0.00000000  0.14501350  1
  Ni  Ni27  1  0.64279650  0.00000000  0.35498650  1
  Ni  Ni28  1  0.29941800  0.00000000  0.00000000  1
  Ni  Ni29  1  0.70058200  0.00000000  0.00000000  1
  Ni  Ni30  1  0.85720350  0.50000000  0.64501350  1
  Ni  Ni31  1  0.35720350  0.50000000  0.85498650  1
  Ni  Ni32  1  0.14279650  0.50000000  0.64501350  1
  Ni  Ni33  1  0.64279650  0.50000000  0.85498650  1
  Ni  Ni34  1  0.29941800  0.50000000  0.50000000  1
  Ni  Ni35  1  0.70058200  0.50000000  0.50000000  1
  Ni  Ni36  1  0.35720350  0.00000000  0.64501350  1
  Ni  Ni37  1  0.85720350  0.00000000  0.85498650  1
  Ni  Ni38  1  0.64279650  0.00000000  0.64501350  1
  Ni  Ni39  1  0.14279650  0.00000000  0.85498650  1
  Ni  Ni40  1  0.79941800  0.00000000  0.50000000  1
  Ni  Ni41  1  0.20058200  0.00000000  0.50000000  1
  Ni  Ni42  1  0.35720350  0.50000000  0.14501350  1
  Ni  Ni43  1  0.85720350  0.50000000  0.35498650  1
  Ni  Ni44  1  0.64279650  0.50000000  0.14501350  1
  Ni  Ni45  1  0.14279650  0.50000000  0.35498650  1
  Ni  Ni46  1  0.79941800  0.50000000  0.00000000  1
  Ni  Ni47  1  0.20058200  0.50000000  0.00000000  1
  O  O48  1  0.28272850  0.88964700  0.09438950  1
  O  O49  1  0.78272850  0.11035300  0.40561050  1
  O  O50  1  0.21727150  0.88964700  0.40561050  1
  O  O51  1  0.71727150  0.11035300  0.09438950  1
  O  O52  1  0.21727150  0.11035300  0.40561050  1
  O  O53  1  0.71727150  0.88964700  0.09438950  1
  O  O54  1  0.00000000  0.11169000  0.19319700  1
  O  O55  1  0.78272850  0.88964700  0.40561050  1
  O  O56  1  0.00000000  0.88831000  0.19319700  1
  O  O57  1  0.50000000  0.11169000  0.30680300  1
  O  O58  1  0.50000000  0.88831000  0.30680300  1
  O  O59  1  0.28272850  0.11035300  0.09438950  1
  O  O60  1  0.28272850  0.38964700  0.59438950  1
  O  O61  1  0.78272850  0.61035300  0.90561050  1
  O  O62  1  0.21727150  0.38964700  0.90561050  1
  O  O63  1  0.71727150  0.61035300  0.59438950  1
  O  O64  1  0.21727150  0.61035300  0.90561050  1
  O  O65  1  0.71727150  0.38964700  0.59438950  1
  O  O66  1  0.00000000  0.61169000  0.69319700  1
  O  O67  1  0.78272850  0.38964700  0.90561050  1
  O  O68  1  0.00000000  0.38831000  0.69319700  1
  O  O69  1  0.50000000  0.61169000  0.80680300  1
  O  O70  1  0.50000000  0.38831000  0.80680300  1
  O  O71  1  0.28272850  0.61035300  0.59438950  1
  O  O72  1  0.78272850  0.88964700  0.59438950  1
  O  O73  1  0.28272850  0.11035300  0.90561050  1
  O  O74  1  0.71727150  0.88964700  0.90561050  1
  O  O75  1  0.21727150  0.11035300  0.59438950  1
  O  O76  1  0.71727150  0.11035300  0.90561050  1
  O  O77  1  0.21727150  0.88964700  0.59438950  1
  O  O78  1  0.50000000  0.11169000  0.69319700  1
  O  O79  1  0.28272850  0.88964700  0.90561050  1
  O  O80  1  0.50000000  0.88831000  0.69319700  1
  O  O81  1  0.00000000  0.11169000  0.80680300  1
  O  O82  1  0.00000000  0.88831000  0.80680300  1
  O  O83  1  0.78272850  0.11035300  0.59438950  1
  O  O84  1  0.78272850  0.38964700  0.09438950  1
  O  O85  1  0.28272850  0.61035300  0.40561050  1
  O  O86  1  0.71727150  0.38964700  0.40561050  1
  O  O87  1  0.21727150  0.61035300  0.09438950  1
  O  O88  1  0.71727150  0.61035300  0.40561050  1
  O  O89  1  0.21727150  0.38964700  0.09438950  1
  O  O90  1  0.50000000  0.61169000  0.19319700  1
  O  O91  1  0.28272850  0.38964700  0.40561050  1
  O  O92  1  0.50000000  0.38831000  0.19319700  1
  O  O93  1  0.00000000  0.61169000  0.30680300  1
  O  O94  1  0.00000000  0.38831000  0.30680300  1
  O  O95  1  0.78272850  0.61035300  0.09438950  1
