# generated using pymatgen
data_Sr3(SiAs2)2
_symmetry_space_group_name_H-M   'P 1'
_cell_length_a   9.29660600
_cell_length_b   17.00221800
_cell_length_c   7.45636913
_cell_angle_alpha   90.00000000
_cell_angle_beta   122.50202985
_cell_angle_gamma   90.00000000
_symmetry_Int_Tables_number   1
_chemical_formula_structural   Sr3(SiAs2)2
_chemical_formula_sum   'Sr12 Si8 As16'
_cell_volume   993.97805194
_cell_formula_units_Z   4
loop_
 _symmetry_equiv_pos_site_id
 _symmetry_equiv_pos_as_xyz
  1  'x, y, z'
loop_
 _atom_site_type_symbol
 _atom_site_label
 _atom_site_symmetry_multiplicity
 _atom_site_fract_x
 _atom_site_fract_y
 _atom_site_fract_z
 _atom_site_occupancy
  Sr  Sr0  1  0.00000000  0.05893300  0.75000000  1
  Sr  Sr1  1  0.50000000  0.44106700  0.25000000  1
  Sr  Sr2  1  0.00000000  0.43536150  0.25000000  1
  Sr  Sr3  1  0.50000000  0.06463850  0.75000000  1
  Sr  Sr4  1  0.00000000  0.18603150  0.25000000  1
  Sr  Sr5  1  0.50000000  0.31396850  0.75000000  1
  Sr  Sr6  1  0.50000000  0.55893300  0.75000000  1
  Sr  Sr7  1  0.00000000  0.94106700  0.25000000  1
  Sr  Sr8  1  0.50000000  0.93536150  0.25000000  1
  Sr  Sr9  1  0.00000000  0.56463850  0.75000000  1
  Sr  Sr10  1  0.50000000  0.68603150  0.25000000  1
  Sr  Sr11  1  0.00000000  0.81396850  0.75000000  1
  Si  Si12  1  0.34894550  0.17938350  0.15579800  1
  Si  Si13  1  0.65105450  0.17938350  0.34420200  1
  Si  Si14  1  0.15105450  0.32061650  0.84420200  1
  Si  Si15  1  0.84894550  0.32061650  0.65579800  1
  Si  Si16  1  0.84894550  0.67938350  0.15579800  1
  Si  Si17  1  0.15105450  0.67938350  0.34420200  1
  Si  Si18  1  0.65105450  0.82061650  0.84420200  1
  Si  Si19  1  0.34894550  0.82061650  0.65579800  1
  As  As20  1  0.25264850  0.30311050  0.21793000  1
  As  As21  1  0.74735150  0.30311050  0.28207000  1
  As  As22  1  0.74478200  0.06662000  0.25198400  1
  As  As23  1  0.25521800  0.06662000  0.24801600  1
  As  As24  1  0.75521800  0.43338000  0.74801600  1
  As  As25  1  0.24478200  0.43338000  0.75198400  1
  As  As26  1  0.75264850  0.19688950  0.71793000  1
  As  As27  1  0.24735150  0.19688950  0.78207000  1
  As  As28  1  0.75264850  0.80311050  0.21793000  1
  As  As29  1  0.24735150  0.80311050  0.28207000  1
  As  As30  1  0.24478200  0.56662000  0.25198400  1
  As  As31  1  0.75521800  0.56662000  0.24801600  1
  As  As32  1  0.25521800  0.93338000  0.74801600  1
  As  As33  1  0.74478200  0.93338000  0.75198400  1
  As  As34  1  0.25264850  0.69688950  0.71793000  1
  As  As35  1  0.74735150  0.69688950  0.78207000  1
