# generated using pymatgen
data_Sm4Si2Se3O7
_symmetry_space_group_name_H-M   'P 1'
_cell_length_a   12.08573000
_cell_length_b   12.08573000
_cell_length_c   14.34761200
_cell_angle_alpha   90.00000000
_cell_angle_beta   90.00000000
_cell_angle_gamma   90.00000000
_symmetry_Int_Tables_number   1
_chemical_formula_structural   Sm4Si2Se3O7
_chemical_formula_sum   'Sm32 Si16 Se24 O56'
_cell_volume   2095.68207632
_cell_formula_units_Z   8
loop_
 _symmetry_equiv_pos_site_id
 _symmetry_equiv_pos_as_xyz
  1  'x, y, z'
loop_
 _atom_site_type_symbol
 _atom_site_label
 _atom_site_symmetry_multiplicity
 _atom_site_fract_x
 _atom_site_fract_y
 _atom_site_fract_z
 _atom_site_occupancy
  Sm  Sm0  1  0.17254450  0.67254450  0.25000000  1
  Sm  Sm1  1  0.32745550  0.67254450  0.50000000  1
  Sm  Sm2  1  0.67254450  0.32745550  0.50000000  1
  Sm  Sm3  1  0.82745550  0.32745550  0.25000000  1
  Sm  Sm4  1  0.32745550  0.32745550  0.50000000  1
  Sm  Sm5  1  0.17254450  0.32745550  0.25000000  1
  Sm  Sm6  1  0.82745550  0.67254450  0.25000000  1
  Sm  Sm7  1  0.17254450  0.17254450  0.00000000  1
  Sm  Sm8  1  0.26066900  0.50000000  0.04162700  1
  Sm  Sm9  1  0.23933100  0.00000000  0.54162700  1
  Sm  Sm10  1  0.00000000  0.23933100  0.45837300  1
  Sm  Sm11  1  0.50000000  0.23933100  0.29162700  1
  Sm  Sm12  1  0.50000000  0.76066900  0.29162700  1
  Sm  Sm13  1  0.26066900  0.00000000  0.20837300  1
  Sm  Sm14  1  0.73933100  0.00000000  0.20837300  1
  Sm  Sm15  1  0.50000000  0.26066900  0.95837300  1
  Sm  Sm16  1  0.67254450  0.17254450  0.75000000  1
  Sm  Sm17  1  0.82745550  0.17254450  0.00000000  1
  Sm  Sm18  1  0.17254450  0.82745550  0.00000000  1
  Sm  Sm19  1  0.32745550  0.82745550  0.75000000  1
  Sm  Sm20  1  0.82745550  0.82745550  0.00000000  1
  Sm  Sm21  1  0.67254450  0.82745550  0.75000000  1
  Sm  Sm22  1  0.32745550  0.17254450  0.75000000  1
  Sm  Sm23  1  0.67254450  0.67254450  0.50000000  1
  Sm  Sm24  1  0.76066900  0.00000000  0.54162700  1
  Sm  Sm25  1  0.73933100  0.50000000  0.04162700  1
  Sm  Sm26  1  0.50000000  0.73933100  0.95837300  1
  Sm  Sm27  1  0.00000000  0.73933100  0.79162700  1
  Sm  Sm28  1  0.00000000  0.26066900  0.79162700  1
  Sm  Sm29  1  0.76066900  0.50000000  0.70837300  1
  Sm  Sm30  1  0.23933100  0.50000000  0.70837300  1
  Sm  Sm31  1  0.00000000  0.76066900  0.45837300  1
  Si  Si32  1  0.12424700  0.00000000  0.78171800  1
  Si  Si33  1  0.37575300  0.50000000  0.28171800  1
  Si  Si34  1  0.50000000  0.37575300  0.71828200  1
  Si  Si35  1  0.00000000  0.37575300  0.03171800  1
  Si  Si36  1  0.00000000  0.62424700  0.03171800  1
  Si  Si37  1  0.12424700  0.50000000  0.46828200  1
  Si  Si38  1  0.87575300  0.50000000  0.46828200  1
  Si  Si39  1  0.00000000  0.12424700  0.21828200  1
  Si  Si40  1  0.62424700  0.50000000  0.28171800  1
  Si  Si41  1  0.87575300  0.00000000  0.78171800  1
  Si  Si42  1  0.00000000  0.87575300  0.21828200  1
  Si  Si43  1  0.50000000  0.87575300  0.53171800  1
  Si  Si44  1  0.50000000  0.12424700  0.53171800  1
  Si  Si45  1  0.62424700  0.00000000  0.96828200  1
  Si  Si46  1  0.37575300  0.00000000  0.96828200  1
  Si  Si47  1  0.50000000  0.62424700  0.71828200  1
  Se  Se48  1  0.00000000  0.00000000  0.00000000  1
  Se  Se49  1  0.00000000  0.50000000  0.25000000  1
  Se  Se50  1  0.50000000  0.00000000  0.25000000  1
  Se  Se51  1  0.00000000  0.00000000  0.50000000  1
  Se  Se52  1  0.35438500  0.25000000  0.12500000  1
  Se  Se53  1  0.25000000  0.35438500  0.87500000  1
  Se  Se54  1  0.25000000  0.14561500  0.37500000  1
  Se  Se55  1  0.14561500  0.25000000  0.62500000  1
  Se  Se56  1  0.64561500  0.25000000  0.12500000  1
  Se  Se57  1  0.25000000  0.64561500  0.87500000  1
  Se  Se58  1  0.25000000  0.85438500  0.37500000  1
  Se  Se59  1  0.85438500  0.25000000  0.62500000  1
  Se  Se60  1  0.50000000  0.50000000  0.50000000  1
  Se  Se61  1  0.50000000  0.00000000  0.75000000  1
  Se  Se62  1  0.00000000  0.50000000  0.75000000  1
  Se  Se63  1  0.50000000  0.50000000  0.00000000  1
  Se  Se64  1  0.85438500  0.75000000  0.62500000  1
  Se  Se65  1  0.75000000  0.85438500  0.37500000  1
  Se  Se66  1  0.75000000  0.64561500  0.87500000  1
  Se  Se67  1  0.64561500  0.75000000  0.12500000  1
  Se  Se68  1  0.14561500  0.75000000  0.62500000  1
  Se  Se69  1  0.75000000  0.14561500  0.37500000  1
  Se  Se70  1  0.75000000  0.35438500  0.87500000  1
  Se  Se71  1  0.35438500  0.75000000  0.12500000  1
  O  O72  1  0.00000000  0.00000000  0.26656000  1
  O  O73  1  0.50000000  0.00000000  0.01656000  1
  O  O74  1  0.50000000  0.00000000  0.48344000  1
  O  O75  1  0.00000000  0.00000000  0.73344000  1
  O  O76  1  0.27176300  0.50000000  0.20566500  1
  O  O77  1  0.22823700  0.00000000  0.70566500  1
  O  O78  1  0.00000000  0.22823700  0.29433500  1
  O  O79  1  0.50000000  0.22823700  0.45566500  1
  O  O80  1  0.50000000  0.77176300  0.45566500  1
  O  O81  1  0.27176300  0.00000000  0.04433500  1
  O  O82  1  0.72823700  0.00000000  0.04433500  1
  O  O83  1  0.50000000  0.27176300  0.79433500  1
  O  O84  1  0.14067100  0.38019000  0.41556500  1
  O  O85  1  0.35932900  0.11981000  0.91556500  1
  O  O86  1  0.11981000  0.35932900  0.08443500  1
  O  O87  1  0.38019000  0.35932900  0.66556500  1
  O  O88  1  0.11981000  0.14067100  0.16556500  1
  O  O89  1  0.14067100  0.11981000  0.83443500  1
  O  O90  1  0.35932900  0.38019000  0.33443500  1
  O  O91  1  0.38019000  0.14067100  0.58443500  1
  O  O92  1  0.35932900  0.61981000  0.33443500  1
  O  O93  1  0.14067100  0.88019000  0.83443500  1
  O  O94  1  0.88019000  0.14067100  0.16556500  1
  O  O95  1  0.11981000  0.64067100  0.08443500  1
  O  O96  1  0.38019000  0.85932900  0.58443500  1
  O  O97  1  0.85932900  0.38019000  0.41556500  1
  O  O98  1  0.64067100  0.11981000  0.91556500  1
  O  O99  1  0.61981000  0.35932900  0.66556500  1
  O  O100  1  0.50000000  0.50000000  0.76656000  1
  O  O101  1  0.00000000  0.50000000  0.51656000  1
  O  O102  1  0.00000000  0.50000000  0.98344000  1
  O  O103  1  0.50000000  0.50000000  0.23344000  1
  O  O104  1  0.77176300  0.00000000  0.70566500  1
  O  O105  1  0.72823700  0.50000000  0.20566500  1
  O  O106  1  0.50000000  0.72823700  0.79433500  1
  O  O107  1  0.00000000  0.72823700  0.95566500  1
  O  O108  1  0.00000000  0.27176300  0.95566500  1
  O  O109  1  0.77176300  0.50000000  0.54433500  1
  O  O110  1  0.22823700  0.50000000  0.54433500  1
  O  O111  1  0.00000000  0.77176300  0.29433500  1
  O  O112  1  0.64067100  0.88019000  0.91556500  1
  O  O113  1  0.85932900  0.61981000  0.41556500  1
  O  O114  1  0.61981000  0.85932900  0.58443500  1
  O  O115  1  0.88019000  0.85932900  0.16556500  1
  O  O116  1  0.61981000  0.64067100  0.66556500  1
  O  O117  1  0.64067100  0.61981000  0.33443500  1
  O  O118  1  0.85932900  0.88019000  0.83443500  1
  O  O119  1  0.88019000  0.64067100  0.08443500  1
  O  O120  1  0.85932900  0.11981000  0.83443500  1
  O  O121  1  0.64067100  0.38019000  0.33443500  1
  O  O122  1  0.38019000  0.64067100  0.66556500  1
  O  O123  1  0.61981000  0.14067100  0.58443500  1
  O  O124  1  0.88019000  0.35932900  0.08443500  1
  O  O125  1  0.35932900  0.88019000  0.91556500  1
  O  O126  1  0.14067100  0.61981000  0.41556500  1
  O  O127  1  0.11981000  0.85932900  0.16556500  1
