# generated using pymatgen
data_LiSbS2
_symmetry_space_group_name_H-M   'P 1'
_cell_length_a   14.05684583
_cell_length_b   14.05684583
_cell_length_c   9.43255140
_cell_angle_alpha   90.00000000
_cell_angle_beta   90.00000000
_cell_angle_gamma   120.00000000
_symmetry_Int_Tables_number   1
_chemical_formula_structural   LiSbS2
_chemical_formula_sum   'Li18 Sb18 S36'
_cell_volume   1614.11909439
_cell_formula_units_Z   18
loop_
 _symmetry_equiv_pos_site_id
 _symmetry_equiv_pos_as_xyz
  1  'x, y, z'
loop_
 _atom_site_type_symbol
 _atom_site_label
 _atom_site_symmetry_multiplicity
 _atom_site_fract_x
 _atom_site_fract_y
 _atom_site_fract_z
 _atom_site_occupancy
  Li  Li0  1  0.25667967  0.91009933  0.65671533  1
  Li  Li1  1  0.74332033  0.08990067  0.34328467  1
  Li  Li2  1  0.34658033  0.25667967  0.34328467  1
  Li  Li3  1  0.91009933  0.65341967  0.34328467  1
  Li  Li4  1  0.65341967  0.74332033  0.65671533  1
  Li  Li5  1  0.08990067  0.34658033  0.65671533  1
  Li  Li6  1  0.92334633  0.24343267  0.99004867  1
  Li  Li7  1  0.40998700  0.42323400  0.67661800  1
  Li  Li8  1  0.01324700  0.59001300  0.67661800  1
  Li  Li9  1  0.57676600  0.98675300  0.67661800  1
  Li  Li10  1  0.32008633  0.07665367  0.99004867  1
  Li  Li11  1  0.75656733  0.67991367  0.99004867  1
  Li  Li12  1  0.59001300  0.57676600  0.32338200  1
  Li  Li13  1  0.07665367  0.75656733  0.00995133  1
  Li  Li14  1  0.67991367  0.92334633  0.00995133  1
  Li  Li15  1  0.24343267  0.32008633  0.00995133  1
  Li  Li16  1  0.98675300  0.40998700  0.32338200  1
  Li  Li17  1  0.42323400  0.01324700  0.32338200  1
  Sb  Sb18  1  0.17366700  0.12101700  0.67910300  1
  Sb  Sb19  1  0.94735000  0.82633300  0.67910300  1
  Sb  Sb20  1  0.87898300  0.05265000  0.67910300  1
  Sb  Sb21  1  0.82633300  0.87898300  0.32089700  1
  Sb  Sb22  1  0.05265000  0.17366700  0.32089700  1
  Sb  Sb23  1  0.12101700  0.94735000  0.32089700  1
  Sb  Sb24  1  0.84033367  0.45435033  0.01243633  1
  Sb  Sb25  1  0.61401667  0.15966633  0.01243633  1
  Sb  Sb26  1  0.54564967  0.38598333  0.01243633  1
  Sb  Sb27  1  0.49299967  0.21231633  0.65423033  1
  Sb  Sb28  1  0.71931667  0.50700033  0.65423033  1
  Sb  Sb29  1  0.78768367  0.28068333  0.65423033  1
  Sb  Sb30  1  0.50700033  0.78768367  0.34576967  1
  Sb  Sb31  1  0.28068333  0.49299967  0.34576967  1
  Sb  Sb32  1  0.21231633  0.71931667  0.34576967  1
  Sb  Sb33  1  0.15966633  0.54564967  0.98756367  1
  Sb  Sb34  1  0.38598333  0.84033367  0.98756367  1
  Sb  Sb35  1  0.45435033  0.61401667  0.98756367  1
  S  S36  1  0.90761567  0.24529733  0.50436233  1
  S  S37  1  0.75470267  0.66231833  0.50436233  1
  S  S38  1  0.66231833  0.90761567  0.49563767  1
  S  S39  1  0.33768167  0.09238433  0.50436233  1
  S  S40  1  0.09238433  0.75470267  0.49563767  1
  S  S41  1  0.24529733  0.33768167  0.49563767  1
  S  S42  1  0.95144933  0.82204867  0.18591267  1
  S  S43  1  0.17795133  0.12940067  0.18591267  1
  S  S44  1  0.87059933  0.04855067  0.18591267  1
  S  S45  1  0.04855067  0.17795133  0.81408733  1
  S  S46  1  0.82204867  0.87059933  0.81408733  1
  S  S47  1  0.12940067  0.95144933  0.81408733  1
  S  S48  1  0.57428233  0.57863067  0.83769567  1
  S  S49  1  0.42136933  0.99565167  0.83769567  1
  S  S50  1  0.32898500  0.24094900  0.82897100  1
  S  S51  1  0.00434833  0.42571767  0.83769567  1
  S  S52  1  0.75905100  0.08803600  0.82897100  1
  S  S53  1  0.91196400  0.67101500  0.82897100  1
  S  S54  1  0.61811600  0.15538200  0.51924600  1
  S  S55  1  0.84461800  0.46273400  0.51924600  1
  S  S56  1  0.53726600  0.38188400  0.51924600  1
  S  S57  1  0.71521733  0.51128467  0.14742067  1
  S  S58  1  0.48871533  0.20393267  0.14742067  1
  S  S59  1  0.79606733  0.28478267  0.14742067  1
  S  S60  1  0.24094900  0.91196400  0.17102900  1
  S  S61  1  0.08803600  0.32898500  0.17102900  1
  S  S62  1  0.99565167  0.57428233  0.16230433  1
  S  S63  1  0.67101500  0.75905100  0.17102900  1
  S  S64  1  0.42571767  0.42136933  0.16230433  1
  S  S65  1  0.57863067  0.00434833  0.16230433  1
  S  S66  1  0.28478267  0.48871533  0.85257933  1
  S  S67  1  0.51128467  0.79606733  0.85257933  1
  S  S68  1  0.20393267  0.71521733  0.85257933  1
  S  S69  1  0.38188400  0.84461800  0.48075400  1
  S  S70  1  0.15538200  0.53726600  0.48075400  1
  S  S71  1  0.46273400  0.61811600  0.48075400  1
