# generated using pymatgen
data_Cs3SiF7
_symmetry_space_group_name_H-M   'P 1'
_cell_length_a   8.47418600
_cell_length_b   8.47418600
_cell_length_c   6.24047000
_cell_angle_alpha   90.00000000
_cell_angle_beta   90.00000000
_cell_angle_gamma   90.00000000
_symmetry_Int_Tables_number   1
_chemical_formula_structural   Cs3SiF7
_chemical_formula_sum   'Cs6 Si2 F14'
_cell_volume   448.13956054
_cell_formula_units_Z   2
loop_
 _symmetry_equiv_pos_site_id
 _symmetry_equiv_pos_as_xyz
  1  'x, y, z'
loop_
 _atom_site_type_symbol
 _atom_site_label
 _atom_site_symmetry_multiplicity
 _atom_site_fract_x
 _atom_site_fract_y
 _atom_site_fract_z
 _atom_site_occupancy
  Cs  Cs0  1  0.69560000  0.19560000  0.50000000  1
  Cs  Cs1  1  0.80440000  0.69560000  0.50000000  1
  Cs  Cs2  1  0.19560000  0.30440000  0.50000000  1
  Cs  Cs3  1  0.30440000  0.80440000  0.50000000  1
  Cs  Cs4  1  0.50000000  0.50000000  0.00000000  1
  Cs  Cs5  1  0.00000000  0.00000000  0.00000000  1
  Si  Si6  1  0.50000000  0.00000000  0.00000000  1
  Si  Si7  1  0.00000000  0.50000000  0.00000000  1
  F  F8  1  0.89861300  0.39861300  0.80371400  1
  F  F9  1  0.10138700  0.60138700  0.80371400  1
  F  F10  1  0.39861300  0.10138700  0.80371400  1
  F  F11  1  0.60138700  0.89861300  0.80371400  1
  F  F12  1  0.89861300  0.39861300  0.19628600  1
  F  F13  1  0.60138700  0.89861300  0.19628600  1
  F  F14  1  0.39861300  0.10138700  0.19628600  1
  F  F15  1  0.10138700  0.60138700  0.19628600  1
  F  F16  1  0.00000000  0.00000000  0.50000000  1
  F  F17  1  0.50000000  0.50000000  0.50000000  1
  F  F18  1  0.35638200  0.85638200  0.00000000  1
  F  F19  1  0.14361800  0.35638200  0.00000000  1
  F  F20  1  0.85638200  0.64361800  0.00000000  1
  F  F21  1  0.64361800  0.14361800  0.00000000  1
