# generated using pymatgen
data_BaY4Si5O17
_symmetry_space_group_name_H-M   'P 1'
_cell_length_a   5.59546500
_cell_length_b   20.02954200
_cell_length_c   6.94933943
_cell_angle_alpha   90.00000000
_cell_angle_beta   106.68374229
_cell_angle_gamma   90.00000000
_symmetry_Int_Tables_number   1
_chemical_formula_structural   BaY4Si5O17
_chemical_formula_sum   'Ba2 Y8 Si10 O34'
_cell_volume   746.05820545
_cell_formula_units_Z   2
loop_
 _symmetry_equiv_pos_site_id
 _symmetry_equiv_pos_as_xyz
  1  'x, y, z'
loop_
 _atom_site_type_symbol
 _atom_site_label
 _atom_site_symmetry_multiplicity
 _atom_site_fract_x
 _atom_site_fract_y
 _atom_site_fract_z
 _atom_site_occupancy
  Ba  Ba0  1  0.24423700  0.25000000  0.80959900  1
  Ba  Ba1  1  0.75576300  0.75000000  0.19040100  1
  Y  Y2  1  0.30176000  0.46122500  0.11745900  1
  Y  Y3  1  0.69824000  0.96122500  0.88254100  1
  Y  Y4  1  0.69824000  0.53877500  0.88254100  1
  Y  Y5  1  0.30176000  0.03877500  0.11745900  1
  Y  Y6  1  0.64769200  0.34183300  0.48180500  1
  Y  Y7  1  0.35230800  0.84183300  0.51819500  1
  Y  Y8  1  0.35230800  0.65816700  0.51819500  1
  Y  Y9  1  0.64769200  0.15816700  0.48180500  1
  Si  Si10  1  0.06342800  0.25000000  0.28098700  1
  Si  Si11  1  0.93657200  0.75000000  0.71901300  1
  Si  Si12  1  0.77133800  0.36425800  0.00795500  1
  Si  Si13  1  0.22866200  0.86425800  0.99204500  1
  Si  Si14  1  0.22866200  0.63574200  0.99204500  1
  Si  Si15  1  0.77133800  0.13574200  0.00795500  1
  Si  Si16  1  0.19616100  0.43926400  0.59479500  1
  Si  Si17  1  0.80383900  0.93926400  0.40520500  1
  Si  Si18  1  0.80383900  0.56073600  0.40520500  1
  Si  Si19  1  0.19616100  0.06073600  0.59479500  1
  O  O20  1  0.86707400  0.25000000  0.41635700  1
  O  O21  1  0.13292600  0.75000000  0.58364300  1
  O  O22  1  0.35594000  0.25000000  0.41774900  1
  O  O23  1  0.64406000  0.75000000  0.58225100  1
  O  O24  1  0.01697900  0.31608200  0.13058500  1
  O  O25  1  0.98302100  0.81608200  0.86941500  1
  O  O26  1  0.98302100  0.68391800  0.86941500  1
  O  O27  1  0.01697900  0.18391800  0.13058500  1
  O  O28  1  0.63814800  0.32672000  0.79710000  1
  O  O29  1  0.36185200  0.82672000  0.20290000  1
  O  O30  1  0.36185200  0.67328000  0.20290000  1
  O  O31  1  0.63814800  0.17328000  0.79710000  1
  O  O32  1  0.89798100  0.43642600  0.98328500  1
  O  O33  1  0.10201900  0.93642600  0.01671500  1
  O  O34  1  0.10201900  0.56357400  0.01671500  1
  O  O35  1  0.89798100  0.06357400  0.98328500  1
  O  O36  1  0.57963400  0.37052400  0.14850300  1
  O  O37  1  0.42036600  0.87052400  0.85149700  1
  O  O38  1  0.42036600  0.62947600  0.85149700  1
  O  O39  1  0.57963400  0.12947600  0.14850300  1
  O  O40  1  0.04192500  0.37217200  0.61492100  1
  O  O41  1  0.95807500  0.87217200  0.38507900  1
  O  O42  1  0.95807500  0.62782800  0.38507900  1
  O  O43  1  0.04192500  0.12782800  0.61492100  1
  O  O44  1  0.37452400  0.46578200  0.81246200  1
  O  O45  1  0.62547600  0.96578200  0.18753800  1
  O  O46  1  0.62547600  0.53421800  0.18753800  1
  O  O47  1  0.37452400  0.03421800  0.81246200  1
  O  O48  1  0.00000000  0.50000000  0.50000000  1
  O  O49  1  0.00000000  0.00000000  0.50000000  1
  O  O50  1  0.36872200  0.42667300  0.44024000  1
  O  O51  1  0.63127800  0.92667300  0.55976000  1
  O  O52  1  0.63127800  0.57332700  0.55976000  1
  O  O53  1  0.36872200  0.07332700  0.44024000  1
