# generated using pymatgen
data_Ba9Y2(SiO4)6
_symmetry_space_group_name_H-M   'P 1'
_cell_length_a   10.17444582
_cell_length_b   10.17444582
_cell_length_c   22.48613893
_cell_angle_alpha   90.00000000
_cell_angle_beta   90.00000000
_cell_angle_gamma   120.00000000
_symmetry_Int_Tables_number   1
_chemical_formula_structural   Ba9Y2(SiO4)6
_chemical_formula_sum   'Ba27 Y6 Si18 O72'
_cell_volume   2015.89100941
_cell_formula_units_Z   3
loop_
 _symmetry_equiv_pos_site_id
 _symmetry_equiv_pos_as_xyz
  1  'x, y, z'
loop_
 _atom_site_type_symbol
 _atom_site_label
 _atom_site_symmetry_multiplicity
 _atom_site_fract_x
 _atom_site_fract_y
 _atom_site_fract_z
 _atom_site_occupancy
  Ba  Ba0  1  0.00000000  0.00000000  0.00000000  1
  Ba  Ba1  1  0.33333333  0.66666667  0.32882267  1
  Ba  Ba2  1  0.33333333  0.66666667  0.00451067  1
  Ba  Ba3  1  0.33742567  0.36463333  0.22456433  1
  Ba  Ba4  1  0.63536667  0.97279233  0.22456433  1
  Ba  Ba5  1  0.02720767  0.66257433  0.22456433  1
  Ba  Ba6  1  0.32924100  0.96870000  0.10876900  1
  Ba  Ba7  1  0.03130000  0.36054100  0.10876900  1
  Ba  Ba8  1  0.63945900  0.67075900  0.10876900  1
  Ba  Ba9  1  0.66666667  0.33333333  0.33333333  1
  Ba  Ba10  1  0.00000000  0.00000000  0.66215600  1
  Ba  Ba11  1  0.00000000  0.00000000  0.33784400  1
  Ba  Ba12  1  0.00409233  0.69796667  0.55789767  1
  Ba  Ba13  1  0.30203333  0.30612567  0.55789767  1
  Ba  Ba14  1  0.69387433  0.99590767  0.55789767  1
  Ba  Ba15  1  0.99590767  0.30203333  0.44210233  1
  Ba  Ba16  1  0.69796667  0.69387433  0.44210233  1
  Ba  Ba17  1  0.30612567  0.00409233  0.44210233  1
  Ba  Ba18  1  0.33333333  0.66666667  0.66666667  1
  Ba  Ba19  1  0.66666667  0.33333333  0.99548933  1
  Ba  Ba20  1  0.66666667  0.33333333  0.67117733  1
  Ba  Ba21  1  0.67075900  0.03130000  0.89123100  1
  Ba  Ba22  1  0.96870000  0.63945900  0.89123100  1
  Ba  Ba23  1  0.36054100  0.32924100  0.89123100  1
  Ba  Ba24  1  0.66257433  0.63536667  0.77543567  1
  Ba  Ba25  1  0.36463333  0.02720767  0.77543567  1
  Ba  Ba26  1  0.97279233  0.33742567  0.77543567  1
  Y  Y27  1  0.33333333  0.66666667  0.50261467  1
  Y  Y28  1  0.33333333  0.66666667  0.83071867  1
  Y  Y29  1  0.00000000  0.00000000  0.83594800  1
  Y  Y30  1  0.00000000  0.00000000  0.16405200  1
  Y  Y31  1  0.66666667  0.33333333  0.16928133  1
  Y  Y32  1  0.66666667  0.33333333  0.49738533  1
  Si  Si33  1  0.68780533  0.67230767  0.25958867  1
  Si  Si34  1  0.32769233  0.01549767  0.25958867  1
  Si  Si35  1  0.98450233  0.31219467  0.25958867  1
  Si  Si36  1  0.97886133  0.66102567  0.07374467  1
  Si  Si37  1  0.33897433  0.31783567  0.07374467  1
  Si  Si38  1  0.68216433  0.02113867  0.07374467  1
  Si  Si39  1  0.35447200  0.00564100  0.59292200  1
  Si  Si40  1  0.99435900  0.34883100  0.59292200  1
  Si  Si41  1  0.65116900  0.64552800  0.59292200  1
  Si  Si42  1  0.64552800  0.99435900  0.40707800  1
  Si  Si43  1  0.00564100  0.65116900  0.40707800  1
  Si  Si44  1  0.34883100  0.35447200  0.40707800  1
  Si  Si45  1  0.02113867  0.33897433  0.92625533  1
  Si  Si46  1  0.66102567  0.68216433  0.92625533  1
  Si  Si47  1  0.31783567  0.97886133  0.92625533  1
  Si  Si48  1  0.31219467  0.32769233  0.74041133  1
  Si  Si49  1  0.67230767  0.98450233  0.74041133  1
  Si  Si50  1  0.01549767  0.68780533  0.74041133  1
  O  O51  1  0.06561433  0.36078767  0.99609567  1
  O  O52  1  0.63921233  0.70482667  0.99609567  1
  O  O53  1  0.29517333  0.93438567  0.99609567  1
  O  O54  1  0.60105233  0.97254567  0.33723767  1
  O  O55  1  0.02745433  0.62850667  0.33723767  1
  O  O56  1  0.37149333  0.39894767  0.33723767  1
  O  O57  1  0.15921633  0.48440167  0.88832967  1
  O  O58  1  0.51559833  0.67481467  0.88832967  1
  O  O59  1  0.32518533  0.84078367  0.88832967  1
  O  O60  1  0.50745033  0.84893167  0.44500367  1
  O  O61  1  0.15106833  0.65851867  0.44500367  1
  O  O62  1  0.34148133  0.49254967  0.44500367  1
  O  O63  1  0.83814267  0.32488233  0.23226433  1
  O  O64  1  0.67511767  0.51326033  0.23226433  1
  O  O65  1  0.48673967  0.16185733  0.23226433  1
  O  O66  1  0.82852400  0.00845100  0.10106900  1
  O  O67  1  0.99154900  0.82007300  0.10106900  1
  O  O68  1  0.17992700  0.17147600  0.10106900  1
  O  O69  1  0.13989967  0.46987433  0.24063333  1
  O  O70  1  0.53012567  0.67002533  0.24063333  1
  O  O71  1  0.32997467  0.86010033  0.24063333  1
  O  O72  1  0.52676700  0.86345900  0.09270000  1
  O  O73  1  0.13654100  0.66330800  0.09270000  1
  O  O74  1  0.33669200  0.47323300  0.09270000  1
  O  O75  1  0.73228100  0.69412100  0.32942900  1
  O  O76  1  0.30587900  0.03816000  0.32942900  1
  O  O77  1  0.96184000  0.26771900  0.32942900  1
  O  O78  1  0.26771900  0.30587900  0.67057100  1
  O  O79  1  0.69412100  0.96184000  0.67057100  1
  O  O80  1  0.03816000  0.73228100  0.67057100  1
  O  O81  1  0.82588300  0.81773500  0.22166300  1
  O  O82  1  0.18226500  0.00814800  0.22166300  1
  O  O83  1  0.99185200  0.17411700  0.22166300  1
  O  O84  1  0.17411700  0.18226500  0.77833700  1
  O  O85  1  0.81773500  0.99185200  0.77833700  1
  O  O86  1  0.00814800  0.82588300  0.77833700  1
  O  O87  1  0.50480933  0.65821567  0.56559767  1
  O  O88  1  0.34178433  0.84659367  0.56559767  1
  O  O89  1  0.15340633  0.49519067  0.56559767  1
  O  O90  1  0.49519067  0.34178433  0.43440233  1
  O  O91  1  0.65821567  0.15340633  0.43440233  1
  O  O92  1  0.84659367  0.50480933  0.43440233  1
  O  O93  1  0.80656633  0.80320767  0.57396667  1
  O  O94  1  0.19679233  0.00335867  0.57396667  1
  O  O95  1  0.99664133  0.19343367  0.57396667  1
  O  O96  1  0.19343367  0.19679233  0.42603333  1
  O  O97  1  0.80320767  0.99664133  0.42603333  1
  O  O98  1  0.00335867  0.80656633  0.42603333  1
  O  O99  1  0.39894767  0.02745433  0.66276233  1
  O  O100  1  0.97254567  0.37149333  0.66276233  1
  O  O101  1  0.62850667  0.60105233  0.66276233  1
  O  O102  1  0.93438567  0.63921233  0.00390433  1
  O  O103  1  0.36078767  0.29517333  0.00390433  1
  O  O104  1  0.70482667  0.06561433  0.00390433  1
  O  O105  1  0.49254967  0.15106833  0.55499633  1
  O  O106  1  0.84893167  0.34148133  0.55499633  1
  O  O107  1  0.65851867  0.50745033  0.55499633  1
  O  O108  1  0.84078367  0.51559833  0.11167033  1
  O  O109  1  0.48440167  0.32518533  0.11167033  1
  O  O110  1  0.67481467  0.15921633  0.11167033  1
  O  O111  1  0.17147600  0.99154900  0.89893100  1
  O  O112  1  0.00845100  0.17992700  0.89893100  1
  O  O113  1  0.82007300  0.82852400  0.89893100  1
  O  O114  1  0.16185733  0.67511767  0.76773567  1
  O  O115  1  0.32488233  0.48673967  0.76773567  1
  O  O116  1  0.51326033  0.83814267  0.76773567  1
  O  O117  1  0.47323300  0.13654100  0.90730000  1
  O  O118  1  0.86345900  0.33669200  0.90730000  1
  O  O119  1  0.66330800  0.52676700  0.90730000  1
  O  O120  1  0.86010033  0.53012567  0.75936667  1
  O  O121  1  0.46987433  0.32997467  0.75936667  1
  O  O122  1  0.67002533  0.13989967  0.75936667  1
