# generated using pymatgen
data_K2Na3P3O10
_symmetry_space_group_name_H-M   'P 1'
_cell_length_a   10.00984600
_cell_length_b   5.70251400
_cell_length_c   18.89277909
_cell_angle_alpha   90.00000000
_cell_angle_beta   96.18457992
_cell_angle_gamma   90.00000000
_symmetry_Int_Tables_number   1
_chemical_formula_structural   K2Na3P3O10
_chemical_formula_sum   'K8 Na12 P12 O40'
_cell_volume   1072.14770945
_cell_formula_units_Z   4
loop_
 _symmetry_equiv_pos_site_id
 _symmetry_equiv_pos_as_xyz
  1  'x, y, z'
loop_
 _atom_site_type_symbol
 _atom_site_label
 _atom_site_symmetry_multiplicity
 _atom_site_fract_x
 _atom_site_fract_y
 _atom_site_fract_z
 _atom_site_occupancy
  K  K0  1  0.90552750  0.72790350  0.42262000  1
  K  K1  1  0.59447250  0.22790350  0.07738000  1
  K  K2  1  0.59447250  0.77209650  0.57738000  1
  K  K3  1  0.90552750  0.27209650  0.92262000  1
  K  K4  1  0.40552750  0.22790350  0.42262000  1
  K  K5  1  0.09447250  0.72790350  0.07738000  1
  K  K6  1  0.09447250  0.27209650  0.57738000  1
  K  K7  1  0.40552750  0.77209650  0.92262000  1
  Na  Na8  1  0.78172050  0.30812050  0.67226900  1
  Na  Na9  1  0.71827950  0.80812050  0.82773100  1
  Na  Na10  1  0.71827950  0.19187950  0.32773100  1
  Na  Na11  1  0.78172050  0.69187950  0.17226900  1
  Na  Na12  1  0.75000000  0.25000000  0.50000000  1
  Na  Na13  1  0.75000000  0.75000000  0.00000000  1
  Na  Na14  1  0.28172050  0.80812050  0.67226900  1
  Na  Na15  1  0.21827950  0.30812050  0.82773100  1
  Na  Na16  1  0.21827950  0.69187950  0.32773100  1
  Na  Na17  1  0.28172050  0.19187950  0.17226900  1
  Na  Na18  1  0.25000000  0.75000000  0.50000000  1
  Na  Na19  1  0.25000000  0.25000000  0.00000000  1
  P  P20  1  0.93215900  0.77081900  0.60131200  1
  P  P21  1  0.56784100  0.27081900  0.89868800  1
  P  P22  1  0.56784100  0.72918100  0.39868800  1
  P  P23  1  0.93215900  0.22918100  0.10131200  1
  P  P24  1  0.00000000  0.90437100  0.75000000  1
  P  P25  1  0.00000000  0.09562900  0.25000000  1
  P  P26  1  0.43215900  0.27081900  0.60131200  1
  P  P27  1  0.06784100  0.77081900  0.89868800  1
  P  P28  1  0.06784100  0.22918100  0.39868800  1
  P  P29  1  0.43215900  0.72918100  0.10131200  1
  P  P30  1  0.50000000  0.40437100  0.75000000  1
  P  P31  1  0.50000000  0.59562900  0.25000000  1
  O  O32  1  0.57297750  0.27567450  0.57687200  1
  O  O33  1  0.92702250  0.77567450  0.92312800  1
  O  O34  1  0.92702250  0.22432550  0.42312800  1
  O  O35  1  0.57297750  0.72432550  0.07687200  1
  O  O36  1  0.84893500  0.55904200  0.57339300  1
  O  O37  1  0.65106500  0.05904200  0.92660700  1
  O  O38  1  0.65106500  0.94095800  0.42660700  1
  O  O39  1  0.84893500  0.44095800  0.07339300  1
  O  O40  1  0.85751600  0.00475300  0.59365300  1
  O  O41  1  0.64248400  0.50475300  0.90634700  1
  O  O42  1  0.64248400  0.49524700  0.40634700  1
  O  O43  1  0.85751600  0.99524700  0.09365300  1
  O  O44  1  0.95481900  0.71352800  0.68873500  1
  O  O45  1  0.54518100  0.21352800  0.81126500  1
  O  O46  1  0.54518100  0.78647200  0.31126500  1
  O  O47  1  0.95481900  0.28647200  0.18873500  1
  O  O48  1  0.62051650  0.54224050  0.73081600  1
  O  O49  1  0.87948350  0.04224050  0.76918400  1
  O  O50  1  0.87948350  0.95775950  0.26918400  1
  O  O51  1  0.62051650  0.45775950  0.23081600  1
  O  O52  1  0.07297750  0.77567450  0.57687200  1
  O  O53  1  0.42702250  0.27567450  0.92312800  1
  O  O54  1  0.42702250  0.72432550  0.42312800  1
  O  O55  1  0.07297750  0.22432550  0.07687200  1
  O  O56  1  0.34893500  0.05904200  0.57339300  1
  O  O57  1  0.15106500  0.55904200  0.92660700  1
  O  O58  1  0.15106500  0.44095800  0.42660700  1
  O  O59  1  0.34893500  0.94095800  0.07339300  1
  O  O60  1  0.35751600  0.50475300  0.59365300  1
  O  O61  1  0.14248400  0.00475300  0.90634700  1
  O  O62  1  0.14248400  0.99524700  0.40634700  1
  O  O63  1  0.35751600  0.49524700  0.09365300  1
  O  O64  1  0.45481900  0.21352800  0.68873500  1
  O  O65  1  0.04518100  0.71352800  0.81126500  1
  O  O66  1  0.04518100  0.28647200  0.31126500  1
  O  O67  1  0.45481900  0.78647200  0.18873500  1
  O  O68  1  0.12051650  0.04224050  0.73081600  1
  O  O69  1  0.37948350  0.54224050  0.76918400  1
  O  O70  1  0.37948350  0.45775950  0.26918400  1
  O  O71  1  0.12051650  0.95775950  0.23081600  1
