# generated using pymatgen
data_CaSi2NiO6
_symmetry_space_group_name_H-M   'P 1'
_cell_length_a   9.86672115
_cell_length_b   8.99332738
_cell_length_c   5.29502915
_cell_angle_alpha   90.00000000
_cell_angle_beta   106.10266615
_cell_angle_gamma   90.00000000
_symmetry_Int_Tables_number   1
_chemical_formula_structural   CaSi2NiO6
_chemical_formula_sum   'Ca4 Si8 Ni4 O24'
_cell_volume   451.41849806
_cell_formula_units_Z   4
loop_
 _symmetry_equiv_pos_site_id
 _symmetry_equiv_pos_as_xyz
  1  'x, y, z'
loop_
 _atom_site_type_symbol
 _atom_site_label
 _atom_site_symmetry_multiplicity
 _atom_site_fract_x
 _atom_site_fract_y
 _atom_site_fract_z
 _atom_site_occupancy
  Ca  Ca0  1  0.00000000  0.70298600  0.25000000  1
  Ca  Ca1  1  0.00000000  0.29701400  0.75000000  1
  Ca  Ca2  1  0.50000000  0.20298600  0.25000000  1
  Ca  Ca3  1  0.50000000  0.79701400  0.75000000  1
  Si  Si4  1  0.78699550  0.59297550  0.72740000  1
  Si  Si5  1  0.21300450  0.59297550  0.77260000  1
  Si  Si6  1  0.78699550  0.40702450  0.22740000  1
  Si  Si7  1  0.21300450  0.40702450  0.27260000  1
  Si  Si8  1  0.28699550  0.09297550  0.72740000  1
  Si  Si9  1  0.71300450  0.09297550  0.77260000  1
  Si  Si10  1  0.28699550  0.90702450  0.22740000  1
  Si  Si11  1  0.71300450  0.90702450  0.27260000  1
  Ni  Ni12  1  0.00000000  0.90856100  0.75000000  1
  Ni  Ni13  1  0.00000000  0.09143900  0.25000000  1
  Ni  Ni14  1  0.50000000  0.40856100  0.75000000  1
  Ni  Ni15  1  0.50000000  0.59143900  0.25000000  1
  O  O16  1  0.85089950  0.51861700  0.49295200  1
  O  O17  1  0.14910050  0.51861700  0.00704800  1
  O  O18  1  0.14910050  0.48138300  0.50704800  1
  O  O19  1  0.85089950  0.48138300  0.99295200  1
  O  O20  1  0.86143400  0.74995800  0.82055600  1
  O  O21  1  0.13856600  0.74995800  0.67944400  1
  O  O22  1  0.13856600  0.25004200  0.17944400  1
  O  O23  1  0.86143400  0.25004200  0.32055600  1
  O  O24  1  0.61577900  0.41279700  0.14221600  1
  O  O25  1  0.38422100  0.41279700  0.35778400  1
  O  O26  1  0.61577900  0.58720300  0.64221600  1
  O  O27  1  0.38422100  0.58720300  0.85778400  1
  O  O28  1  0.35089950  0.01861700  0.49295200  1
  O  O29  1  0.64910050  0.01861700  0.00704800  1
  O  O30  1  0.64910050  0.98138300  0.50704800  1
  O  O31  1  0.35089950  0.98138300  0.99295200  1
  O  O32  1  0.36143400  0.24995800  0.82055600  1
  O  O33  1  0.63856600  0.24995800  0.67944400  1
  O  O34  1  0.63856600  0.75004200  0.17944400  1
  O  O35  1  0.36143400  0.75004200  0.32055600  1
  O  O36  1  0.11577900  0.91279700  0.14221600  1
  O  O37  1  0.88422100  0.91279700  0.35778400  1
  O  O38  1  0.11577900  0.08720300  0.64221600  1
  O  O39  1  0.88422100  0.08720300  0.85778400  1
