# generated using pymatgen
data_BaNiO2
_symmetry_space_group_name_H-M   'P 1'
_cell_length_a   5.82161800
_cell_length_b   9.32382800
_cell_length_c   4.78157400
_cell_angle_alpha   90.00000000
_cell_angle_beta   90.00000000
_cell_angle_gamma   90.00000000
_symmetry_Int_Tables_number   1
_chemical_formula_structural   BaNiO2
_chemical_formula_sum   'Ba4 Ni4 O8'
_cell_volume   259.54271264
_cell_formula_units_Z   4
loop_
 _symmetry_equiv_pos_site_id
 _symmetry_equiv_pos_as_xyz
  1  'x, y, z'
loop_
 _atom_site_type_symbol
 _atom_site_label
 _atom_site_symmetry_multiplicity
 _atom_site_fract_x
 _atom_site_fract_y
 _atom_site_fract_z
 _atom_site_occupancy
  Ba  Ba0  1  0.50000000  0.84620900  0.75000000  1
  Ba  Ba1  1  0.50000000  0.15379100  0.25000000  1
  Ba  Ba2  1  0.00000000  0.34620900  0.75000000  1
  Ba  Ba3  1  0.00000000  0.65379100  0.25000000  1
  Ni  Ni4  1  0.00000000  0.00000000  0.50000000  1
  Ni  Ni5  1  0.00000000  0.00000000  0.00000000  1
  Ni  Ni6  1  0.50000000  0.50000000  0.50000000  1
  Ni  Ni7  1  0.50000000  0.50000000  0.00000000  1
  O  O8  1  0.21945400  0.08129200  0.75000000  1
  O  O9  1  0.78054600  0.91870800  0.25000000  1
  O  O10  1  0.78054600  0.08129200  0.75000000  1
  O  O11  1  0.21945400  0.91870800  0.25000000  1
  O  O12  1  0.71945400  0.58129200  0.75000000  1
  O  O13  1  0.28054600  0.41870800  0.25000000  1
  O  O14  1  0.28054600  0.58129200  0.75000000  1
  O  O15  1  0.71945400  0.41870800  0.25000000  1
