# generated using pymatgen
data_MnSe2O5
_symmetry_space_group_name_H-M   'P 1'
_cell_length_a   8.18019597
_cell_length_b   11.06866622
_cell_length_c   6.00981834
_cell_angle_alpha   90.00000000
_cell_angle_beta   116.33330111
_cell_angle_gamma   90.00000000
_symmetry_Int_Tables_number   1
_chemical_formula_structural   MnSe2O5
_chemical_formula_sum   'Mn4 Se8 O20'
_cell_volume   487.68480077
_cell_formula_units_Z   4
loop_
 _symmetry_equiv_pos_site_id
 _symmetry_equiv_pos_as_xyz
  1  'x, y, z'
loop_
 _atom_site_type_symbol
 _atom_site_label
 _atom_site_symmetry_multiplicity
 _atom_site_fract_x
 _atom_site_fract_y
 _atom_site_fract_z
 _atom_site_occupancy
  Mn  Mn0  1  0.50000000  0.41753000  0.25000000  1
  Mn  Mn1  1  0.50000000  0.58247000  0.75000000  1
  Mn  Mn2  1  0.00000000  0.91753000  0.25000000  1
  Mn  Mn3  1  0.00000000  0.08247000  0.75000000  1
  Se  Se4  1  0.65742400  0.13927700  0.13251800  1
  Se  Se5  1  0.34257600  0.13927700  0.36748200  1
  Se  Se6  1  0.34257600  0.86072300  0.86748200  1
  Se  Se7  1  0.65742400  0.86072300  0.63251800  1
  Se  Se8  1  0.15742400  0.63927700  0.13251800  1
  Se  Se9  1  0.84257600  0.63927700  0.36748200  1
  Se  Se10  1  0.84257600  0.36072300  0.86748200  1
  Se  Se11  1  0.15742400  0.36072300  0.63251800  1
  O  O12  1  0.50000000  0.07539700  0.25000000  1
  O  O13  1  0.50000000  0.92460300  0.75000000  1
  O  O14  1  0.68867700  0.28448200  0.22733400  1
  O  O15  1  0.31132300  0.28448200  0.27266600  1
  O  O16  1  0.31132300  0.71551800  0.77266600  1
  O  O17  1  0.68867700  0.71551800  0.72733400  1
  O  O18  1  0.84959200  0.93450700  0.84011100  1
  O  O19  1  0.15040800  0.93450700  0.65988900  1
  O  O20  1  0.15040800  0.06549300  0.15988900  1
  O  O21  1  0.84959200  0.06549300  0.34011100  1
  O  O22  1  0.00000000  0.57539700  0.25000000  1
  O  O23  1  0.00000000  0.42460300  0.75000000  1
  O  O24  1  0.18867700  0.78448200  0.22733400  1
  O  O25  1  0.81132300  0.78448200  0.27266600  1
  O  O26  1  0.81132300  0.21551800  0.77266600  1
  O  O27  1  0.18867700  0.21551800  0.72733400  1
  O  O28  1  0.34959200  0.43450700  0.84011100  1
  O  O29  1  0.65040800  0.43450700  0.65988900  1
  O  O30  1  0.65040800  0.56549300  0.15988900  1
  O  O31  1  0.34959200  0.56549300  0.34011100  1
