# generated using pymatgen
data_Zr2AgPdF11
_symmetry_space_group_name_H-M   'P 1'
_cell_length_a   9.56759600
_cell_length_b   7.10102200
_cell_length_c   7.96529442
_cell_angle_alpha   90.00000000
_cell_angle_beta   115.78449445
_cell_angle_gamma   90.00000000
_symmetry_Int_Tables_number   1
_chemical_formula_structural   Zr2AgPdF11
_chemical_formula_sum   'Zr4 Ag2 Pd2 F22'
_cell_volume   487.28003926
_cell_formula_units_Z   2
loop_
 _symmetry_equiv_pos_site_id
 _symmetry_equiv_pos_as_xyz
  1  'x, y, z'
loop_
 _atom_site_type_symbol
 _atom_site_label
 _atom_site_symmetry_multiplicity
 _atom_site_fract_x
 _atom_site_fract_y
 _atom_site_fract_z
 _atom_site_occupancy
  Zr  Zr0  1  0.00743800  0.50000000  0.23723300  1
  Zr  Zr1  1  0.99256200  0.50000000  0.76276700  1
  Zr  Zr2  1  0.50743800  0.00000000  0.23723300  1
  Zr  Zr3  1  0.49256200  0.00000000  0.76276700  1
  Ag  Ag4  1  0.00000000  0.00000000  0.00000000  1
  Ag  Ag5  1  0.50000000  0.50000000  0.00000000  1
  Pd  Pd6  1  0.00000000  0.00000000  0.50000000  1
  Pd  Pd7  1  0.50000000  0.50000000  0.50000000  1
  F  F8  1  0.98296350  0.78468150  0.69198700  1
  F  F9  1  0.01703650  0.78468150  0.30801300  1
  F  F10  1  0.01703650  0.21531850  0.30801300  1
  F  F11  1  0.98296350  0.21531850  0.69198700  1
  F  F12  1  0.00000000  0.50000000  0.50000000  1
  F  F13  1  0.00000000  0.33700000  0.00000000  1
  F  F14  1  0.00000000  0.66300000  0.00000000  1
  F  F15  1  0.24492300  0.50000000  0.34752900  1
  F  F16  1  0.75507700  0.50000000  0.65247100  1
  F  F17  1  0.22272500  0.50000000  0.88718100  1
  F  F18  1  0.77727500  0.50000000  0.11281900  1
  F  F19  1  0.48296350  0.28468150  0.69198700  1
  F  F20  1  0.51703650  0.28468150  0.30801300  1
  F  F21  1  0.51703650  0.71531850  0.30801300  1
  F  F22  1  0.48296350  0.71531850  0.69198700  1
  F  F23  1  0.50000000  0.00000000  0.50000000  1
  F  F24  1  0.50000000  0.83700000  0.00000000  1
  F  F25  1  0.50000000  0.16300000  0.00000000  1
  F  F26  1  0.74492300  0.00000000  0.34752900  1
  F  F27  1  0.25507700  0.00000000  0.65247100  1
  F  F28  1  0.72272500  0.00000000  0.88718100  1
  F  F29  1  0.27727500  0.00000000  0.11281900  1
