# generated using pymatgen
data_La2MgMnO6
_symmetry_space_group_name_H-M   'P 1'
_cell_length_a   5.58371903
_cell_length_b   5.58371903
_cell_length_c   13.38584636
_cell_angle_alpha   90.00000000
_cell_angle_beta   90.00000000
_cell_angle_gamma   120.00000000
_symmetry_Int_Tables_number   1
_chemical_formula_structural   La2MgMnO6
_chemical_formula_sum   'La6 Mg3 Mn3 O18'
_cell_volume   361.42948618
_cell_formula_units_Z   3
loop_
 _symmetry_equiv_pos_site_id
 _symmetry_equiv_pos_as_xyz
  1  'x, y, z'
loop_
 _atom_site_type_symbol
 _atom_site_label
 _atom_site_symmetry_multiplicity
 _atom_site_fract_x
 _atom_site_fract_y
 _atom_site_fract_z
 _atom_site_occupancy
  La  La0  1  0.33333333  0.66666667  0.41757200  1
  La  La1  1  0.33333333  0.66666667  0.91576133  1
  La  La2  1  0.00000000  0.00000000  0.75090533  1
  La  La3  1  0.00000000  0.00000000  0.24909467  1
  La  La4  1  0.66666667  0.33333333  0.08423867  1
  La  La5  1  0.66666667  0.33333333  0.58242800  1
  Mg  Mg6  1  0.33333333  0.66666667  0.16666667  1
  Mg  Mg7  1  1.00000000  0.00000000  0.50000000  1
  Mg  Mg8  1  0.66666667  0.33333333  0.83333333  1
  Mn  Mn9  1  0.00000000  0.00000000  0.00000000  1
  Mn  Mn10  1  0.66666667  0.33333333  0.33333333  1
  Mn  Mn11  1  0.33333333  0.66666667  0.66666667  1
  O  O12  1  0.22697033  0.90744367  0.08170567  1
  O  O13  1  0.68047333  0.77302967  0.08170567  1
  O  O14  1  0.09255633  0.31952667  0.08170567  1
  O  O15  1  0.43969633  0.42588967  0.25162767  1
  O  O16  1  0.57411033  0.01380667  0.25162767  1
  O  O17  1  0.98619333  0.56030367  0.25162767  1
  O  O18  1  0.89363700  0.24077700  0.41503900  1
  O  O19  1  0.34714000  0.10636300  0.41503900  1
  O  O20  1  0.75922300  0.65286000  0.41503900  1
  O  O21  1  0.10636300  0.75922300  0.58496100  1
  O  O22  1  0.24077700  0.34714000  0.58496100  1
  O  O23  1  0.65286000  0.89363700  0.58496100  1
  O  O24  1  0.56030367  0.57411033  0.74837233  1
  O  O25  1  0.01380667  0.43969633  0.74837233  1
  O  O26  1  0.42588967  0.98619333  0.74837233  1
  O  O27  1  0.77302967  0.09255633  0.91829433  1
  O  O28  1  0.90744367  0.68047333  0.91829433  1
  O  O29  1  0.31952667  0.22697033  0.91829433  1
