# generated using pymatgen
data_LiVO3
_symmetry_space_group_name_H-M   'P 1'
_cell_length_a   10.43914400
_cell_length_b   8.63052000
_cell_length_c   5.94367306
_cell_angle_alpha   90.00000000
_cell_angle_beta   111.48960374
_cell_angle_gamma   90.00000000
_symmetry_Int_Tables_number   1
_chemical_formula_structural   LiVO3
_chemical_formula_sum   'Li8 V8 O24'
_cell_volume   498.27110010
_cell_formula_units_Z   8
loop_
 _symmetry_equiv_pos_site_id
 _symmetry_equiv_pos_as_xyz
  1  'x, y, z'
loop_
 _atom_site_type_symbol
 _atom_site_label
 _atom_site_symmetry_multiplicity
 _atom_site_fract_x
 _atom_site_fract_y
 _atom_site_fract_z
 _atom_site_occupancy
  Li  Li0  1  0.00000000  0.91789900  0.25000000  1
  Li  Li1  1  0.00000000  0.08210100  0.75000000  1
  Li  Li2  1  0.00000000  0.27240000  0.25000000  1
  Li  Li3  1  0.00000000  0.72760000  0.75000000  1
  Li  Li4  1  0.50000000  0.41789900  0.25000000  1
  Li  Li5  1  0.50000000  0.58210100  0.75000000  1
  Li  Li6  1  0.50000000  0.77240000  0.25000000  1
  Li  Li7  1  0.50000000  0.22760000  0.75000000  1
  V  V8  1  0.78722050  0.59350750  0.27092400  1
  V  V9  1  0.78722050  0.40649250  0.77092400  1
  V  V10  1  0.21277950  0.40649250  0.72907600  1
  V  V11  1  0.21277950  0.59350750  0.22907600  1
  V  V12  1  0.28722050  0.09350750  0.27092400  1
  V  V13  1  0.28722050  0.90649250  0.77092400  1
  V  V14  1  0.71277950  0.90649250  0.72907600  1
  V  V15  1  0.71277950  0.09350750  0.22907600  1
  O  O16  1  0.14718300  0.46845600  0.41391600  1
  O  O17  1  0.85281700  0.53154400  0.58608400  1
  O  O18  1  0.14718300  0.53154400  0.91391600  1
  O  O19  1  0.38655900  0.39153600  0.83434000  1
  O  O20  1  0.61344100  0.60846400  0.16566000  1
  O  O21  1  0.38655900  0.60846400  0.33434000  1
  O  O22  1  0.85614200  0.76863500  0.28483000  1
  O  O23  1  0.61344100  0.39153600  0.66566000  1
  O  O24  1  0.85614200  0.23136500  0.78483000  1
  O  O25  1  0.14385800  0.76863500  0.21517000  1
  O  O26  1  0.14385800  0.23136500  0.71517000  1
  O  O27  1  0.85281700  0.46845600  0.08608400  1
  O  O28  1  0.64718300  0.96845600  0.41391600  1
  O  O29  1  0.35281700  0.03154400  0.58608400  1
  O  O30  1  0.64718300  0.03154400  0.91391600  1
  O  O31  1  0.88655900  0.89153600  0.83434000  1
  O  O32  1  0.11344100  0.10846400  0.16566000  1
  O  O33  1  0.88655900  0.10846400  0.33434000  1
  O  O34  1  0.35614200  0.26863500  0.28483000  1
  O  O35  1  0.11344100  0.89153600  0.66566000  1
  O  O36  1  0.35614200  0.73136500  0.78483000  1
  O  O37  1  0.64385800  0.26863500  0.21517000  1
  O  O38  1  0.64385800  0.73136500  0.71517000  1
  O  O39  1  0.35281700  0.96845600  0.08608400  1
