# generated using pymatgen
data_NaSn
_symmetry_space_group_name_H-M   'P 1'
_cell_length_a   10.48463400
_cell_length_b   10.48463400
_cell_length_c   17.59918600
_cell_angle_alpha   90.00000000
_cell_angle_beta   90.00000000
_cell_angle_gamma   90.00000000
_symmetry_Int_Tables_number   1
_chemical_formula_structural   NaSn
_chemical_formula_sum   'Na32 Sn32'
_cell_volume   1934.63540098
_cell_formula_units_Z   32
loop_
 _symmetry_equiv_pos_site_id
 _symmetry_equiv_pos_as_xyz
  1  'x, y, z'
loop_
 _atom_site_type_symbol
 _atom_site_label
 _atom_site_symmetry_multiplicity
 _atom_site_fract_x
 _atom_site_fract_y
 _atom_site_fract_z
 _atom_site_occupancy
  Na  Na0  1  0.87781000  0.75000000  0.37500000  1
  Na  Na1  1  0.75000000  0.87781000  0.12500000  1
  Na  Na2  1  0.25000000  0.12219000  0.12500000  1
  Na  Na3  1  0.12219000  0.25000000  0.37500000  1
  Na  Na4  1  0.62219000  0.25000000  0.37500000  1
  Na  Na5  1  0.25000000  0.62219000  0.12500000  1
  Na  Na6  1  0.75000000  0.37781000  0.12500000  1
  Na  Na7  1  0.37781000  0.75000000  0.37500000  1
  Na  Na8  1  0.37257100  0.37257100  0.25000000  1
  Na  Na9  1  0.12742900  0.37257100  0.00000000  1
  Na  Na10  1  0.87257100  0.62742900  0.00000000  1
  Na  Na11  1  0.62742900  0.62742900  0.25000000  1
  Na  Na12  1  0.62742900  0.12742900  0.00000000  1
  Na  Na13  1  0.87257100  0.12742900  0.25000000  1
  Na  Na14  1  0.12742900  0.87257100  0.25000000  1
  Na  Na15  1  0.37257100  0.87257100  0.00000000  1
  Na  Na16  1  0.37781000  0.25000000  0.87500000  1
  Na  Na17  1  0.25000000  0.37781000  0.62500000  1
  Na  Na18  1  0.75000000  0.62219000  0.62500000  1
  Na  Na19  1  0.62219000  0.75000000  0.87500000  1
  Na  Na20  1  0.12219000  0.75000000  0.87500000  1
  Na  Na21  1  0.75000000  0.12219000  0.62500000  1
  Na  Na22  1  0.25000000  0.87781000  0.62500000  1
  Na  Na23  1  0.87781000  0.25000000  0.87500000  1
  Na  Na24  1  0.87257100  0.87257100  0.75000000  1
  Na  Na25  1  0.62742900  0.87257100  0.50000000  1
  Na  Na26  1  0.37257100  0.12742900  0.50000000  1
  Na  Na27  1  0.12742900  0.12742900  0.75000000  1
  Na  Na28  1  0.12742900  0.62742900  0.50000000  1
  Na  Na29  1  0.37257100  0.62742900  0.75000000  1
  Na  Na30  1  0.62742900  0.37257100  0.75000000  1
  Na  Na31  1  0.87257100  0.37257100  0.50000000  1
  Sn  Sn32  1  0.06855550  0.87277850  0.06148450  1
  Sn  Sn33  1  0.12722150  0.56855550  0.31148450  1
  Sn  Sn34  1  0.87277850  0.43144450  0.31148450  1
  Sn  Sn35  1  0.56855550  0.12722150  0.18851550  1
  Sn  Sn36  1  0.43144450  0.87277850  0.18851550  1
  Sn  Sn37  1  0.87277850  0.06855550  0.43851550  1
  Sn  Sn38  1  0.12722150  0.93144450  0.43851550  1
  Sn  Sn39  1  0.93144450  0.12722150  0.06148450  1
  Sn  Sn40  1  0.93144450  0.62722150  0.18851550  1
  Sn  Sn41  1  0.37277850  0.43144450  0.43851550  1
  Sn  Sn42  1  0.62722150  0.56855550  0.43851550  1
  Sn  Sn43  1  0.43144450  0.37277850  0.06148450  1
  Sn  Sn44  1  0.56855550  0.62722150  0.06148450  1
  Sn  Sn45  1  0.62722150  0.93144450  0.31148450  1
  Sn  Sn46  1  0.37277850  0.06855550  0.31148450  1
  Sn  Sn47  1  0.06855550  0.37277850  0.18851550  1
  Sn  Sn48  1  0.56855550  0.37277850  0.56148450  1
  Sn  Sn49  1  0.62722150  0.06855550  0.81148450  1
  Sn  Sn50  1  0.37277850  0.93144450  0.81148450  1
  Sn  Sn51  1  0.06855550  0.62722150  0.68851550  1
  Sn  Sn52  1  0.93144450  0.37277850  0.68851550  1
  Sn  Sn53  1  0.37277850  0.56855550  0.93851550  1
  Sn  Sn54  1  0.62722150  0.43144450  0.93851550  1
  Sn  Sn55  1  0.43144450  0.62722150  0.56148450  1
  Sn  Sn56  1  0.43144450  0.12722150  0.68851550  1
  Sn  Sn57  1  0.87277850  0.93144450  0.93851550  1
  Sn  Sn58  1  0.12722150  0.06855550  0.93851550  1
  Sn  Sn59  1  0.93144450  0.87277850  0.56148450  1
  Sn  Sn60  1  0.06855550  0.12722150  0.56148450  1
  Sn  Sn61  1  0.12722150  0.43144450  0.81148450  1
  Sn  Sn62  1  0.87277850  0.56855550  0.81148450  1
  Sn  Sn63  1  0.56855550  0.87277850  0.68851550  1
