# generated using pymatgen
data_Na5Lu(MoO4)4
_symmetry_space_group_name_H-M   'P 1'
_cell_length_a   11.49895400
_cell_length_b   11.49895400
_cell_length_c   11.48586800
_cell_angle_alpha   90.00000000
_cell_angle_beta   90.00000000
_cell_angle_gamma   90.00000000
_symmetry_Int_Tables_number   1
_chemical_formula_structural   Na5Lu(MoO4)4
_chemical_formula_sum   'Na20 Lu4 Mo16 O64'
_cell_volume   1518.72972855
_cell_formula_units_Z   4
loop_
 _symmetry_equiv_pos_site_id
 _symmetry_equiv_pos_as_xyz
  1  'x, y, z'
loop_
 _atom_site_type_symbol
 _atom_site_label
 _atom_site_symmetry_multiplicity
 _atom_site_fract_x
 _atom_site_fract_y
 _atom_site_fract_z
 _atom_site_occupancy
  Na  Na0  1  0.38045750  0.29593050  0.71918650  1
  Na  Na1  1  0.79593050  0.61954250  0.96918650  1
  Na  Na2  1  0.70406950  0.88045750  0.46918650  1
  Na  Na3  1  0.11954250  0.20406950  0.21918650  1
  Na  Na4  1  0.61954250  0.20406950  0.03081350  1
  Na  Na5  1  0.70406950  0.38045750  0.28081350  1
  Na  Na6  1  0.79593050  0.11954250  0.78081350  1
  Na  Na7  1  0.88045750  0.29593050  0.53081350  1
  Na  Na8  1  0.00000000  0.00000000  0.50000000  1
  Na  Na9  1  0.50000000  0.00000000  0.75000000  1
  Na  Na10  1  0.88045750  0.79593050  0.21918650  1
  Na  Na11  1  0.29593050  0.11954250  0.46918650  1
  Na  Na12  1  0.20406950  0.38045750  0.96918650  1
  Na  Na13  1  0.61954250  0.70406950  0.71918650  1
  Na  Na14  1  0.11954250  0.70406950  0.53081350  1
  Na  Na15  1  0.20406950  0.88045750  0.78081350  1
  Na  Na16  1  0.29593050  0.61954250  0.28081350  1
  Na  Na17  1  0.38045750  0.79593050  0.03081350  1
  Na  Na18  1  0.50000000  0.50000000  0.00000000  1
  Na  Na19  1  0.00000000  0.50000000  0.25000000  1
  Lu  Lu20  1  0.50000000  0.00000000  0.25000000  1
  Lu  Lu21  1  0.50000000  0.50000000  0.50000000  1
  Lu  Lu22  1  0.00000000  0.50000000  0.75000000  1
  Lu  Lu23  1  0.00000000  0.00000000  0.00000000  1
  Mo  Mo24  1  0.81797300  0.59217300  0.48921800  1
  Mo  Mo25  1  0.59217300  0.68202700  0.23921800  1
  Mo  Mo26  1  0.81797300  0.09217300  0.26078200  1
  Mo  Mo27  1  0.59217300  0.18202700  0.51078200  1
  Mo  Mo28  1  0.90782700  0.31797300  0.01078200  1
  Mo  Mo29  1  0.68202700  0.40782700  0.76078200  1
  Mo  Mo30  1  0.68202700  0.90782700  0.98921800  1
  Mo  Mo31  1  0.90782700  0.81797300  0.73921800  1
  Mo  Mo32  1  0.31797300  0.09217300  0.98921800  1
  Mo  Mo33  1  0.09217300  0.18202700  0.73921800  1
  Mo  Mo34  1  0.31797300  0.59217300  0.76078200  1
  Mo  Mo35  1  0.09217300  0.68202700  0.01078200  1
  Mo  Mo36  1  0.40782700  0.81797300  0.51078200  1
  Mo  Mo37  1  0.18202700  0.90782700  0.26078200  1
  Mo  Mo38  1  0.18202700  0.40782700  0.48921800  1
  Mo  Mo39  1  0.40782700  0.31797300  0.23921800  1
  O  O40  1  0.67613650  0.08095450  0.18810150  1
  O  O41  1  0.58095450  0.32386350  0.43810150  1
  O  O42  1  0.41904550  0.67613650  0.43810150  1
  O  O43  1  0.82386350  0.41904550  0.68810150  1
  O  O44  1  0.32386350  0.41904550  0.56189850  1
  O  O45  1  0.91904550  0.67613650  0.81189850  1
  O  O46  1  0.58095450  0.82386350  0.31189850  1
  O  O47  1  0.67613650  0.58095450  0.56189850  1
  O  O48  1  0.93884600  0.10904200  0.16082500  1
  O  O49  1  0.60904200  0.06115400  0.41082500  1
  O  O50  1  0.89095800  0.43884600  0.91082500  1
  O  O51  1  0.56115400  0.39095800  0.66082500  1
  O  O52  1  0.06115400  0.39095800  0.58917500  1
  O  O53  1  0.89095800  0.93884600  0.83917500  1
  O  O54  1  0.60904200  0.56115400  0.33917500  1
  O  O55  1  0.43884600  0.10904200  0.08917500  1
  O  O56  1  0.85237000  0.96937800  0.35106900  1
  O  O57  1  0.46937800  0.14763000  0.60106900  1
  O  O58  1  0.03062200  0.35237000  0.10106900  1
  O  O59  1  0.14763000  0.03062200  0.35106900  1
  O  O60  1  0.32245000  0.21644000  0.89773800  1
  O  O61  1  0.71644000  0.67755000  0.14773800  1
  O  O62  1  0.78356000  0.82245000  0.64773800  1
  O  O63  1  0.17755000  0.28356000  0.39773800  1
  O  O64  1  0.67755000  0.28356000  0.85226200  1
  O  O65  1  0.78356000  0.32245000  0.10226200  1
  O  O66  1  0.71644000  0.17755000  0.60226200  1
  O  O67  1  0.82245000  0.21644000  0.35226200  1
  O  O68  1  0.85237000  0.46937800  0.39893100  1
  O  O69  1  0.96937800  0.14763000  0.64893100  1
  O  O70  1  0.03062200  0.85237000  0.64893100  1
  O  O71  1  0.64763000  0.03062200  0.89893100  1
  O  O72  1  0.17613650  0.58095450  0.68810150  1
  O  O73  1  0.08095450  0.82386350  0.93810150  1
  O  O74  1  0.91904550  0.17613650  0.93810150  1
  O  O75  1  0.32386350  0.91904550  0.18810150  1
  O  O76  1  0.82386350  0.91904550  0.06189850  1
  O  O77  1  0.41904550  0.17613650  0.31189850  1
  O  O78  1  0.08095450  0.32386350  0.81189850  1
  O  O79  1  0.17613650  0.08095450  0.06189850  1
  O  O80  1  0.43884600  0.60904200  0.66082500  1
  O  O81  1  0.10904200  0.56115400  0.91082500  1
  O  O82  1  0.39095800  0.93884600  0.41082500  1
  O  O83  1  0.06115400  0.89095800  0.16082500  1
  O  O84  1  0.56115400  0.89095800  0.08917500  1
  O  O85  1  0.39095800  0.43884600  0.33917500  1
  O  O86  1  0.10904200  0.06115400  0.83917500  1
  O  O87  1  0.93884600  0.60904200  0.58917500  1
  O  O88  1  0.35237000  0.46937800  0.85106900  1
  O  O89  1  0.96937800  0.64763000  0.10106900  1
  O  O90  1  0.53062200  0.85237000  0.60106900  1
  O  O91  1  0.64763000  0.53062200  0.85106900  1
  O  O92  1  0.82245000  0.71644000  0.39773800  1
  O  O93  1  0.21644000  0.17755000  0.64773800  1
  O  O94  1  0.28356000  0.32245000  0.14773800  1
  O  O95  1  0.67755000  0.78356000  0.89773800  1
  O  O96  1  0.17755000  0.78356000  0.35226200  1
  O  O97  1  0.28356000  0.82245000  0.60226200  1
  O  O98  1  0.21644000  0.67755000  0.10226200  1
  O  O99  1  0.32245000  0.71644000  0.85226200  1
  O  O100  1  0.35237000  0.96937800  0.89893100  1
  O  O101  1  0.46937800  0.64763000  0.14893100  1
  O  O102  1  0.53062200  0.35237000  0.14893100  1
  O  O103  1  0.14763000  0.53062200  0.39893100  1
