# generated using pymatgen
data_La2B8O15
_symmetry_space_group_name_H-M   'P 1'
_cell_length_a   9.26559800
_cell_length_b   4.25583300
_cell_length_c   12.61622059
_cell_angle_alpha   90.00000000
_cell_angle_beta   116.65115514
_cell_angle_gamma   90.00000000
_symmetry_Int_Tables_number   1
_chemical_formula_structural   La2B8O15
_chemical_formula_sum   'La4 B16 O30'
_cell_volume   444.63675228
_cell_formula_units_Z   2
loop_
 _symmetry_equiv_pos_site_id
 _symmetry_equiv_pos_as_xyz
  1  'x, y, z'
loop_
 _atom_site_type_symbol
 _atom_site_label
 _atom_site_symmetry_multiplicity
 _atom_site_fract_x
 _atom_site_fract_y
 _atom_site_fract_z
 _atom_site_occupancy
  La  La0  1  0.85634000  0.73517200  0.05186300  1
  La  La1  1  0.14366000  0.73517200  0.44813700  1
  La  La2  1  0.14366000  0.26482800  0.94813700  1
  La  La3  1  0.85634000  0.26482800  0.55186300  1
  B  B4  1  0.89276200  0.78566600  0.79562100  1
  B  B5  1  0.10723800  0.78566600  0.70437900  1
  B  B6  1  0.10723800  0.21433400  0.20437900  1
  B  B7  1  0.89276200  0.21433400  0.29562100  1
  B  B8  1  0.71597200  0.26909300  0.76547600  1
  B  B9  1  0.28402800  0.26909300  0.73452400  1
  B  B10  1  0.28402800  0.73090700  0.23452400  1
  B  B11  1  0.71597200  0.73090700  0.26547600  1
  B  B12  1  0.40482200  0.78220600  0.87332900  1
  B  B13  1  0.59517800  0.78220600  0.62667100  1
  B  B14  1  0.59517800  0.21779400  0.12667100  1
  B  B15  1  0.40482200  0.21779400  0.37332900  1
  B  B16  1  0.58459500  0.29224500  0.91331800  1
  B  B17  1  0.41540500  0.29224500  0.58668200  1
  B  B18  1  0.41540500  0.70775500  0.08668200  1
  B  B19  1  0.58459500  0.70775500  0.41331800  1
  O  O20  1  0.97099900  0.74086300  0.92110100  1
  O  O21  1  0.02900100  0.74086300  0.57889900  1
  O  O22  1  0.02900100  0.25913700  0.07889900  1
  O  O23  1  0.97099900  0.25913700  0.42110100  1
  O  O24  1  0.85839200  0.12097400  0.76477500  1
  O  O25  1  0.14160800  0.12097400  0.73522500  1
  O  O26  1  0.14160800  0.87902600  0.23522500  1
  O  O27  1  0.85839200  0.87902600  0.26477500  1
  O  O28  1  0.72447000  0.38164100  0.23576400  1
  O  O29  1  0.27553000  0.38164100  0.26423600  1
  O  O30  1  0.27553000  0.61835900  0.76423600  1
  O  O31  1  0.72447000  0.61835900  0.73576400  1
  O  O32  1  0.71119400  0.22713800  0.87709200  1
  O  O33  1  0.28880600  0.22713800  0.62290800  1
  O  O34  1  0.28880600  0.77286200  0.12290800  1
  O  O35  1  0.71119400  0.77286200  0.37709200  1
  O  O36  1  0.65994700  0.19168700  0.03951400  1
  O  O37  1  0.34005300  0.19168700  0.46048600  1
  O  O38  1  0.34005300  0.80831300  0.96048600  1
  O  O39  1  0.65994700  0.80831300  0.53951400  1
  O  O40  1  0.42663700  0.12205500  0.83895200  1
  O  O41  1  0.57336300  0.12205500  0.66104800  1
  O  O42  1  0.57336300  0.87794500  0.16104800  1
  O  O43  1  0.42663700  0.87794500  0.33895200  1
  O  O44  1  0.55495200  0.62787500  0.90852200  1
  O  O45  1  0.44504800  0.62787500  0.59147800  1
  O  O46  1  0.44504800  0.37212500  0.09147800  1
  O  O47  1  0.55495200  0.37212500  0.40852200  1
  O  O48  1  0.00000000  0.65273300  0.75000000  1
  O  O49  1  0.00000000  0.34726700  0.25000000  1
