# generated using pymatgen
data_KBS2
_symmetry_space_group_name_H-M   'P 1'
_cell_length_a   15.76629707
_cell_length_b   15.76629707
_cell_length_c   8.73273440
_cell_angle_alpha   90.00000000
_cell_angle_beta   90.00000000
_cell_angle_gamma   120.00000000
_symmetry_Int_Tables_number   1
_chemical_formula_structural   KBS2
_chemical_formula_sum   'K18 B18 S36'
_cell_volume   1879.92400573
_cell_formula_units_Z   18
loop_
 _symmetry_equiv_pos_site_id
 _symmetry_equiv_pos_as_xyz
  1  'x, y, z'
loop_
 _atom_site_type_symbol
 _atom_site_label
 _atom_site_symmetry_multiplicity
 _atom_site_fract_x
 _atom_site_fract_y
 _atom_site_fract_z
 _atom_site_occupancy
  K  K0  1  0.11914367  0.33333333  0.58333333  1
  K  K1  1  0.00000000  0.45247700  0.25000000  1
  K  K2  1  0.88085633  0.21418967  0.91666667  1
  K  K3  1  0.54752300  0.00000000  0.75000000  1
  K  K4  1  0.66666667  0.88085633  0.08333333  1
  K  K5  1  0.78581033  0.11914367  0.41666667  1
  K  K6  1  0.78581033  0.66666667  0.91666667  1
  K  K7  1  0.66666667  0.78581033  0.58333333  1
  K  K8  1  0.54752300  0.54752300  0.25000000  1
  K  K9  1  0.21418967  0.33333333  0.08333333  1
  K  K10  1  0.33333333  0.21418967  0.41666667  1
  K  K11  1  0.45247700  0.45247700  0.75000000  1
  K  K12  1  0.45247700  0.00000000  0.25000000  1
  K  K13  1  0.33333333  0.11914367  0.91666667  1
  K  K14  1  0.21418967  0.88085633  0.58333333  1
  K  K15  1  0.88085633  0.66666667  0.41666667  1
  K  K16  1  0.00000000  0.54752300  0.75000000  1
  K  K17  1  0.11914367  0.78581033  0.08333333  1
  B  B18  1  0.78096567  0.33333333  0.58333333  1
  B  B19  1  0.00000000  0.11429900  0.25000000  1
  B  B20  1  0.21903433  0.55236767  0.91666667  1
  B  B21  1  0.88570100  0.00000000  0.75000000  1
  B  B22  1  0.66666667  0.21903433  0.08333333  1
  B  B23  1  0.44763233  0.78096567  0.41666667  1
  B  B24  1  0.44763233  0.66666667  0.91666667  1
  B  B25  1  0.66666667  0.44763233  0.58333333  1
  B  B26  1  0.88570100  0.88570100  0.25000000  1
  B  B27  1  0.55236767  0.33333333  0.08333333  1
  B  B28  1  0.33333333  0.55236767  0.41666667  1
  B  B29  1  0.11429900  0.11429900  0.75000000  1
  B  B30  1  0.11429900  0.00000000  0.25000000  1
  B  B31  1  0.33333333  0.78096567  0.91666667  1
  B  B32  1  0.55236767  0.21903433  0.58333333  1
  B  B33  1  0.21903433  0.66666667  0.41666667  1
  B  B34  1  0.00000000  0.88570100  0.75000000  1
  B  B35  1  0.78096567  0.44763233  0.08333333  1
  S  S36  1  0.21474333  0.54807667  0.41666667  1
  S  S37  1  0.00000000  0.11859000  0.75000000  1
  S  S38  1  0.78525667  0.33333333  0.08333333  1
  S  S39  1  0.45192333  0.78525667  0.91666667  1
  S  S40  1  0.66666667  0.21474333  0.58333333  1
  S  S41  1  0.88141000  0.00000000  0.25000000  1
  S  S42  1  0.56028833  0.89362167  0.41666667  1
  S  S43  1  0.66666667  0.10637833  0.08333333  1
  S  S44  1  0.77304500  1.00000000  0.75000000  1
  S  S45  1  0.10637833  0.43971167  0.91666667  1
  S  S46  1  0.00000000  0.22695500  0.25000000  1
  S  S47  1  0.89362167  0.33333333  0.58333333  1
  S  S48  1  0.88141000  0.88141000  0.75000000  1
  S  S49  1  0.66666667  0.45192333  0.08333333  1
  S  S50  1  0.45192333  0.66666667  0.41666667  1
  S  S51  1  0.11859000  0.11859000  0.25000000  1
  S  S52  1  0.33333333  0.54807667  0.91666667  1
  S  S53  1  0.54807667  0.33333333  0.58333333  1
  S  S54  1  0.22695500  0.22695500  0.75000000  1
  S  S55  1  0.33333333  0.43971167  0.41666667  1
  S  S56  1  0.43971167  0.33333333  0.08333333  1
  S  S57  1  0.77304500  0.77304500  0.25000000  1
  S  S58  1  0.66666667  0.56028833  0.58333333  1
  S  S59  1  0.56028833  0.66666667  0.91666667  1
  S  S60  1  0.54807667  0.21474333  0.08333333  1
  S  S61  1  0.33333333  0.78525667  0.41666667  1
  S  S62  1  0.11859000  0.00000000  0.75000000  1
  S  S63  1  0.78525667  0.45192333  0.58333333  1
  S  S64  1  0.00000000  0.88141000  0.25000000  1
  S  S65  1  0.21474333  0.66666667  0.91666667  1
  S  S66  1  0.89362167  0.56028833  0.08333333  1
  S  S67  1  0.00000000  0.77304500  0.75000000  1
  S  S68  1  0.10637833  0.66666667  0.41666667  1
  S  S69  1  0.43971167  0.10637833  0.58333333  1
  S  S70  1  0.33333333  0.89362167  0.91666667  1
  S  S71  1  0.22695500  0.00000000  0.25000000  1
