# generated using pymatgen
data_Ba4Sm2Cd3S10
_symmetry_space_group_name_H-M   'P 1'
_cell_length_a   4.22133400
_cell_length_b   18.31479200
_cell_length_c   27.02728900
_cell_angle_alpha   90.00000000
_cell_angle_beta   90.00000000
_cell_angle_gamma   90.00000000
_symmetry_Int_Tables_number   1
_chemical_formula_structural   Ba4Sm2Cd3S10
_chemical_formula_sum   'Ba16 Sm8 Cd12 S40'
_cell_volume   2089.55685314
_cell_formula_units_Z   4
loop_
 _symmetry_equiv_pos_site_id
 _symmetry_equiv_pos_as_xyz
  1  'x, y, z'
loop_
 _atom_site_type_symbol
 _atom_site_label
 _atom_site_symmetry_multiplicity
 _atom_site_fract_x
 _atom_site_fract_y
 _atom_site_fract_z
 _atom_site_occupancy
  Ba  Ba0  1  0.00000000  0.40412000  0.66120500  1
  Ba  Ba1  1  0.50000000  0.09588000  0.16120500  1
  Ba  Ba2  1  0.00000000  0.42407900  0.84339200  1
  Ba  Ba3  1  0.50000000  0.07592100  0.34339200  1
  Ba  Ba4  1  0.50000000  0.33679400  0.38949200  1
  Ba  Ba5  1  0.00000000  0.16320600  0.88949200  1
  Ba  Ba6  1  0.50000000  0.33728900  0.10911600  1
  Ba  Ba7  1  0.00000000  0.16271100  0.60911600  1
  Ba  Ba8  1  0.50000000  0.90412000  0.66120500  1
  Ba  Ba9  1  0.00000000  0.59588000  0.16120500  1
  Ba  Ba10  1  0.50000000  0.92407900  0.84339200  1
  Ba  Ba11  1  0.00000000  0.57592100  0.34339200  1
  Ba  Ba12  1  0.00000000  0.83679400  0.38949200  1
  Ba  Ba13  1  0.50000000  0.66320600  0.88949200  1
  Ba  Ba14  1  0.00000000  0.83728900  0.10911600  1
  Ba  Ba15  1  0.50000000  0.66271100  0.60911600  1
  Sm  Sm16  1  0.00000000  0.49717500  0.50025400  1
  Sm  Sm17  1  0.50000000  0.00282500  0.00025400  1
  Sm  Sm18  1  0.50000000  0.42033800  0.24641300  1
  Sm  Sm19  1  0.00000000  0.07966200  0.74641300  1
  Sm  Sm20  1  0.50000000  0.99717500  0.50025400  1
  Sm  Sm21  1  0.00000000  0.50282500  0.00025400  1
  Sm  Sm22  1  0.00000000  0.92033800  0.24641300  1
  Sm  Sm23  1  0.50000000  0.57966200  0.74641300  1
  Cd  Cd24  1  0.50000000  0.28245500  0.76851200  1
  Cd  Cd25  1  0.00000000  0.21754500  0.26851200  1
  Cd  Cd26  1  0.50000000  0.34028400  0.53789500  1
  Cd  Cd27  1  0.00000000  0.15971600  0.03789500  1
  Cd  Cd28  1  0.50000000  0.34596500  0.95565300  1
  Cd  Cd29  1  0.00000000  0.15403500  0.45565300  1
  Cd  Cd30  1  0.00000000  0.78245500  0.76851200  1
  Cd  Cd31  1  0.50000000  0.71754500  0.26851200  1
  Cd  Cd32  1  0.00000000  0.84028400  0.53789500  1
  Cd  Cd33  1  0.50000000  0.65971600  0.03789500  1
  Cd  Cd34  1  0.00000000  0.84596500  0.95565300  1
  Cd  Cd35  1  0.50000000  0.65403500  0.45565300  1
  S  S36  1  0.50000000  0.07663600  0.67786700  1
  S  S37  1  0.00000000  0.42336400  0.17786700  1
  S  S38  1  0.50000000  0.09023800  0.81683300  1
  S  S39  1  0.00000000  0.40976200  0.31683300  1
  S  S40  1  0.50000000  0.15251500  0.51001200  1
  S  S41  1  0.00000000  0.34748500  0.01001200  1
  S  S42  1  0.50000000  0.15523500  0.98140800  1
  S  S43  1  0.00000000  0.34476500  0.48140800  1
  S  S44  1  0.50000000  0.26686700  0.23301000  1
  S  S45  1  0.00000000  0.23313300  0.73301000  1
  S  S46  1  0.50000000  0.28878300  0.62182100  1
  S  S47  1  0.00000000  0.21121700  0.12182100  1
  S  S48  1  0.50000000  0.29243400  0.86858500  1
  S  S49  1  0.00000000  0.20756600  0.36858500  1
  S  S50  1  0.50000000  0.42602900  0.75296700  1
  S  S51  1  0.00000000  0.07397100  0.25296700  1
  S  S52  1  0.50000000  0.48309300  0.56776800  1
  S  S53  1  0.00000000  0.01690700  0.06776800  1
  S  S54  1  0.00000000  0.01201400  0.42824500  1
  S  S55  1  0.50000000  0.48798600  0.92824500  1
  S  S56  1  0.00000000  0.57663600  0.67786700  1
  S  S57  1  0.50000000  0.92336400  0.17786700  1
  S  S58  1  0.00000000  0.59023800  0.81683300  1
  S  S59  1  0.50000000  0.90976200  0.31683300  1
  S  S60  1  0.00000000  0.65251500  0.51001200  1
  S  S61  1  0.50000000  0.84748500  0.01001200  1
  S  S62  1  0.00000000  0.65523500  0.98140800  1
  S  S63  1  0.50000000  0.84476500  0.48140800  1
  S  S64  1  0.00000000  0.76686700  0.23301000  1
  S  S65  1  0.50000000  0.73313300  0.73301000  1
  S  S66  1  0.00000000  0.78878300  0.62182100  1
  S  S67  1  0.50000000  0.71121700  0.12182100  1
  S  S68  1  0.00000000  0.79243400  0.86858500  1
  S  S69  1  0.50000000  0.70756600  0.36858500  1
  S  S70  1  0.00000000  0.92602900  0.75296700  1
  S  S71  1  0.50000000  0.57397100  0.25296700  1
  S  S72  1  0.00000000  0.98309300  0.56776800  1
  S  S73  1  0.50000000  0.51690700  0.06776800  1
  S  S74  1  0.50000000  0.51201400  0.42824500  1
  S  S75  1  0.00000000  0.98798600  0.92824500  1
