# generated using pymatgen
data_Tl4GeS4
_symmetry_space_group_name_H-M   'P 1'
_cell_length_a   13.08689200
_cell_length_b   11.68543400
_cell_length_c   7.83423229
_cell_angle_alpha   90.00000000
_cell_angle_beta   113.40933330
_cell_angle_gamma   90.00000000
_symmetry_Int_Tables_number   1
_chemical_formula_structural   Tl4GeS4
_chemical_formula_sum   'Tl16 Ge4 S16'
_cell_volume   1099.44566423
_cell_formula_units_Z   4
loop_
 _symmetry_equiv_pos_site_id
 _symmetry_equiv_pos_as_xyz
  1  'x, y, z'
loop_
 _atom_site_type_symbol
 _atom_site_label
 _atom_site_symmetry_multiplicity
 _atom_site_fract_x
 _atom_site_fract_y
 _atom_site_fract_z
 _atom_site_occupancy
  Tl  Tl0  1  0.70240250  0.49737350  0.08046100  1
  Tl  Tl1  1  0.70240250  0.50262650  0.58046100  1
  Tl  Tl2  1  0.81147600  0.77491800  0.05525100  1
  Tl  Tl3  1  0.81147600  0.22508200  0.55525100  1
  Tl  Tl4  1  0.87137750  0.13882350  0.08937700  1
  Tl  Tl5  1  0.87137750  0.86117650  0.58937700  1
  Tl  Tl6  1  0.02790350  0.39223950  0.01881300  1
  Tl  Tl7  1  0.02790350  0.60776050  0.51881300  1
  Tl  Tl8  1  0.20240250  0.99737350  0.08046100  1
  Tl  Tl9  1  0.20240250  0.00262650  0.58046100  1
  Tl  Tl10  1  0.31147600  0.27491800  0.05525100  1
  Tl  Tl11  1  0.31147600  0.72508200  0.55525100  1
  Tl  Tl12  1  0.37137750  0.63882350  0.08937700  1
  Tl  Tl13  1  0.37137750  0.36117650  0.58937700  1
  Tl  Tl14  1  0.52790350  0.89223950  0.01881300  1
  Tl  Tl15  1  0.52790350  0.10776050  0.51881300  1
  Ge  Ge16  1  0.08732900  0.28847600  0.53658700  1
  Ge  Ge17  1  0.08732900  0.71152400  0.03658700  1
  Ge  Ge18  1  0.58732900  0.78847600  0.53658700  1
  Ge  Ge19  1  0.58732900  0.21152400  0.03658700  1
  S  S20  1  0.05771200  0.85354700  0.20335000  1
  S  S21  1  0.05771200  0.14645300  0.70335000  1
  S  S22  1  0.19196950  0.57252550  0.22401500  1
  S  S23  1  0.19196950  0.42747450  0.72401500  1
  S  S24  1  0.92273700  0.36194300  0.34737200  1
  S  S25  1  0.92273700  0.63805700  0.84737200  1
  S  S26  1  0.17129250  0.21986650  0.35807400  1
  S  S27  1  0.17129250  0.78013350  0.85807400  1
  S  S28  1  0.55771200  0.35354700  0.20335000  1
  S  S29  1  0.55771200  0.64645300  0.70335000  1
  S  S30  1  0.69196950  0.07252550  0.22401500  1
  S  S31  1  0.69196950  0.92747450  0.72401500  1
  S  S32  1  0.42273700  0.86194300  0.34737200  1
  S  S33  1  0.42273700  0.13805700  0.84737200  1
  S  S34  1  0.67129250  0.71986650  0.35807400  1
  S  S35  1  0.67129250  0.28013350  0.85807400  1
