# generated using pymatgen
data_Li3AlN2
_symmetry_space_group_name_H-M   'P 1'
_cell_length_a   9.52065800
_cell_length_b   9.52065800
_cell_length_c   9.52065800
_cell_angle_alpha   90.00000000
_cell_angle_beta   90.00000000
_cell_angle_gamma   90.00000000
_symmetry_Int_Tables_number   1
_chemical_formula_structural   Li3AlN2
_chemical_formula_sum   'Li48 Al16 N32'
_cell_volume   862.98032478
_cell_formula_units_Z   16
loop_
 _symmetry_equiv_pos_site_id
 _symmetry_equiv_pos_as_xyz
  1  'x, y, z'
loop_
 _atom_site_type_symbol
 _atom_site_label
 _atom_site_symmetry_multiplicity
 _atom_site_fract_x
 _atom_site_fract_y
 _atom_site_fract_z
 _atom_site_occupancy
  Li  Li0  1  0.37548700  0.61071900  0.84800100  1
  Li  Li1  1  0.12451300  0.61071900  0.15199900  1
  Li  Li2  1  0.37548700  0.38928100  0.65199900  1
  Li  Li3  1  0.38928100  0.34800100  0.12451300  1
  Li  Li4  1  0.34800100  0.12451300  0.38928100  1
  Li  Li5  1  0.84800100  0.37548700  0.61071900  1
  Li  Li6  1  0.61071900  0.15199900  0.12451300  1
  Li  Li7  1  0.65199900  0.37548700  0.38928100  1
  Li  Li8  1  0.61071900  0.84800100  0.37548700  1
  Li  Li9  1  0.15199900  0.12451300  0.61071900  1
  Li  Li10  1  0.38928100  0.65199900  0.37548700  1
  Li  Li11  1  0.12451300  0.38928100  0.34800100  1
  Li  Li12  1  0.12451300  0.88928100  0.65199900  1
  Li  Li13  1  0.37548700  0.88928100  0.34800100  1
  Li  Li14  1  0.12451300  0.11071900  0.84800100  1
  Li  Li15  1  0.11071900  0.15199900  0.37548700  1
  Li  Li16  1  0.15199900  0.37548700  0.11071900  1
  Li  Li17  1  0.65199900  0.12451300  0.88928100  1
  Li  Li18  1  0.88928100  0.34800100  0.37548700  1
  Li  Li19  1  0.37548700  0.11071900  0.15199900  1
  Li  Li20  1  0.88928100  0.65199900  0.12451300  1
  Li  Li21  1  0.34800100  0.37548700  0.88928100  1
  Li  Li22  1  0.11071900  0.84800100  0.12451300  1
  Li  Li23  1  0.84800100  0.12451300  0.11071900  1
  Li  Li24  1  0.87548700  0.11071900  0.34800100  1
  Li  Li25  1  0.62451300  0.11071900  0.65199900  1
  Li  Li26  1  0.87548700  0.88928100  0.15199900  1
  Li  Li27  1  0.88928100  0.84800100  0.62451300  1
  Li  Li28  1  0.84800100  0.62451300  0.88928100  1
  Li  Li29  1  0.34800100  0.87548700  0.11071900  1
  Li  Li30  1  0.11071900  0.65199900  0.62451300  1
  Li  Li31  1  0.15199900  0.87548700  0.88928100  1
  Li  Li32  1  0.11071900  0.34800100  0.87548700  1
  Li  Li33  1  0.65199900  0.62451300  0.11071900  1
  Li  Li34  1  0.88928100  0.15199900  0.87548700  1
  Li  Li35  1  0.62451300  0.88928100  0.84800100  1
  Li  Li36  1  0.62451300  0.38928100  0.15199900  1
  Li  Li37  1  0.87548700  0.38928100  0.84800100  1
  Li  Li38  1  0.62451300  0.61071900  0.34800100  1
  Li  Li39  1  0.61071900  0.65199900  0.87548700  1
  Li  Li40  1  0.65199900  0.87548700  0.61071900  1
  Li  Li41  1  0.15199900  0.62451300  0.38928100  1
  Li  Li42  1  0.38928100  0.84800100  0.87548700  1
  Li  Li43  1  0.87548700  0.61071900  0.65199900  1
  Li  Li44  1  0.38928100  0.15199900  0.62451300  1
  Li  Li45  1  0.84800100  0.87548700  0.38928100  1
  Li  Li46  1  0.61071900  0.34800100  0.62451300  1
  Li  Li47  1  0.34800100  0.62451300  0.61071900  1
  Al  Al48  1  0.11510800  0.11510800  0.11510800  1
  Al  Al49  1  0.11510800  0.88489200  0.38489200  1
  Al  Al50  1  0.38489200  0.11510800  0.88489200  1
  Al  Al51  1  0.88489200  0.38489200  0.11510800  1
  Al  Al52  1  0.38489200  0.38489200  0.38489200  1
  Al  Al53  1  0.88489200  0.11510800  0.61510800  1
  Al  Al54  1  0.61510800  0.88489200  0.11510800  1
  Al  Al55  1  0.11510800  0.61510800  0.88489200  1
  Al  Al56  1  0.61510800  0.61510800  0.61510800  1
  Al  Al57  1  0.61510800  0.38489200  0.88489200  1
  Al  Al58  1  0.88489200  0.61510800  0.38489200  1
  Al  Al59  1  0.38489200  0.88489200  0.61510800  1
  Al  Al60  1  0.88489200  0.88489200  0.88489200  1
  Al  Al61  1  0.38489200  0.61510800  0.11510800  1
  Al  Al62  1  0.11510800  0.38489200  0.61510800  1
  Al  Al63  1  0.61510800  0.11510800  0.38489200  1
  N  N64  1  0.25000000  0.71606200  0.00000000  1
  N  N65  1  0.00000000  0.00000000  0.50000000  1
  N  N66  1  0.50000000  0.00000000  0.00000000  1
  N  N67  1  0.00000000  0.50000000  0.00000000  1
  N  N68  1  0.00000000  0.25000000  0.21606200  1
  N  N69  1  0.25000000  0.78393800  0.50000000  1
  N  N70  1  0.78393800  0.50000000  0.25000000  1
  N  N71  1  0.25000000  0.21606200  0.00000000  1
  N  N72  1  0.00000000  0.25000000  0.71606200  1
  N  N73  1  0.28393800  0.50000000  0.25000000  1
  N  N74  1  0.25000000  0.28393800  0.50000000  1
  N  N75  1  0.71606200  0.00000000  0.25000000  1
  N  N76  1  0.21606200  0.00000000  0.25000000  1
  N  N77  1  0.50000000  0.25000000  0.28393800  1
  N  N78  1  0.50000000  0.25000000  0.78393800  1
  N  N79  1  0.00000000  0.00000000  0.00000000  1
  N  N80  1  0.75000000  0.21606200  0.50000000  1
  N  N81  1  0.50000000  0.50000000  0.00000000  1
  N  N82  1  0.00000000  0.50000000  0.50000000  1
  N  N83  1  0.50000000  0.00000000  0.50000000  1
  N  N84  1  0.50000000  0.75000000  0.71606200  1
  N  N85  1  0.75000000  0.28393800  0.00000000  1
  N  N86  1  0.28393800  0.00000000  0.75000000  1
  N  N87  1  0.75000000  0.71606200  0.50000000  1
  N  N88  1  0.50000000  0.75000000  0.21606200  1
  N  N89  1  0.78393800  0.00000000  0.75000000  1
  N  N90  1  0.75000000  0.78393800  0.00000000  1
  N  N91  1  0.21606200  0.50000000  0.75000000  1
  N  N92  1  0.71606200  0.50000000  0.75000000  1
  N  N93  1  0.00000000  0.75000000  0.78393800  1
  N  N94  1  0.00000000  0.75000000  0.28393800  1
  N  N95  1  0.50000000  0.50000000  0.50000000  1
