# generated using pymatgen
data_KAlTe2
_symmetry_space_group_name_H-M   'P 1'
_cell_length_a   11.97486000
_cell_length_b   11.96641200
_cell_length_c   16.82087453
_cell_angle_alpha   90.00000000
_cell_angle_beta   100.25853593
_cell_angle_gamma   90.00000000
_symmetry_Int_Tables_number   1
_chemical_formula_structural   KAlTe2
_chemical_formula_sum   'K16 Al16 Te32'
_cell_volume   2371.83417706
_cell_formula_units_Z   16
loop_
 _symmetry_equiv_pos_site_id
 _symmetry_equiv_pos_as_xyz
  1  'x, y, z'
loop_
 _atom_site_type_symbol
 _atom_site_label
 _atom_site_symmetry_multiplicity
 _atom_site_fract_x
 _atom_site_fract_y
 _atom_site_fract_z
 _atom_site_occupancy
  K  K0  1  0.53497000  0.31405500  0.89101100  1
  K  K1  1  0.53497000  0.68594500  0.39101100  1
  K  K2  1  0.46503000  0.68594500  0.10898900  1
  K  K3  1  0.28328000  0.06256000  0.88231500  1
  K  K4  1  0.71672000  0.06256000  0.61768500  1
  K  K5  1  0.71672000  0.93744000  0.11768500  1
  K  K6  1  0.46503000  0.31405500  0.60898900  1
  K  K7  1  0.28328000  0.93744000  0.38231500  1
  K  K8  1  0.03497000  0.81405500  0.89101100  1
  K  K9  1  0.03497000  0.18594500  0.39101100  1
  K  K10  1  0.96503000  0.18594500  0.10898900  1
  K  K11  1  0.78328000  0.56256000  0.88231500  1
  K  K12  1  0.21672000  0.56256000  0.61768500  1
  K  K13  1  0.21672000  0.43744000  0.11768500  1
  K  K14  1  0.96503000  0.81405500  0.60898900  1
  K  K15  1  0.78328000  0.43744000  0.38231500  1
  Al  Al16  1  0.60117950  0.68900150  0.66188400  1
  Al  Al17  1  0.39882050  0.31099850  0.33811600  1
  Al  Al18  1  0.60117950  0.31099850  0.16188400  1
  Al  Al19  1  0.64543650  0.93603850  0.83739600  1
  Al  Al20  1  0.35456350  0.93603850  0.66260400  1
  Al  Al21  1  0.35456350  0.06396150  0.16260400  1
  Al  Al22  1  0.64543650  0.06396150  0.33739600  1
  Al  Al23  1  0.39882050  0.68900150  0.83811600  1
  Al  Al24  1  0.10117950  0.18900150  0.66188400  1
  Al  Al25  1  0.89882050  0.81099850  0.33811600  1
  Al  Al26  1  0.10117950  0.81099850  0.16188400  1
  Al  Al27  1  0.14543650  0.43603850  0.83739600  1
  Al  Al28  1  0.85456350  0.43603850  0.66260400  1
  Al  Al29  1  0.85456350  0.56396150  0.16260400  1
  Al  Al30  1  0.14543650  0.56396150  0.33739600  1
  Al  Al31  1  0.89882050  0.18900150  0.83811600  1
  Te  Te32  1  0.54739000  0.18750800  0.43593300  1
  Te  Te33  1  0.45261000  0.18750800  0.06406700  1
  Te  Te34  1  0.45261000  0.81249200  0.56406700  1
  Te  Te35  1  0.54739000  0.81249200  0.93593300  1
  Te  Te36  1  0.75908500  0.18742400  0.24947100  1
  Te  Te37  1  0.24091500  0.18742400  0.25052900  1
  Te  Te38  1  0.24091500  0.81257600  0.75052900  1
  Te  Te39  1  0.75908500  0.81257600  0.74947100  1
  Te  Te40  1  0.20396450  0.93828350  0.06698100  1
  Te  Te41  1  0.79603550  0.93828350  0.43301900  1
  Te  Te42  1  0.79603550  0.06171650  0.93301900  1
  Te  Te43  1  0.20396450  0.06171650  0.56698100  1
  Te  Te44  1  0.50000000  0.44675800  0.25000000  1
  Te  Te45  1  0.50000000  0.55324200  0.75000000  1
  Te  Te46  1  0.50000000  0.92766100  0.25000000  1
  Te  Te47  1  0.50000000  0.07233900  0.75000000  1
  Te  Te48  1  0.04739000  0.68750800  0.43593300  1
  Te  Te49  1  0.95261000  0.68750800  0.06406700  1
  Te  Te50  1  0.95261000  0.31249200  0.56406700  1
  Te  Te51  1  0.04739000  0.31249200  0.93593300  1
  Te  Te52  1  0.25908500  0.68742400  0.24947100  1
  Te  Te53  1  0.74091500  0.68742400  0.25052900  1
  Te  Te54  1  0.74091500  0.31257600  0.75052900  1
  Te  Te55  1  0.25908500  0.31257600  0.74947100  1
  Te  Te56  1  0.70396450  0.43828350  0.06698100  1
  Te  Te57  1  0.29603550  0.43828350  0.43301900  1
  Te  Te58  1  0.29603550  0.56171650  0.93301900  1
  Te  Te59  1  0.70396450  0.56171650  0.56698100  1
  Te  Te60  1  0.00000000  0.94675800  0.25000000  1
  Te  Te61  1  0.00000000  0.05324200  0.75000000  1
  Te  Te62  1  0.00000000  0.42766100  0.25000000  1
  Te  Te63  1  0.00000000  0.57233900  0.75000000  1
