# generated using pymatgen
data_K3NaCr2O8
_symmetry_space_group_name_H-M   'P 1'
_cell_length_a   10.32459175
_cell_length_b   5.94334014
_cell_length_c   15.29991012
_cell_angle_alpha   90.00000000
_cell_angle_beta   90.10085748
_cell_angle_gamma   90.00000000
_symmetry_Int_Tables_number   1
_chemical_formula_structural   K3NaCr2O8
_chemical_formula_sum   'K12 Na4 Cr8 O32'
_cell_volume   938.84020624
_cell_formula_units_Z   4
loop_
 _symmetry_equiv_pos_site_id
 _symmetry_equiv_pos_as_xyz
  1  'x, y, z'
loop_
 _atom_site_type_symbol
 _atom_site_label
 _atom_site_symmetry_multiplicity
 _atom_site_fract_x
 _atom_site_fract_y
 _atom_site_fract_z
 _atom_site_occupancy
  K  K0  1  0.50000000  0.44554335  0.25000000  1
  K  K1  1  0.00000000  0.05445665  0.75000000  1
  K  K2  1  0.32960725  0.01941243  0.91083646  1
  K  K3  1  0.17039275  0.51941243  0.58916354  1
  K  K4  1  0.32960725  0.98058757  0.41083646  1
  K  K5  1  0.17039275  0.48058757  0.08916354  1
  K  K6  1  0.00000000  0.94554335  0.25000000  1
  K  K7  1  0.50000000  0.55445665  0.75000000  1
  K  K8  1  0.82960725  0.51941243  0.91083646  1
  K  K9  1  0.67039275  0.01941243  0.58916354  1
  K  K10  1  0.82960725  0.48058757  0.41083646  1
  K  K11  1  0.67039275  0.98058757  0.08916354  1
  Na  Na12  1  0.00000000  0.00000000  0.50000000  1
  Na  Na13  1  0.50000000  0.50000000  0.00000000  1
  Na  Na14  1  0.50000000  0.50000000  0.50000000  1
  Na  Na15  1  0.00000000  0.00000000  0.00000000  1
  Cr  Cr16  1  0.33701557  0.01668642  0.63410192  1
  Cr  Cr17  1  0.16298443  0.51668642  0.86589808  1
  Cr  Cr18  1  0.16298443  0.48331358  0.36589808  1
  Cr  Cr19  1  0.33701557  0.98331358  0.13410192  1
  Cr  Cr20  1  0.83701557  0.51668642  0.63410192  1
  Cr  Cr21  1  0.66298443  0.01668642  0.86589808  1
  Cr  Cr22  1  0.66298443  0.98331358  0.36589808  1
  Cr  Cr23  1  0.83701557  0.48331358  0.13410192  1
  O  O24  1  0.18665676  0.03360141  0.59344019  1
  O  O25  1  0.31334324  0.53360141  0.90655981  1
  O  O26  1  0.31334324  0.46639859  0.40655981  1
  O  O27  1  0.18665676  0.96639859  0.09344019  1
  O  O28  1  0.41392450  0.26010859  0.61667711  1
  O  O29  1  0.08607550  0.76010859  0.88332289  1
  O  O30  1  0.08607550  0.23989141  0.38332289  1
  O  O31  1  0.41392450  0.73989141  0.11667711  1
  O  O32  1  0.41531824  0.81096667  0.58108585  1
  O  O33  1  0.08468176  0.31096667  0.91891415  1
  O  O34  1  0.08468176  0.68903333  0.41891415  1
  O  O35  1  0.41531824  0.18903333  0.08108585  1
  O  O36  1  0.33236705  0.04539583  0.23909575  1
  O  O37  1  0.16763295  0.54539583  0.26090425  1
  O  O38  1  0.33236705  0.95460417  0.73909575  1
  O  O39  1  0.16763295  0.45460417  0.76090425  1
  O  O40  1  0.68665676  0.53360141  0.59344019  1
  O  O41  1  0.81334324  0.03360141  0.90655981  1
  O  O42  1  0.81334324  0.96639859  0.40655981  1
  O  O43  1  0.68665676  0.46639859  0.09344019  1
  O  O44  1  0.91392450  0.76010859  0.61667711  1
  O  O45  1  0.58607550  0.26010859  0.88332289  1
  O  O46  1  0.58607550  0.73989141  0.38332289  1
  O  O47  1  0.91392450  0.23989141  0.11667711  1
  O  O48  1  0.91531824  0.31096667  0.58108585  1
  O  O49  1  0.58468176  0.81096667  0.91891415  1
  O  O50  1  0.58468176  0.18903333  0.41891415  1
  O  O51  1  0.91531824  0.68903333  0.08108585  1
  O  O52  1  0.83236705  0.54539583  0.23909575  1
  O  O53  1  0.66763295  0.04539583  0.26090425  1
  O  O54  1  0.83236705  0.45460417  0.73909575  1
  O  O55  1  0.66763295  0.95460417  0.76090425  1
