# generated using pymatgen
data_V6O13
_symmetry_space_group_name_H-M   'P 1'
_cell_length_a   12.06528158
_cell_length_b   3.79354495
_cell_length_c   10.26757083
_cell_angle_alpha   90.00000000
_cell_angle_beta   100.84245366
_cell_angle_gamma   90.00000000
_symmetry_Int_Tables_number   1
_chemical_formula_structural   V6O13
_chemical_formula_sum   'V12 O26'
_cell_volume   461.55919008
_cell_formula_units_Z   2
loop_
 _symmetry_equiv_pos_site_id
 _symmetry_equiv_pos_as_xyz
  1  'x, y, z'
loop_
 _atom_site_type_symbol
 _atom_site_label
 _atom_site_symmetry_multiplicity
 _atom_site_fract_x
 _atom_site_fract_y
 _atom_site_fract_z
 _atom_site_occupancy
  V  V0  1  0.15090568  0.50000000  0.00338558  1
  V  V1  1  0.34909432  0.00000000  0.99661442  1
  V  V2  1  0.21484359  0.50000000  0.36625709  1
  V  V3  1  0.08748111  0.50000000  0.63571936  1
  V  V4  1  0.41251889  0.00000000  0.36428064  1
  V  V5  1  0.28515641  0.00000000  0.63374291  1
  V  V6  1  0.65090568  0.00000000  0.00338558  1
  V  V7  1  0.84909432  0.50000000  0.99661442  1
  V  V8  1  0.71484359  0.00000000  0.36625709  1
  V  V9  1  0.58748111  0.00000000  0.63571936  1
  V  V10  1  0.91251889  0.50000000  0.36428064  1
  V  V11  1  0.78515641  0.50000000  0.63374291  1
  O  O12  1  0.38104981  0.50000000  0.38413719  1
  O  O13  1  0.31253672  0.50000000  0.99983399  1
  O  O14  1  0.24689137  0.50000000  0.58957728  1
  O  O15  1  0.17509139  0.50000000  0.19869480  1
  O  O16  1  0.06073570  0.50000000  0.41149760  1
  O  O17  1  0.11220567  0.50000000  0.80179407  1
  O  O18  1  0.38779433  0.00000000  0.19820593  1
  O  O19  1  0.00000000  0.50000000  0.00000000  1
  O  O20  1  0.43926430  0.00000000  0.58850240  1
  O  O21  1  0.11895019  0.00000000  0.61586281  1
  O  O22  1  0.25310863  0.00000000  0.41042272  1
  O  O23  1  0.18746328  0.00000000  0.00016601  1
  O  O24  1  0.32490861  0.00000000  0.80130520  1
  O  O25  1  0.88104980  0.00000000  0.38413719  1
  O  O26  1  0.81253672  0.00000000  0.99983399  1
  O  O27  1  0.74689137  0.00000000  0.58957728  1
  O  O28  1  0.67509139  0.00000000  0.19869480  1
  O  O29  1  0.56073570  0.00000000  0.41149760  1
  O  O30  1  0.61220567  0.00000000  0.80179407  1
  O  O31  1  0.88779433  0.50000000  0.19820593  1
  O  O32  1  0.50000000  0.00000000  0.00000000  1
  O  O33  1  0.93926430  0.50000000  0.58850240  1
  O  O34  1  0.61895020  0.50000000  0.61586281  1
  O  O35  1  0.75310863  0.50000000  0.41042272  1
  O  O36  1  0.68746328  0.50000000  0.00016601  1
  O  O37  1  0.82490861  0.50000000  0.80130520  1
