# generated using pymatgen
data_As
_symmetry_space_group_name_H-M   'P 1'
_cell_length_a   3.70652000
_cell_length_b   11.44120600
_cell_length_c   4.68642700
_cell_angle_alpha   90.00000000
_cell_angle_beta   90.00000000
_cell_angle_gamma   90.00000000
_symmetry_Int_Tables_number   1
_chemical_formula_structural   As
_chemical_formula_sum   As8
_cell_volume   198.73758565
_cell_formula_units_Z   8
loop_
 _symmetry_equiv_pos_site_id
 _symmetry_equiv_pos_as_xyz
  1  'x, y, z'
loop_
 _atom_site_type_symbol
 _atom_site_label
 _atom_site_symmetry_multiplicity
 _atom_site_fract_x
 _atom_site_fract_y
 _atom_site_fract_z
 _atom_site_occupancy
  As  As0  1  0.00000000  0.89407200  0.06863000  1
  As  As1  1  0.50000000  0.60592800  0.93137000  1
  As  As2  1  0.00000000  0.60592800  0.56863000  1
  As  As3  1  0.50000000  0.89407200  0.43137000  1
  As  As4  1  0.50000000  0.39407200  0.06863000  1
  As  As5  1  0.00000000  0.10592800  0.93137000  1
  As  As6  1  0.50000000  0.10592800  0.56863000  1
  As  As7  1  0.00000000  0.39407200  0.43137000  1
