# generated using pymatgen
data_KLu(WO4)2
_symmetry_space_group_name_H-M   'P 1'
_cell_length_a   11.01676000
_cell_length_b   10.48442600
_cell_length_c   7.41870926
_cell_angle_alpha   90.00000000
_cell_angle_beta   130.76430655
_cell_angle_gamma   90.00000000
_symmetry_Int_Tables_number   1
_chemical_formula_structural   KLu(WO4)2
_chemical_formula_sum   'K4 Lu4 W8 O32'
_cell_volume   649.01289884
_cell_formula_units_Z   4
loop_
 _symmetry_equiv_pos_site_id
 _symmetry_equiv_pos_as_xyz
  1  'x, y, z'
loop_
 _atom_site_type_symbol
 _atom_site_label
 _atom_site_symmetry_multiplicity
 _atom_site_fract_x
 _atom_site_fract_y
 _atom_site_fract_z
 _atom_site_occupancy
  K  K0  1  0.00000000  0.20983400  0.25000000  1
  K  K1  1  0.00000000  0.79016600  0.75000000  1
  K  K2  1  0.50000000  0.70983400  0.25000000  1
  K  K3  1  0.50000000  0.29016600  0.75000000  1
  Lu  Lu4  1  0.00000000  0.77678000  0.25000000  1
  Lu  Lu5  1  0.00000000  0.22322000  0.75000000  1
  Lu  Lu6  1  0.50000000  0.27678000  0.25000000  1
  Lu  Lu7  1  0.50000000  0.72322000  0.75000000  1
  W  W8  1  0.80294350  0.50408050  0.28958500  1
  W  W9  1  0.19705650  0.50408050  0.21041500  1
  W  W10  1  0.19705650  0.49591950  0.71041500  1
  W  W11  1  0.80294350  0.49591950  0.78958500  1
  W  W12  1  0.30294350  0.00408050  0.28958500  1
  W  W13  1  0.69705650  0.00408050  0.21041500  1
  W  W14  1  0.69705650  0.99591950  0.71041500  1
  W  W15  1  0.30294350  0.99591950  0.78958500  1
  O  O16  1  0.63803800  0.39849500  0.19706500  1
  O  O17  1  0.36196200  0.39849500  0.30293500  1
  O  O18  1  0.36196200  0.60150500  0.80293500  1
  O  O19  1  0.63803800  0.60150500  0.69706500  1
  O  O20  1  0.81145000  0.43408100  0.05820500  1
  O  O21  1  0.18855000  0.43408100  0.44179500  1
  O  O22  1  0.18855000  0.56591900  0.94179500  1
  O  O23  1  0.81145000  0.56591900  0.55820500  1
  O  O24  1  0.98702750  0.61285050  0.04226300  1
  O  O25  1  0.01297250  0.61285050  0.45773700  1
  O  O26  1  0.01297250  0.38714950  0.95773700  1
  O  O27  1  0.98702750  0.38714950  0.54226300  1
  O  O28  1  0.69866400  0.35001200  0.61350000  1
  O  O29  1  0.30133600  0.35001200  0.88650000  1
  O  O30  1  0.30133600  0.64998800  0.38650000  1
  O  O31  1  0.69866400  0.64998800  0.11350000  1
  O  O32  1  0.13803800  0.89849500  0.19706500  1
  O  O33  1  0.86196200  0.89849500  0.30293500  1
  O  O34  1  0.86196200  0.10150500  0.80293500  1
  O  O35  1  0.13803800  0.10150500  0.69706500  1
  O  O36  1  0.31145000  0.93408100  0.05820500  1
  O  O37  1  0.68855000  0.93408100  0.44179500  1
  O  O38  1  0.68855000  0.06591900  0.94179500  1
  O  O39  1  0.31145000  0.06591900  0.55820500  1
  O  O40  1  0.48702750  0.11285050  0.04226300  1
  O  O41  1  0.51297250  0.11285050  0.45773700  1
  O  O42  1  0.51297250  0.88714950  0.95773700  1
  O  O43  1  0.48702750  0.88714950  0.54226300  1
  O  O44  1  0.19866400  0.85001200  0.61350000  1
  O  O45  1  0.80133600  0.85001200  0.88650000  1
  O  O46  1  0.80133600  0.14998800  0.38650000  1
  O  O47  1  0.19866400  0.14998800  0.11350000  1
