# generated using pymatgen
data_LiVO3
_symmetry_space_group_name_H-M   'P 1'
_cell_length_a   11.40970000
_cell_length_b   10.18909600
_cell_length_c   5.79759828
_cell_angle_alpha   90.00000000
_cell_angle_beta   119.33575036
_cell_angle_gamma   90.00000000
_symmetry_Int_Tables_number   1
_chemical_formula_structural   LiVO3
_chemical_formula_sum   'Li8 V8 O24'
_cell_volume   587.56619832
_cell_formula_units_Z   8
loop_
 _symmetry_equiv_pos_site_id
 _symmetry_equiv_pos_as_xyz
  1  'x, y, z'
loop_
 _atom_site_type_symbol
 _atom_site_label
 _atom_site_symmetry_multiplicity
 _atom_site_fract_x
 _atom_site_fract_y
 _atom_site_fract_z
 _atom_site_occupancy
  Li  Li0  1  0.00000000  0.31472400  0.25000000  1
  Li  Li1  1  0.00000000  0.68527600  0.75000000  1
  Li  Li2  1  0.00000000  0.69743600  0.25000000  1
  Li  Li3  1  0.00000000  0.30256400  0.75000000  1
  Li  Li4  1  0.50000000  0.81472400  0.25000000  1
  Li  Li5  1  0.50000000  0.18527600  0.75000000  1
  Li  Li6  1  0.50000000  0.19743600  0.25000000  1
  Li  Li7  1  0.50000000  0.80256400  0.75000000  1
  V  V8  1  0.28826400  0.59426800  0.28694000  1
  V  V9  1  0.71173600  0.40573200  0.71306000  1
  V  V10  1  0.71173600  0.59426800  0.21306000  1
  V  V11  1  0.28826400  0.40573200  0.78694000  1
  V  V12  1  0.78826400  0.09426800  0.28694000  1
  V  V13  1  0.21173600  0.90573200  0.71306000  1
  V  V14  1  0.21173600  0.09426800  0.21306000  1
  V  V15  1  0.78826400  0.90573200  0.78694000  1
  O  O16  1  0.12352550  0.23568950  0.12534000  1
  O  O17  1  0.87647450  0.23568950  0.37466000  1
  O  O18  1  0.87647450  0.76431050  0.87466000  1
  O  O19  1  0.87894300  0.37620600  0.87728000  1
  O  O20  1  0.66556550  0.49784250  0.92366600  1
  O  O21  1  0.87894300  0.62379400  0.37728000  1
  O  O22  1  0.12352550  0.76431050  0.62534000  1
  O  O23  1  0.12105700  0.37620600  0.62272000  1
  O  O24  1  0.33443450  0.49784250  0.57633400  1
  O  O25  1  0.12105700  0.62379400  0.12272000  1
  O  O26  1  0.66556550  0.50215750  0.42366600  1
  O  O27  1  0.33443450  0.50215750  0.07633400  1
  O  O28  1  0.62352550  0.73568950  0.12534000  1
  O  O29  1  0.37647450  0.73568950  0.37466000  1
  O  O30  1  0.37647450  0.26431050  0.87466000  1
  O  O31  1  0.37894300  0.87620600  0.87728000  1
  O  O32  1  0.16556550  0.99784250  0.92366600  1
  O  O33  1  0.37894300  0.12379400  0.37728000  1
  O  O34  1  0.62352550  0.26431050  0.62534000  1
  O  O35  1  0.62105700  0.87620600  0.62272000  1
  O  O36  1  0.83443450  0.99784250  0.57633400  1
  O  O37  1  0.62105700  0.12379400  0.12272000  1
  O  O38  1  0.16556550  0.00215750  0.42366600  1
  O  O39  1  0.83443450  0.00215750  0.07633400  1
