# generated using pymatgen
data_Ge3Os2
_symmetry_space_group_name_H-M   'P 1'
_cell_length_a   5.81801700
_cell_length_b   9.34671200
_cell_length_c   11.62810300
_cell_angle_alpha   90.00000000
_cell_angle_beta   90.00000000
_cell_angle_gamma   90.00000000
_symmetry_Int_Tables_number   1
_chemical_formula_structural   Ge3Os2
_chemical_formula_sum   'Ge24 Os16'
_cell_volume   632.32844229
_cell_formula_units_Z   8
loop_
 _symmetry_equiv_pos_site_id
 _symmetry_equiv_pos_as_xyz
  1  'x, y, z'
loop_
 _atom_site_type_symbol
 _atom_site_label
 _atom_site_symmetry_multiplicity
 _atom_site_fract_x
 _atom_site_fract_y
 _atom_site_fract_z
 _atom_site_occupancy
  Ge  Ge0  1  0.60011000  0.10523400  0.63191600  1
  Ge  Ge1  1  0.10011000  0.39476600  0.86808400  1
  Ge  Ge2  1  0.89989000  0.10523400  0.36808400  1
  Ge  Ge3  1  0.39989000  0.39476600  0.13191600  1
  Ge  Ge4  1  0.39989000  0.89476600  0.36808400  1
  Ge  Ge5  1  0.89989000  0.60523400  0.13191600  1
  Ge  Ge6  1  0.10011000  0.89476600  0.63191600  1
  Ge  Ge7  1  0.60011000  0.60523400  0.86808400  1
  Ge  Ge8  1  0.90899400  0.06570200  0.82165500  1
  Ge  Ge9  1  0.40899400  0.43429800  0.67834500  1
  Ge  Ge10  1  0.59100600  0.06570200  0.17834500  1
  Ge  Ge11  1  0.09100600  0.43429800  0.32165500  1
  Ge  Ge12  1  0.09100600  0.93429800  0.17834500  1
  Ge  Ge13  1  0.59100600  0.56570200  0.32165500  1
  Ge  Ge14  1  0.40899400  0.93429800  0.82165500  1
  Ge  Ge15  1  0.90899400  0.56570200  0.67834500  1
  Ge  Ge16  1  0.54196000  0.71349800  0.57323600  1
  Ge  Ge17  1  0.04196000  0.78650200  0.92676400  1
  Ge  Ge18  1  0.95804000  0.71349800  0.42676400  1
  Ge  Ge19  1  0.45804000  0.78650200  0.07323600  1
  Ge  Ge20  1  0.45804000  0.28650200  0.42676400  1
  Ge  Ge21  1  0.95804000  0.21349800  0.07323600  1
  Ge  Ge22  1  0.04196000  0.28650200  0.57323600  1
  Ge  Ge23  1  0.54196000  0.21349800  0.92676400  1
  Os  Os24  1  0.75000000  0.92541200  0.50000000  1
  Os  Os25  1  0.25000000  0.57458800  0.00000000  1
  Os  Os26  1  0.25000000  0.07458800  0.50000000  1
  Os  Os27  1  0.75000000  0.42541200  0.00000000  1
  Os  Os28  1  0.75000000  0.45995100  0.50000000  1
  Os  Os29  1  0.25000000  0.04004900  0.00000000  1
  Os  Os30  1  0.25000000  0.54004900  0.50000000  1
  Os  Os31  1  0.75000000  0.95995100  0.00000000  1
  Os  Os32  1  0.75897700  0.31348700  0.74569000  1
  Os  Os33  1  0.25897700  0.18651300  0.75431000  1
  Os  Os34  1  0.74102300  0.31348700  0.25431000  1
  Os  Os35  1  0.24102300  0.18651300  0.24569000  1
  Os  Os36  1  0.24102300  0.68651300  0.25431000  1
  Os  Os37  1  0.74102300  0.81348700  0.24569000  1
  Os  Os38  1  0.25897700  0.68651300  0.74569000  1
  Os  Os39  1  0.75897700  0.81348700  0.75431000  1
