# generated using pymatgen
data_ZnAg2P2O7
_symmetry_space_group_name_H-M   'P 1'
_cell_length_a   7.90356400
_cell_length_b   7.90356400
_cell_length_c   10.61219300
_cell_angle_alpha   90.00000000
_cell_angle_beta   90.00000000
_cell_angle_gamma   90.00000000
_symmetry_Int_Tables_number   1
_chemical_formula_structural   ZnAg2P2O7
_chemical_formula_sum   'Zn4 Ag8 P8 O28'
_cell_volume   662.90468525
_cell_formula_units_Z   4
loop_
 _symmetry_equiv_pos_site_id
 _symmetry_equiv_pos_as_xyz
  1  'x, y, z'
loop_
 _atom_site_type_symbol
 _atom_site_label
 _atom_site_symmetry_multiplicity
 _atom_site_fract_x
 _atom_site_fract_y
 _atom_site_fract_z
 _atom_site_occupancy
  Zn  Zn0  1  0.00000000  0.50000000  0.75000000  1
  Zn  Zn1  1  0.50000000  0.00000000  0.25000000  1
  Zn  Zn2  1  0.00000000  0.50000000  0.25000000  1
  Zn  Zn3  1  0.50000000  0.00000000  0.75000000  1
  Ag  Ag4  1  0.63949300  0.63949300  0.00000000  1
  Ag  Ag5  1  0.86050700  0.13949300  0.50000000  1
  Ag  Ag6  1  0.13949300  0.86050700  0.50000000  1
  Ag  Ag7  1  0.36050700  0.36050700  0.00000000  1
  Ag  Ag8  1  0.29918500  0.29918500  0.50000000  1
  Ag  Ag9  1  0.79918500  0.20081500  0.00000000  1
  Ag  Ag10  1  0.70081500  0.70081500  0.50000000  1
  Ag  Ag11  1  0.20081500  0.79918500  0.00000000  1
  P  P12  1  0.86277800  0.86277800  0.78864900  1
  P  P13  1  0.13722200  0.13722200  0.78864900  1
  P  P14  1  0.86277800  0.86277800  0.21135100  1
  P  P15  1  0.36277800  0.63722200  0.28864900  1
  P  P16  1  0.63722200  0.36277800  0.28864900  1
  P  P17  1  0.63722200  0.36277800  0.71135100  1
  P  P18  1  0.36277800  0.63722200  0.71135100  1
  P  P19  1  0.13722200  0.13722200  0.21135100  1
  O  O20  1  0.30498600  0.07983200  0.15022800  1
  O  O21  1  0.69501400  0.92016800  0.15022800  1
  O  O22  1  0.07983200  0.30498600  0.84977200  1
  O  O23  1  0.57983200  0.19501400  0.65022800  1
  O  O24  1  0.42016800  0.80498600  0.65022800  1
  O  O25  1  0.19501400  0.57983200  0.34977200  1
  O  O26  1  0.80498600  0.42016800  0.34977200  1
  O  O27  1  0.92016800  0.69501400  0.84977200  1
  O  O28  1  0.69501400  0.92016800  0.84977200  1
  O  O29  1  0.30498600  0.07983200  0.84977200  1
  O  O30  1  0.92016800  0.69501400  0.15022800  1
  O  O31  1  0.42016800  0.80498600  0.34977200  1
  O  O32  1  0.57983200  0.19501400  0.34977200  1
  O  O33  1  0.80498600  0.42016800  0.65022800  1
  O  O34  1  0.19501400  0.57983200  0.65022800  1
  O  O35  1  0.07983200  0.30498600  0.15022800  1
  O  O36  1  0.86537700  0.86537700  0.64525400  1
  O  O37  1  0.13462300  0.13462300  0.64525400  1
  O  O38  1  0.86537700  0.86537700  0.35474600  1
  O  O39  1  0.36537700  0.63462300  0.14525400  1
  O  O40  1  0.00000000  0.00000000  0.15729700  1
  O  O41  1  0.50000000  0.50000000  0.65729700  1
  O  O42  1  0.50000000  0.50000000  0.34270300  1
  O  O43  1  0.00000000  0.00000000  0.84270300  1
  O  O44  1  0.13462300  0.13462300  0.35474600  1
  O  O45  1  0.36537700  0.63462300  0.85474600  1
  O  O46  1  0.63462300  0.36537700  0.85474600  1
  O  O47  1  0.63462300  0.36537700  0.14525400  1
