# generated using pymatgen
data_Sr2NiMoO6
_symmetry_space_group_name_H-M   'P 1'
_cell_length_a   5.61247662
_cell_length_b   5.61247662
_cell_length_c   8.06005630
_cell_angle_alpha   90.00000000
_cell_angle_beta   90.00000000
_cell_angle_gamma   90.00000000
_symmetry_Int_Tables_number   1
_chemical_formula_structural   Sr2NiMoO6
_chemical_formula_sum   'Sr4 Ni2 Mo2 O12'
_cell_volume   253.89091765
_cell_formula_units_Z   2
loop_
 _symmetry_equiv_pos_site_id
 _symmetry_equiv_pos_as_xyz
  1  'x, y, z'
loop_
 _atom_site_type_symbol
 _atom_site_label
 _atom_site_symmetry_multiplicity
 _atom_site_fract_x
 _atom_site_fract_y
 _atom_site_fract_z
 _atom_site_occupancy
  Sr  Sr0  1  0.00000000  0.50000000  0.25000000  1
  Sr  Sr1  1  0.50000000  0.00000000  0.25000000  1
  Sr  Sr2  1  0.50000000  0.00000000  0.75000000  1
  Sr  Sr3  1  0.00000000  0.50000000  0.75000000  1
  Ni  Ni4  1  0.50000000  0.50000000  0.00000000  1
  Ni  Ni5  1  0.00000000  0.00000000  0.50000000  1
  Mo  Mo6  1  0.00000000  0.00000000  0.00000000  1
  Mo  Mo7  1  0.50000000  0.50000000  0.50000000  1
  O  O8  1  0.50000000  0.50000000  0.25823575  1
  O  O9  1  0.00000000  0.00000000  0.24176425  1
  O  O10  1  0.70083350  0.21759850  0.50000000  1
  O  O11  1  0.71759850  0.79916650  0.00000000  1
  O  O12  1  0.78240150  0.70083350  0.50000000  1
  O  O13  1  0.79916650  0.28240150  0.00000000  1
  O  O14  1  0.00000000  0.00000000  0.75823575  1
  O  O15  1  0.50000000  0.50000000  0.74176425  1
  O  O16  1  0.20083350  0.71759850  0.00000000  1
  O  O17  1  0.21759850  0.29916650  0.50000000  1
  O  O18  1  0.28240150  0.20083350  0.00000000  1
  O  O19  1  0.29916650  0.78240150  0.50000000  1
