# generated using pymatgen
data_Ba3(InP2)2
_symmetry_space_group_name_H-M   'P 1'
_cell_length_a   14.14507800
_cell_length_b   10.98115600
_cell_length_c   7.17690925
_cell_angle_alpha   90.00000000
_cell_angle_beta   90.14585596
_cell_angle_gamma   90.00000000
_symmetry_Int_Tables_number   1
_chemical_formula_structural   Ba3(InP2)2
_chemical_formula_sum   'Ba12 In8 P16'
_cell_volume   1114.78073705
_cell_formula_units_Z   4
loop_
 _symmetry_equiv_pos_site_id
 _symmetry_equiv_pos_as_xyz
  1  'x, y, z'
loop_
 _atom_site_type_symbol
 _atom_site_label
 _atom_site_symmetry_multiplicity
 _atom_site_fract_x
 _atom_site_fract_y
 _atom_site_fract_z
 _atom_site_occupancy
  Ba  Ba0  1  0.00000000  0.59830450  0.75000000  1
  Ba  Ba1  1  0.00000000  0.40169550  0.25000000  1
  Ba  Ba2  1  0.12356250  0.87071850  0.04494900  1
  Ba  Ba3  1  0.87643750  0.87071850  0.45505100  1
  Ba  Ba4  1  0.87643750  0.12928150  0.95505100  1
  Ba  Ba5  1  0.12356250  0.12928150  0.54494900  1
  Ba  Ba6  1  0.50000000  0.09830450  0.75000000  1
  Ba  Ba7  1  0.50000000  0.90169550  0.25000000  1
  Ba  Ba8  1  0.62356250  0.37071850  0.04494900  1
  Ba  Ba9  1  0.37643750  0.37071850  0.45505100  1
  Ba  Ba10  1  0.37643750  0.62928150  0.95505100  1
  Ba  Ba11  1  0.62356250  0.62928150  0.54494900  1
  In  In12  1  0.20347200  0.37729800  0.91545800  1
  In  In13  1  0.79652800  0.37729800  0.58454200  1
  In  In14  1  0.79652800  0.62270200  0.08454200  1
  In  In15  1  0.20347200  0.62270200  0.41545800  1
  In  In16  1  0.70347200  0.87729800  0.91545800  1
  In  In17  1  0.29652800  0.87729800  0.58454200  1
  In  In18  1  0.29652800  0.12270200  0.08454200  1
  In  In19  1  0.70347200  0.12270200  0.41545800  1
  P  P20  1  0.84221300  0.41463500  0.93148100  1
  P  P21  1  0.15778700  0.41463500  0.56851900  1
  P  P22  1  0.15778700  0.58536500  0.06851900  1
  P  P23  1  0.84221300  0.58536500  0.43148100  1
  P  P24  1  0.11622800  0.82533800  0.52660200  1
  P  P25  1  0.88377200  0.82533800  0.97339800  1
  P  P26  1  0.11622800  0.17466200  0.02660200  1
  P  P27  1  0.88377200  0.17466200  0.47339800  1
  P  P28  1  0.34221300  0.91463500  0.93148100  1
  P  P29  1  0.65778700  0.91463500  0.56851900  1
  P  P30  1  0.65778700  0.08536500  0.06851900  1
  P  P31  1  0.34221300  0.08536500  0.43148100  1
  P  P32  1  0.61622800  0.32533800  0.52660200  1
  P  P33  1  0.38377200  0.32533800  0.97339800  1
  P  P34  1  0.61622800  0.67466200  0.02660200  1
  P  P35  1  0.38377200  0.67466200  0.47339800  1
