# generated using pymatgen
data_Ca3N2
_symmetry_space_group_name_H-M   'P 1'
_cell_length_a   6.19661399
_cell_length_b   6.19661399
_cell_length_c   16.65446897
_cell_angle_alpha   90.00000000
_cell_angle_beta   90.00000000
_cell_angle_gamma   120.00000000
_symmetry_Int_Tables_number   1
_chemical_formula_structural   Ca3N2
_chemical_formula_sum   'Ca18 N12'
_cell_volume   553.82213282
_cell_formula_units_Z   6
loop_
 _symmetry_equiv_pos_site_id
 _symmetry_equiv_pos_as_xyz
  1  'x, y, z'
loop_
 _atom_site_type_symbol
 _atom_site_label
 _atom_site_symmetry_multiplicity
 _atom_site_fract_x
 _atom_site_fract_y
 _atom_site_fract_z
 _atom_site_occupancy
  Ca  Ca0  1  0.36657567  0.03324233  0.08333333  1
  Ca  Ca1  1  0.66666667  0.63342433  0.08333333  1
  Ca  Ca2  1  0.96675767  0.33333333  0.08333333  1
  Ca  Ca3  1  0.00000000  0.69990900  0.25000000  1
  Ca  Ca4  1  0.30009100  0.30009100  0.25000000  1
  Ca  Ca5  1  0.69990900  0.00000000  0.25000000  1
  Ca  Ca6  1  0.03324233  0.36657567  0.41666667  1
  Ca  Ca7  1  0.33333333  0.96675767  0.41666667  1
  Ca  Ca8  1  0.63342433  0.66666667  0.41666667  1
  Ca  Ca9  1  0.66666667  0.03324233  0.58333333  1
  Ca  Ca10  1  0.96675767  0.63342433  0.58333333  1
  Ca  Ca11  1  0.36657567  0.33333333  0.58333333  1
  Ca  Ca12  1  0.69990900  0.69990900  0.75000000  1
  Ca  Ca13  1  0.00000000  0.30009100  0.75000000  1
  Ca  Ca14  1  0.30009100  0.00000000  0.75000000  1
  Ca  Ca15  1  0.33333333  0.36657567  0.91666667  1
  Ca  Ca16  1  0.63342433  0.96675767  0.91666667  1
  Ca  Ca17  1  0.03324233  0.66666667  0.91666667  1
  N  N18  1  0.66666667  0.33333333  0.18680833  1
  N  N19  1  0.33333333  0.66666667  0.31319167  1
  N  N20  1  0.00000000  0.00000000  0.14652500  1
  N  N21  1  0.33333333  0.66666667  0.02014167  1
  N  N22  1  0.33333333  0.66666667  0.52014167  1
  N  N23  1  0.00000000  0.00000000  0.64652500  1
  N  N24  1  0.66666667  0.33333333  0.47985833  1
  N  N25  1  0.00000000  0.00000000  0.35347500  1
  N  N26  1  0.00000000  0.00000000  0.85347500  1
  N  N27  1  0.66666667  0.33333333  0.97985833  1
  N  N28  1  0.33333333  0.66666667  0.81319167  1
  N  N29  1  0.66666667  0.33333333  0.68680833  1
