# generated using pymatgen
data_BaCo2Si2O7
_symmetry_space_group_name_H-M   'P 1'
_cell_length_a   7.35309000
_cell_length_b   12.92058600
_cell_length_c   13.92592104
_cell_angle_alpha   90.00000000
_cell_angle_beta   90.11900285
_cell_angle_gamma   90.00000000
_symmetry_Int_Tables_number   1
_chemical_formula_structural   BaCo2Si2O7
_chemical_formula_sum   'Ba8 Co16 Si16 O56'
_cell_volume   1323.04642712
_cell_formula_units_Z   8
loop_
 _symmetry_equiv_pos_site_id
 _symmetry_equiv_pos_as_xyz
  1  'x, y, z'
loop_
 _atom_site_type_symbol
 _atom_site_label
 _atom_site_symmetry_multiplicity
 _atom_site_fract_x
 _atom_site_fract_y
 _atom_site_fract_z
 _atom_site_occupancy
  Ba  Ba0  1  0.20098350  0.98073050  0.12318300  1
  Ba  Ba1  1  0.79901650  0.98073050  0.37681700  1
  Ba  Ba2  1  0.29901650  0.51926950  0.87681700  1
  Ba  Ba3  1  0.70098350  0.51926950  0.62318300  1
  Ba  Ba4  1  0.70098350  0.48073050  0.12318300  1
  Ba  Ba5  1  0.29901650  0.48073050  0.37681700  1
  Ba  Ba6  1  0.79901650  0.01926950  0.87681700  1
  Ba  Ba7  1  0.20098350  0.01926950  0.62318300  1
  Co  Co8  1  0.03147400  0.76936800  0.51003500  1
  Co  Co9  1  0.96852600  0.76936800  0.98996500  1
  Co  Co10  1  0.00000000  0.77198300  0.75000000  1
  Co  Co11  1  0.53147400  0.73063200  0.01003500  1
  Co  Co12  1  0.00000000  0.76747600  0.25000000  1
  Co  Co13  1  0.50000000  0.73252400  0.75000000  1
  Co  Co14  1  0.50000000  0.72801700  0.25000000  1
  Co  Co15  1  0.46852600  0.73063200  0.48996500  1
  Co  Co16  1  0.53147400  0.26936800  0.51003500  1
  Co  Co17  1  0.46852600  0.26936800  0.98996500  1
  Co  Co18  1  0.50000000  0.27198300  0.75000000  1
  Co  Co19  1  0.03147400  0.23063200  0.01003500  1
  Co  Co20  1  0.50000000  0.26747600  0.25000000  1
  Co  Co21  1  0.00000000  0.23252400  0.75000000  1
  Co  Co22  1  0.00000000  0.22801700  0.25000000  1
  Co  Co23  1  0.96852600  0.23063200  0.48996500  1
  Si  Si24  1  0.31890350  0.89285550  0.38141600  1
  Si  Si25  1  0.68109650  0.89285550  0.11858400  1
  Si  Si26  1  0.18109650  0.60714450  0.61858400  1
  Si  Si27  1  0.81890350  0.60714450  0.88141600  1
  Si  Si28  1  0.78894350  0.62268850  0.36742500  1
  Si  Si29  1  0.21105650  0.62268850  0.13257500  1
  Si  Si30  1  0.71105650  0.87731150  0.63257500  1
  Si  Si31  1  0.28894350  0.87731150  0.86742500  1
  Si  Si32  1  0.81890350  0.39285550  0.38141600  1
  Si  Si33  1  0.18109650  0.39285550  0.11858400  1
  Si  Si34  1  0.68109650  0.10714450  0.61858400  1
  Si  Si35  1  0.31890350  0.10714450  0.88141600  1
  Si  Si36  1  0.28894350  0.12268850  0.36742500  1
  Si  Si37  1  0.71105650  0.12268850  0.13257500  1
  Si  Si38  1  0.21105650  0.37731150  0.63257500  1
  Si  Si39  1  0.78894350  0.37731150  0.86742500  1
  O  O40  1  0.62565150  0.61264150  0.44628800  1
  O  O41  1  0.37434850  0.61264150  0.05371200  1
  O  O42  1  0.87434850  0.88735850  0.55371200  1
  O  O43  1  0.12565150  0.88735850  0.94628800  1
  O  O44  1  0.71642800  0.63568100  0.25639400  1
  O  O45  1  0.28357200  0.63568100  0.24360600  1
  O  O46  1  0.78357200  0.86431900  0.74360600  1
  O  O47  1  0.21642800  0.86431900  0.75639400  1
  O  O48  1  0.90892400  0.51248900  0.37811300  1
  O  O49  1  0.09107600  0.51248900  0.12188700  1
  O  O50  1  0.59107600  0.98751100  0.62188700  1
  O  O51  1  0.40892400  0.98751100  0.87811300  1
  O  O52  1  0.49975750  0.81768450  0.36642300  1
  O  O53  1  0.50024250  0.81768450  0.13357700  1
  O  O54  1  0.00024250  0.68231550  0.63357700  1
  O  O55  1  0.99975750  0.68231550  0.86642300  1
  O  O56  1  0.24719300  0.86335700  0.48927400  1
  O  O57  1  0.75280700  0.86335700  0.01072600  1
  O  O58  1  0.25280700  0.63664300  0.51072600  1
  O  O59  1  0.74719300  0.63664300  0.98927400  1
  O  O60  1  0.42906450  0.77887250  0.88482300  1
  O  O61  1  0.57093550  0.77887250  0.61517700  1
  O  O62  1  0.07093550  0.72112750  0.11517700  1
  O  O63  1  0.92906450  0.72112750  0.38482300  1
  O  O64  1  0.16558150  0.88462850  0.29793300  1
  O  O65  1  0.33441850  0.61537150  0.70206700  1
  O  O66  1  0.83441850  0.88462850  0.20206700  1
  O  O67  1  0.66558150  0.61537150  0.79793300  1
  O  O68  1  0.12565150  0.11264150  0.44628800  1
  O  O69  1  0.87434850  0.11264150  0.05371200  1
  O  O70  1  0.37434850  0.38735850  0.55371200  1
  O  O71  1  0.62565150  0.38735850  0.94628800  1
  O  O72  1  0.21642800  0.13568100  0.25639400  1
  O  O73  1  0.78357200  0.13568100  0.24360600  1
  O  O74  1  0.28357200  0.36431900  0.74360600  1
  O  O75  1  0.71642800  0.36431900  0.75639400  1
  O  O76  1  0.40892400  0.01248900  0.37811300  1
  O  O77  1  0.59107600  0.01248900  0.12188700  1
  O  O78  1  0.09107600  0.48751100  0.62188700  1
  O  O79  1  0.90892400  0.48751100  0.87811300  1
  O  O80  1  0.99975750  0.31768450  0.36642300  1
  O  O81  1  0.00024250  0.31768450  0.13357700  1
  O  O82  1  0.50024250  0.18231550  0.63357700  1
  O  O83  1  0.49975750  0.18231550  0.86642300  1
  O  O84  1  0.74719300  0.36335700  0.48927400  1
  O  O85  1  0.25280700  0.36335700  0.01072600  1
  O  O86  1  0.75280700  0.13664300  0.51072600  1
  O  O87  1  0.24719300  0.13664300  0.98927400  1
  O  O88  1  0.92906450  0.27887250  0.88482300  1
  O  O89  1  0.07093550  0.27887250  0.61517700  1
  O  O90  1  0.57093550  0.22112750  0.11517700  1
  O  O91  1  0.42906450  0.22112750  0.38482300  1
  O  O92  1  0.66558150  0.38462850  0.29793300  1
  O  O93  1  0.83441850  0.11537150  0.70206700  1
  O  O94  1  0.33441850  0.38462850  0.20206700  1
  O  O95  1  0.16558150  0.11537150  0.79793300  1
