# generated using pymatgen
data_Mn2As2O7
_symmetry_space_group_name_H-M   'P 1'
_cell_length_a   6.85009250
_cell_length_b   8.93773806
_cell_length_c   4.90280631
_cell_angle_alpha   90.00000000
_cell_angle_beta   102.76668609
_cell_angle_gamma   90.00000000
_symmetry_Int_Tables_number   1
_chemical_formula_structural   Mn2As2O7
_chemical_formula_sum   'Mn4 As4 O14'
_cell_volume   292.75021693
_cell_formula_units_Z   2
loop_
 _symmetry_equiv_pos_site_id
 _symmetry_equiv_pos_as_xyz
  1  'x, y, z'
loop_
 _atom_site_type_symbol
 _atom_site_label
 _atom_site_symmetry_multiplicity
 _atom_site_fract_x
 _atom_site_fract_y
 _atom_site_fract_z
 _atom_site_occupancy
  Mn  Mn0  1  0.50000000  0.19201200  0.50000000  1
  Mn  Mn1  1  0.50000000  0.80798800  0.50000000  1
  Mn  Mn2  1  0.00000000  0.69201200  0.50000000  1
  Mn  Mn3  1  0.00000000  0.30798800  0.50000000  1
  As  As4  1  0.76828100  0.00000000  0.09670400  1
  As  As5  1  0.23171900  0.00000000  0.90329600  1
  As  As6  1  0.26828100  0.50000000  0.09670400  1
  As  As7  1  0.73171900  0.50000000  0.90329600  1
  O  O8  1  0.00000000  0.00000000  0.00000000  1
  O  O9  1  0.60301800  0.00000000  0.77868800  1
  O  O10  1  0.39698200  0.00000000  0.22131200  1
  O  O11  1  0.76563250  0.15974250  0.28761800  1
  O  O12  1  0.23436750  0.15974250  0.71238200  1
  O  O13  1  0.23436750  0.84025750  0.71238200  1
  O  O14  1  0.76563250  0.84025750  0.28761800  1
  O  O15  1  0.50000000  0.50000000  0.00000000  1
  O  O16  1  0.10301800  0.50000000  0.77868800  1
  O  O17  1  0.89698200  0.50000000  0.22131200  1
  O  O18  1  0.26563250  0.65974250  0.28761800  1
  O  O19  1  0.73436750  0.65974250  0.71238200  1
  O  O20  1  0.73436750  0.34025750  0.71238200  1
  O  O21  1  0.26563250  0.34025750  0.28761800  1
