# generated using pymatgen
data_Sr2Ta2O7
_symmetry_space_group_name_H-M   'P 1'
_cell_length_a   3.98985400
_cell_length_b   27.65952200
_cell_length_c   5.75570000
_cell_angle_alpha   90.00000000
_cell_angle_beta   90.00000000
_cell_angle_gamma   90.00000000
_symmetry_Int_Tables_number   1
_chemical_formula_structural   Sr2Ta2O7
_chemical_formula_sum   'Sr8 Ta8 O28'
_cell_volume   635.18440081
_cell_formula_units_Z   4
loop_
 _symmetry_equiv_pos_site_id
 _symmetry_equiv_pos_as_xyz
  1  'x, y, z'
loop_
 _atom_site_type_symbol
 _atom_site_label
 _atom_site_symmetry_multiplicity
 _atom_site_fract_x
 _atom_site_fract_y
 _atom_site_fract_z
 _atom_site_occupancy
  Sr  Sr0  1  0.00000000  0.71464300  0.75000000  1
  Sr  Sr1  1  0.50000000  0.78535700  0.25000000  1
  Sr  Sr2  1  0.00000000  0.55342100  0.25000000  1
  Sr  Sr3  1  0.50000000  0.94657900  0.75000000  1
  Sr  Sr4  1  0.50000000  0.21464300  0.75000000  1
  Sr  Sr5  1  0.00000000  0.28535700  0.25000000  1
  Sr  Sr6  1  0.50000000  0.05342100  0.25000000  1
  Sr  Sr7  1  0.00000000  0.44657900  0.75000000  1
  Ta  Ta8  1  0.50000000  0.65908700  0.25000000  1
  Ta  Ta9  1  0.00000000  0.84091300  0.75000000  1
  Ta  Ta10  1  0.50000000  0.55467900  0.75000000  1
  Ta  Ta11  1  0.00000000  0.94532100  0.25000000  1
  Ta  Ta12  1  0.00000000  0.15908700  0.25000000  1
  Ta  Ta13  1  0.50000000  0.34091300  0.75000000  1
  Ta  Ta14  1  0.00000000  0.05467900  0.75000000  1
  Ta  Ta15  1  0.50000000  0.44532100  0.25000000  1
  O  O16  1  0.00000000  0.00000000  0.00000000  1
  O  O17  1  0.00000000  0.00000000  0.50000000  1
  O  O18  1  0.50000000  0.95299800  0.25000000  1
  O  O19  1  0.00000000  0.54700200  0.75000000  1
  O  O20  1  0.50000000  0.59897400  0.00764600  1
  O  O21  1  0.00000000  0.90102600  0.99235400  1
  O  O22  1  0.00000000  0.90102600  0.50764600  1
  O  O23  1  0.50000000  0.59897400  0.49235400  1
  O  O24  1  0.50000000  0.70582600  0.48812600  1
  O  O25  1  0.00000000  0.79417400  0.51187400  1
  O  O26  1  0.00000000  0.79417400  0.98812600  1
  O  O27  1  0.50000000  0.70582600  0.01187400  1
  O  O28  1  0.00000000  0.64906100  0.25000000  1
  O  O29  1  0.50000000  0.85093900  0.75000000  1
  O  O30  1  0.50000000  0.50000000  0.00000000  1
  O  O31  1  0.50000000  0.50000000  0.50000000  1
  O  O32  1  0.00000000  0.45299800  0.25000000  1
  O  O33  1  0.50000000  0.04700200  0.75000000  1
  O  O34  1  0.00000000  0.09897400  0.00764600  1
  O  O35  1  0.50000000  0.40102600  0.99235400  1
  O  O36  1  0.50000000  0.40102600  0.50764600  1
  O  O37  1  0.00000000  0.09897400  0.49235400  1
  O  O38  1  0.00000000  0.20582600  0.48812600  1
  O  O39  1  0.50000000  0.29417400  0.51187400  1
  O  O40  1  0.50000000  0.29417400  0.98812600  1
  O  O41  1  0.00000000  0.20582600  0.01187400  1
  O  O42  1  0.50000000  0.14906100  0.25000000  1
  O  O43  1  0.00000000  0.35093900  0.75000000  1
