# generated using pymatgen
data_Na5Tb(MoO4)4
_symmetry_space_group_name_H-M   'P 1'
_cell_length_a   11.59249800
_cell_length_b   11.59249800
_cell_length_c   11.56308000
_cell_angle_alpha   90.00000000
_cell_angle_beta   90.00000000
_cell_angle_gamma   90.00000000
_symmetry_Int_Tables_number   1
_chemical_formula_structural   Na5Tb(MoO4)4
_chemical_formula_sum   'Na20 Tb4 Mo16 O64'
_cell_volume   1553.91618312
_cell_formula_units_Z   4
loop_
 _symmetry_equiv_pos_site_id
 _symmetry_equiv_pos_as_xyz
  1  'x, y, z'
loop_
 _atom_site_type_symbol
 _atom_site_label
 _atom_site_symmetry_multiplicity
 _atom_site_fract_x
 _atom_site_fract_y
 _atom_site_fract_z
 _atom_site_occupancy
  Na  Na0  1  0.62096650  0.70371750  0.21789350  1
  Na  Na1  1  0.70371750  0.87903350  0.96789350  1
  Na  Na2  1  0.79628250  0.62096650  0.46789350  1
  Na  Na3  1  0.87903350  0.79628250  0.71789350  1
  Na  Na4  1  0.87903350  0.29628250  0.03210650  1
  Na  Na5  1  0.79628250  0.12096650  0.28210650  1
  Na  Na6  1  0.70371750  0.37903350  0.78210650  1
  Na  Na7  1  0.62096650  0.20371750  0.53210650  1
  Na  Na8  1  0.50000000  0.50000000  0.50000000  1
  Na  Na9  1  0.50000000  0.00000000  0.25000000  1
  Na  Na10  1  0.12096650  0.20371750  0.71789350  1
  Na  Na11  1  0.20371750  0.37903350  0.46789350  1
  Na  Na12  1  0.29628250  0.12096650  0.96789350  1
  Na  Na13  1  0.37903350  0.29628250  0.21789350  1
  Na  Na14  1  0.37903350  0.79628250  0.53210650  1
  Na  Na15  1  0.29628250  0.62096650  0.78210650  1
  Na  Na16  1  0.20371750  0.87903350  0.28210650  1
  Na  Na17  1  0.12096650  0.70371750  0.03210650  1
  Na  Na18  1  0.00000000  0.00000000  0.00000000  1
  Na  Na19  1  0.00000000  0.50000000  0.75000000  1
  Tb  Tb20  1  0.50000000  0.00000000  0.75000000  1
  Tb  Tb21  1  0.00000000  0.00000000  0.50000000  1
  Tb  Tb22  1  0.00000000  0.50000000  0.25000000  1
  Tb  Tb23  1  0.50000000  0.50000000  0.00000000  1
  Mo  Mo24  1  0.68117050  0.90628750  0.48637750  1
  Mo  Mo25  1  0.40628750  0.31882950  0.73637750  1
  Mo  Mo26  1  0.68117050  0.40628750  0.26362250  1
  Mo  Mo27  1  0.90628750  0.31882950  0.51362250  1
  Mo  Mo28  1  0.59371250  0.18117050  0.01362250  1
  Mo  Mo29  1  0.81882950  0.09371250  0.76362250  1
  Mo  Mo30  1  0.81882950  0.59371250  0.98637750  1
  Mo  Mo31  1  0.09371250  0.18117050  0.23637750  1
  Mo  Mo32  1  0.18117050  0.40628750  0.98637750  1
  Mo  Mo33  1  0.90628750  0.81882950  0.23637750  1
  Mo  Mo34  1  0.18117050  0.90628750  0.76362250  1
  Mo  Mo35  1  0.40628750  0.81882950  0.01362250  1
  Mo  Mo36  1  0.09371250  0.68117050  0.51362250  1
  Mo  Mo37  1  0.31882950  0.59371250  0.26362250  1
  Mo  Mo38  1  0.31882950  0.09371250  0.48637750  1
  Mo  Mo39  1  0.59371250  0.68117050  0.73637750  1
  O  O40  1  0.82045900  0.41691200  0.18930500  1
  O  O41  1  0.91691200  0.17954100  0.43930500  1
  O  O42  1  0.08308800  0.82045900  0.43930500  1
  O  O43  1  0.67954100  0.08308800  0.68930500  1
  O  O44  1  0.17954100  0.08308800  0.56069500  1
  O  O45  1  0.08308800  0.32045900  0.31069500  1
  O  O46  1  0.41691200  0.17954100  0.81069500  1
  O  O47  1  0.82045900  0.91691200  0.56069500  1
  O  O48  1  0.06117400  0.88963500  0.66453300  1
  O  O49  1  0.88963500  0.43882600  0.41453300  1
  O  O50  1  0.61036500  0.06117400  0.91453300  1
  O  O51  1  0.93882600  0.11036500  0.66453300  1
  O  O52  1  0.43882600  0.11036500  0.58546700  1
  O  O53  1  0.11036500  0.06117400  0.33546700  1
  O  O54  1  0.88963500  0.93882600  0.33546700  1
  O  O55  1  0.06117400  0.38963500  0.08546700  1
  O  O56  1  0.64824950  0.52939050  0.35205050  1
  O  O57  1  0.02939050  0.35175050  0.60205050  1
  O  O58  1  0.97060950  0.64824950  0.60205050  1
  O  O59  1  0.85175050  0.97060950  0.85205050  1
  O  O60  1  0.67747850  0.78338850  0.39488450  1
  O  O61  1  0.28338850  0.32252150  0.64488450  1
  O  O62  1  0.21661150  0.17747850  0.14488450  1
  O  O63  1  0.82252150  0.71661150  0.89488450  1
  O  O64  1  0.82252150  0.21661150  0.85511550  1
  O  O65  1  0.71661150  0.17747850  0.10511550  1
  O  O66  1  0.78338850  0.32252150  0.60511550  1
  O  O67  1  0.67747850  0.28338850  0.35511550  1
  O  O68  1  0.64824950  0.02939050  0.39794950  1
  O  O69  1  0.52939050  0.35175050  0.64794950  1
  O  O70  1  0.97060950  0.14824950  0.14794950  1
  O  O71  1  0.35175050  0.97060950  0.39794950  1
  O  O72  1  0.32045900  0.91691200  0.68930500  1
  O  O73  1  0.41691200  0.67954100  0.93930500  1
  O  O74  1  0.58308800  0.32045900  0.93930500  1
  O  O75  1  0.17954100  0.58308800  0.18930500  1
  O  O76  1  0.67954100  0.58308800  0.06069500  1
  O  O77  1  0.58308800  0.82045900  0.81069500  1
  O  O78  1  0.91691200  0.67954100  0.31069500  1
  O  O79  1  0.32045900  0.41691200  0.06069500  1
  O  O80  1  0.56117400  0.38963500  0.16453300  1
  O  O81  1  0.38963500  0.93882600  0.91453300  1
  O  O82  1  0.11036500  0.56117400  0.41453300  1
  O  O83  1  0.43882600  0.61036500  0.16453300  1
  O  O84  1  0.93882600  0.61036500  0.08546700  1
  O  O85  1  0.61036500  0.56117400  0.83546700  1
  O  O86  1  0.38963500  0.43882600  0.83546700  1
  O  O87  1  0.56117400  0.88963500  0.58546700  1
  O  O88  1  0.14824950  0.02939050  0.85205050  1
  O  O89  1  0.52939050  0.85175050  0.10205050  1
  O  O90  1  0.47060950  0.14824950  0.10205050  1
  O  O91  1  0.35175050  0.47060950  0.35205050  1
  O  O92  1  0.17747850  0.28338850  0.89488450  1
  O  O93  1  0.78338850  0.82252150  0.14488450  1
  O  O94  1  0.71661150  0.67747850  0.64488450  1
  O  O95  1  0.32252150  0.21661150  0.39488450  1
  O  O96  1  0.32252150  0.71661150  0.35511550  1
  O  O97  1  0.21661150  0.67747850  0.60511550  1
  O  O98  1  0.28338850  0.82252150  0.10511550  1
  O  O99  1  0.17747850  0.78338850  0.85511550  1
  O  O100  1  0.14824950  0.52939050  0.89794950  1
  O  O101  1  0.02939050  0.85175050  0.14794950  1
  O  O102  1  0.47060950  0.64824950  0.64794950  1
  O  O103  1  0.85175050  0.47060950  0.89794950  1
