# generated using pymatgen
data_Ba2WO3F4
_symmetry_space_group_name_H-M   'P 1'
_cell_length_a   11.74431600
_cell_length_b   9.57347600
_cell_length_c   7.32050015
_cell_angle_alpha   90.00000000
_cell_angle_beta   126.04703138
_cell_angle_gamma   90.00000000
_symmetry_Int_Tables_number   1
_chemical_formula_structural   Ba2WO3F4
_chemical_formula_sum   'Ba8 W4 O12 F16'
_cell_volume   665.48236182
_cell_formula_units_Z   4
loop_
 _symmetry_equiv_pos_site_id
 _symmetry_equiv_pos_as_xyz
  1  'x, y, z'
loop_
 _atom_site_type_symbol
 _atom_site_label
 _atom_site_symmetry_multiplicity
 _atom_site_fract_x
 _atom_site_fract_y
 _atom_site_fract_z
 _atom_site_occupancy
  Ba  Ba0  1  0.11929650  0.37963550  0.44522100  1
  Ba  Ba1  1  0.11929650  0.62036450  0.94522100  1
  Ba  Ba2  1  0.82789100  0.67339400  0.10986400  1
  Ba  Ba3  1  0.82789100  0.32660600  0.60986400  1
  Ba  Ba4  1  0.61929650  0.87963550  0.44522100  1
  Ba  Ba5  1  0.61929650  0.12036450  0.94522100  1
  Ba  Ba6  1  0.32789100  0.17339400  0.10986400  1
  Ba  Ba7  1  0.32789100  0.82660600  0.60986400  1
  W  W8  1  0.00143600  0.97287500  0.99234500  1
  W  W9  1  0.00143600  0.02712500  0.49234500  1
  W  W10  1  0.50143600  0.47287500  0.99234500  1
  W  W11  1  0.50143600  0.52712500  0.49234500  1
  O  O12  1  0.67653950  0.59242950  0.62430800  1
  O  O13  1  0.67653950  0.40757050  0.12430800  1
  O  O14  1  0.98731150  0.06250350  0.73843300  1
  O  O15  1  0.98731150  0.93749650  0.23843300  1
  O  O16  1  0.90207950  0.18213450  0.33881600  1
  O  O17  1  0.90207950  0.81786550  0.83881600  1
  O  O18  1  0.17653950  0.09242950  0.62430800  1
  O  O19  1  0.17653950  0.90757050  0.12430800  1
  O  O20  1  0.48731150  0.56250350  0.73843300  1
  O  O21  1  0.48731150  0.43749650  0.23843300  1
  O  O22  1  0.40207950  0.68213450  0.33881600  1
  O  O23  1  0.40207950  0.31786550  0.83881600  1
  F  F24  1  0.31254050  0.41212050  0.34608100  1
  F  F25  1  0.31254050  0.58787950  0.84608100  1
  F  F26  1  0.94142800  0.46316400  0.99809900  1
  F  F27  1  0.94142800  0.53683600  0.49809900  1
  F  F28  1  0.08491500  0.16601700  0.14179500  1
  F  F29  1  0.08491500  0.83398300  0.64179500  1
  F  F30  1  0.12416300  0.64806200  0.32603900  1
  F  F31  1  0.12416300  0.35193800  0.82603900  1
  F  F32  1  0.81254050  0.91212050  0.34608100  1
  F  F33  1  0.81254050  0.08787950  0.84608100  1
  F  F34  1  0.44142800  0.96316400  0.99809900  1
  F  F35  1  0.44142800  0.03683600  0.49809900  1
  F  F36  1  0.58491500  0.66601700  0.14179500  1
  F  F37  1  0.58491500  0.33398300  0.64179500  1
  F  F38  1  0.62416300  0.14806200  0.32603900  1
  F  F39  1  0.62416300  0.85193800  0.82603900  1
