# generated using pymatgen
data_K2MoO4
_symmetry_space_group_name_H-M   'P 1'
_cell_length_a   12.55719800
_cell_length_b   6.22992000
_cell_length_c   7.67005954
_cell_angle_alpha   90.00000000
_cell_angle_beta   115.86190074
_cell_angle_gamma   90.00000000
_symmetry_Int_Tables_number   1
_chemical_formula_structural   K2MoO4
_chemical_formula_sum   'K8 Mo4 O16'
_cell_volume   539.93703773
_cell_formula_units_Z   4
loop_
 _symmetry_equiv_pos_site_id
 _symmetry_equiv_pos_as_xyz
  1  'x, y, z'
loop_
 _atom_site_type_symbol
 _atom_site_label
 _atom_site_symmetry_multiplicity
 _atom_site_fract_x
 _atom_site_fract_y
 _atom_site_fract_z
 _atom_site_occupancy
  K  K0  1  0.49039700  0.00000000  0.76519900  1
  K  K1  1  0.00960300  0.50000000  0.23480100  1
  K  K2  1  0.34328600  0.50000000  0.25091300  1
  K  K3  1  0.15671400  0.00000000  0.74908700  1
  K  K4  1  0.99039700  0.50000000  0.76519900  1
  K  K5  1  0.50960300  0.00000000  0.23480100  1
  K  K6  1  0.84328600  0.00000000  0.25091300  1
  K  K7  1  0.65671400  0.50000000  0.74908700  1
  Mo  Mo8  1  0.32385900  0.50000000  0.77238100  1
  Mo  Mo9  1  0.17614100  0.00000000  0.22761900  1
  Mo  Mo10  1  0.82385900  0.00000000  0.77238100  1
  Mo  Mo11  1  0.67614100  0.50000000  0.22761900  1
  O  O12  1  0.35715700  0.26384300  0.92221100  1
  O  O13  1  0.14284300  0.76384300  0.07778900  1
  O  O14  1  0.14284300  0.23615700  0.07778900  1
  O  O15  1  0.35715700  0.73615700  0.92221100  1
  O  O16  1  0.08907800  0.00000000  0.36232300  1
  O  O17  1  0.41092200  0.50000000  0.63767700  1
  O  O18  1  0.16705300  0.50000000  0.61631300  1
  O  O19  1  0.33294700  0.00000000  0.38368700  1
  O  O20  1  0.85715700  0.76384300  0.92221100  1
  O  O21  1  0.64284300  0.26384300  0.07778900  1
  O  O22  1  0.64284300  0.73615700  0.07778900  1
  O  O23  1  0.85715700  0.23615700  0.92221100  1
  O  O24  1  0.58907800  0.50000000  0.36232300  1
  O  O25  1  0.91092200  0.00000000  0.63767700  1
  O  O26  1  0.66705300  0.00000000  0.61631300  1
  O  O27  1  0.83294700  0.50000000  0.38368700  1
