# generated using pymatgen
data_Na2ZnGaF7
_symmetry_space_group_name_H-M   'P 1'
_cell_length_a   12.71017600
_cell_length_b   7.42497400
_cell_length_c   24.78614647
_cell_angle_alpha   90.00000000
_cell_angle_beta   99.46198855
_cell_angle_gamma   90.00000000
_symmetry_Int_Tables_number   1
_chemical_formula_structural   Na2ZnGaF7
_chemical_formula_sum   'Na32 Zn16 Ga16 F112'
_cell_volume   2307.31199134
_cell_formula_units_Z   16
loop_
 _symmetry_equiv_pos_site_id
 _symmetry_equiv_pos_as_xyz
  1  'x, y, z'
loop_
 _atom_site_type_symbol
 _atom_site_label
 _atom_site_symmetry_multiplicity
 _atom_site_fract_x
 _atom_site_fract_y
 _atom_site_fract_z
 _atom_site_occupancy
  Na  Na0  1  0.00000000  0.00000000  0.00000000  1
  Na  Na1  1  0.00000000  0.00000000  0.50000000  1
  Na  Na2  1  0.50000000  0.00000000  0.00000000  1
  Na  Na3  1  0.50000000  0.00000000  0.50000000  1
  Na  Na4  1  0.25000000  0.25000000  0.50000000  1
  Na  Na5  1  0.25000000  0.75000000  0.00000000  1
  Na  Na6  1  0.50000000  0.28763500  0.25000000  1
  Na  Na7  1  0.50000000  0.71236500  0.75000000  1
  Na  Na8  1  0.25252150  0.04812250  0.25017300  1
  Na  Na9  1  0.74747850  0.04812250  0.24982700  1
  Na  Na10  1  0.74747850  0.95187750  0.74982700  1
  Na  Na11  1  0.25252150  0.95187750  0.75017300  1
  Na  Na12  1  0.87381750  0.00840550  0.12177000  1
  Na  Na13  1  0.12618250  0.00840550  0.37823000  1
  Na  Na14  1  0.12618250  0.99159450  0.87823000  1
  Na  Na15  1  0.87381750  0.99159450  0.62177000  1
  Na  Na16  1  0.50000000  0.50000000  0.00000000  1
  Na  Na17  1  0.50000000  0.50000000  0.50000000  1
  Na  Na18  1  0.00000000  0.50000000  0.00000000  1
  Na  Na19  1  0.00000000  0.50000000  0.50000000  1
  Na  Na20  1  0.75000000  0.75000000  0.50000000  1
  Na  Na21  1  0.75000000  0.25000000  0.00000000  1
  Na  Na22  1  0.00000000  0.78763500  0.25000000  1
  Na  Na23  1  0.00000000  0.21236500  0.75000000  1
  Na  Na24  1  0.75252150  0.54812250  0.25017300  1
  Na  Na25  1  0.24747850  0.54812250  0.24982700  1
  Na  Na26  1  0.24747850  0.45187750  0.74982700  1
  Na  Na27  1  0.75252150  0.45187750  0.75017300  1
  Na  Na28  1  0.37381750  0.50840550  0.12177000  1
  Na  Na29  1  0.62618250  0.50840550  0.37823000  1
  Na  Na30  1  0.62618250  0.49159450  0.87823000  1
  Na  Na31  1  0.37381750  0.49159450  0.62177000  1
  Zn  Zn32  1  0.37771150  0.00858650  0.12784000  1
  Zn  Zn33  1  0.62228850  0.00858650  0.37216000  1
  Zn  Zn34  1  0.62228850  0.99141350  0.87216000  1
  Zn  Zn35  1  0.37771150  0.99141350  0.62784000  1
  Zn  Zn36  1  0.62644150  0.76127650  0.12580400  1
  Zn  Zn37  1  0.37355850  0.76127650  0.37419600  1
  Zn  Zn38  1  0.37355850  0.23872350  0.87419600  1
  Zn  Zn39  1  0.62644150  0.23872350  0.62580400  1
  Zn  Zn40  1  0.87771150  0.50858650  0.12784000  1
  Zn  Zn41  1  0.12228850  0.50858650  0.37216000  1
  Zn  Zn42  1  0.12228850  0.49141350  0.87216000  1
  Zn  Zn43  1  0.87771150  0.49141350  0.62784000  1
  Zn  Zn44  1  0.12644150  0.26127650  0.12580400  1
  Zn  Zn45  1  0.87355850  0.26127650  0.37419600  1
  Zn  Zn46  1  0.87355850  0.73872350  0.87419600  1
  Zn  Zn47  1  0.12644150  0.73872350  0.62580400  1
  Ga  Ga48  1  0.25000000  0.25000000  0.00000000  1
  Ga  Ga49  1  0.25000000  0.75000000  0.50000000  1
  Ga  Ga50  1  0.50000000  0.74860800  0.25000000  1
  Ga  Ga51  1  0.50000000  0.25139200  0.75000000  1
  Ga  Ga52  1  0.62630200  0.26325000  0.12523100  1
  Ga  Ga53  1  0.37369800  0.26325000  0.37476900  1
  Ga  Ga54  1  0.37369800  0.73675000  0.87476900  1
  Ga  Ga55  1  0.62630200  0.73675000  0.62523100  1
  Ga  Ga56  1  0.75000000  0.75000000  0.00000000  1
  Ga  Ga57  1  0.75000000  0.25000000  0.50000000  1
  Ga  Ga58  1  0.00000000  0.24860800  0.25000000  1
  Ga  Ga59  1  0.00000000  0.75139200  0.75000000  1
  Ga  Ga60  1  0.12630200  0.76325000  0.12523100  1
  Ga  Ga61  1  0.87369800  0.76325000  0.37476900  1
  Ga  Ga62  1  0.87369800  0.23675000  0.87476900  1
  Ga  Ga63  1  0.12630200  0.23675000  0.62523100  1
  F  F64  1  0.58890700  0.77597700  0.54686900  1
  F  F65  1  0.41109300  0.77597700  0.95313100  1
  F  F66  1  0.41109300  0.22402300  0.45313100  1
  F  F67  1  0.58890700  0.22402300  0.04686900  1
  F  F68  1  0.66520850  0.69240950  0.70316900  1
  F  F69  1  0.33479150  0.69240950  0.79683100  1
  F  F70  1  0.33479150  0.30759050  0.29683100  1
  F  F71  1  0.66520850  0.30759050  0.20316900  1
  F  F72  1  0.08124250  0.93906850  0.79046300  1
  F  F73  1  0.91875750  0.93906850  0.70953700  1
  F  F74  1  0.91875750  0.06093150  0.20953700  1
  F  F75  1  0.08124250  0.06093150  0.29046300  1
  F  F76  1  0.82952600  0.03981900  0.53169200  1
  F  F77  1  0.17047400  0.03981900  0.96830800  1
  F  F78  1  0.17047400  0.96018100  0.46830800  1
  F  F79  1  0.82952600  0.96018100  0.03169200  1
  F  F80  1  0.47377000  0.16919200  0.59846800  1
  F  F81  1  0.52623000  0.16919200  0.90153200  1
  F  F82  1  0.52623000  0.83080800  0.40153200  1
  F  F83  1  0.47377000  0.83080800  0.09846800  1
  F  F84  1  0.27818850  0.81306450  0.65494700  1
  F  F85  1  0.61123200  0.24742500  0.70652000  1
  F  F86  1  0.72181150  0.81306450  0.84505300  1
  F  F87  1  0.27818850  0.18693550  0.15494700  1
  F  F88  1  0.67913000  0.97773200  0.64063200  1
  F  F89  1  0.32087000  0.97773200  0.85936800  1
  F  F90  1  0.32087000  0.02226800  0.35936800  1
  F  F91  1  0.67913000  0.02226800  0.14063200  1
  F  F92  1  0.07159750  0.99753650  0.60911000  1
  F  F93  1  0.92840250  0.99753650  0.89089000  1
  F  F94  1  0.92840250  0.00246350  0.39089000  1
  F  F95  1  0.07159750  0.00246350  0.10911000  1
  F  F96  1  0.33682100  0.08433100  0.04675800  1
  F  F97  1  0.66317900  0.08433100  0.45324200  1
  F  F98  1  0.66317900  0.91566900  0.95324200  1
  F  F99  1  0.33682100  0.91566900  0.54675800  1
  F  F100  1  0.41995400  0.94278800  0.20964500  1
  F  F101  1  0.58004600  0.94278800  0.29035500  1
  F  F102  1  0.58004600  0.05721200  0.79035500  1
  F  F103  1  0.41995400  0.05721200  0.70964500  1
  F  F104  1  0.48626150  0.21481450  0.14134400  1
  F  F105  1  0.51373850  0.21481450  0.35865600  1
  F  F106  1  0.51373850  0.78518550  0.85865600  1
  F  F107  1  0.48626150  0.78518550  0.64134400  1
  F  F108  1  0.26714050  0.80769050  0.10989200  1
  F  F109  1  0.73285950  0.80769050  0.39010800  1
  F  F110  1  0.73285950  0.19230950  0.89010800  1
  F  F111  1  0.26714050  0.19230950  0.60989200  1
  F  F112  1  0.64214800  0.77638100  0.04507400  1
  F  F113  1  0.35785200  0.77638100  0.45492600  1
  F  F114  1  0.35785200  0.22361900  0.95492600  1
  F  F115  1  0.64214800  0.22361900  0.54507400  1
  F  F116  1  0.61123200  0.75257500  0.20652000  1
  F  F117  1  0.38876800  0.75257500  0.29348000  1
  F  F118  1  0.38876800  0.24742500  0.79348000  1
  F  F119  1  0.72181150  0.18693550  0.34505300  1
  F  F120  1  0.08890700  0.27597700  0.54686900  1
  F  F121  1  0.91109300  0.27597700  0.95313100  1
  F  F122  1  0.91109300  0.72402300  0.45313100  1
  F  F123  1  0.08890700  0.72402300  0.04686900  1
  F  F124  1  0.16520850  0.19240950  0.70316900  1
  F  F125  1  0.83479150  0.19240950  0.79683100  1
  F  F126  1  0.83479150  0.80759050  0.29683100  1
  F  F127  1  0.16520850  0.80759050  0.20316900  1
  F  F128  1  0.58124250  0.43906850  0.79046300  1
  F  F129  1  0.41875750  0.43906850  0.70953700  1
  F  F130  1  0.41875750  0.56093150  0.20953700  1
  F  F131  1  0.58124250  0.56093150  0.29046300  1
  F  F132  1  0.32952600  0.53981900  0.53169200  1
  F  F133  1  0.67047400  0.53981900  0.96830800  1
  F  F134  1  0.67047400  0.46018100  0.46830800  1
  F  F135  1  0.32952600  0.46018100  0.03169200  1
  F  F136  1  0.97377000  0.66919200  0.59846800  1
  F  F137  1  0.02623000  0.66919200  0.90153200  1
  F  F138  1  0.02623000  0.33080800  0.40153200  1
  F  F139  1  0.97377000  0.33080800  0.09846800  1
  F  F140  1  0.77818850  0.31306450  0.65494700  1
  F  F141  1  0.11123200  0.74742500  0.70652000  1
  F  F142  1  0.22181150  0.31306450  0.84505300  1
  F  F143  1  0.77818850  0.68693550  0.15494700  1
  F  F144  1  0.17913000  0.47773200  0.64063200  1
  F  F145  1  0.82087000  0.47773200  0.85936800  1
  F  F146  1  0.82087000  0.52226800  0.35936800  1
  F  F147  1  0.17913000  0.52226800  0.14063200  1
  F  F148  1  0.57159750  0.49753650  0.60911000  1
  F  F149  1  0.42840250  0.49753650  0.89089000  1
  F  F150  1  0.42840250  0.50246350  0.39089000  1
  F  F151  1  0.57159750  0.50246350  0.10911000  1
  F  F152  1  0.83682100  0.58433100  0.04675800  1
  F  F153  1  0.16317900  0.58433100  0.45324200  1
  F  F154  1  0.16317900  0.41566900  0.95324200  1
  F  F155  1  0.83682100  0.41566900  0.54675800  1
  F  F156  1  0.91995400  0.44278800  0.20964500  1
  F  F157  1  0.08004600  0.44278800  0.29035500  1
  F  F158  1  0.08004600  0.55721200  0.79035500  1
  F  F159  1  0.91995400  0.55721200  0.70964500  1
  F  F160  1  0.98626150  0.71481450  0.14134400  1
  F  F161  1  0.01373850  0.71481450  0.35865600  1
  F  F162  1  0.01373850  0.28518550  0.85865600  1
  F  F163  1  0.98626150  0.28518550  0.64134400  1
  F  F164  1  0.76714050  0.30769050  0.10989200  1
  F  F165  1  0.23285950  0.30769050  0.39010800  1
  F  F166  1  0.23285950  0.69230950  0.89010800  1
  F  F167  1  0.76714050  0.69230950  0.60989200  1
  F  F168  1  0.14214800  0.27638100  0.04507400  1
  F  F169  1  0.85785200  0.27638100  0.45492600  1
  F  F170  1  0.85785200  0.72361900  0.95492600  1
  F  F171  1  0.14214800  0.72361900  0.54507400  1
  F  F172  1  0.11123200  0.25257500  0.20652000  1
  F  F173  1  0.88876800  0.25257500  0.29348000  1
  F  F174  1  0.88876800  0.74742500  0.79348000  1
  F  F175  1  0.22181150  0.68693550  0.34505300  1
