# generated using pymatgen
data_AlAgSe2
_symmetry_space_group_name_H-M   'P 1'
_cell_length_a   6.04271600
_cell_length_b   6.04271600
_cell_length_c   11.11572600
_cell_angle_alpha   90.00000000
_cell_angle_beta   90.00000000
_cell_angle_gamma   90.00000000
_symmetry_Int_Tables_number   1
_chemical_formula_structural   AlAgSe2
_chemical_formula_sum   'Al4 Ag4 Se8'
_cell_volume   405.88425061
_cell_formula_units_Z   4
loop_
 _symmetry_equiv_pos_site_id
 _symmetry_equiv_pos_as_xyz
  1  'x, y, z'
loop_
 _atom_site_type_symbol
 _atom_site_label
 _atom_site_symmetry_multiplicity
 _atom_site_fract_x
 _atom_site_fract_y
 _atom_site_fract_z
 _atom_site_occupancy
  Al  Al0  1  0.50000000  0.00000000  0.25000000  1
  Al  Al1  1  0.50000000  0.50000000  0.00000000  1
  Al  Al2  1  0.00000000  0.50000000  0.75000000  1
  Al  Al3  1  0.00000000  0.00000000  0.50000000  1
  Ag  Ag4  1  0.00000000  0.00000000  0.00000000  1
  Ag  Ag5  1  0.00000000  0.50000000  0.25000000  1
  Ag  Ag6  1  0.50000000  0.50000000  0.50000000  1
  Ag  Ag7  1  0.50000000  0.00000000  0.75000000  1
  Se  Se8  1  0.25000000  0.21387500  0.37500000  1
  Se  Se9  1  0.71387500  0.25000000  0.12500000  1
  Se  Se10  1  0.75000000  0.78612500  0.37500000  1
  Se  Se11  1  0.28612500  0.75000000  0.12500000  1
  Se  Se12  1  0.75000000  0.71387500  0.87500000  1
  Se  Se13  1  0.21387500  0.75000000  0.62500000  1
  Se  Se14  1  0.25000000  0.28612500  0.87500000  1
  Se  Se15  1  0.78612500  0.25000000  0.62500000  1
