# generated using pymatgen
data_TlPO4
_symmetry_space_group_name_H-M   'P 1'
_cell_length_a   5.49860000
_cell_length_b   8.27040400
_cell_length_c   7.25969800
_cell_angle_alpha   90.00000000
_cell_angle_beta   90.00000000
_cell_angle_gamma   90.00000000
_symmetry_Int_Tables_number   1
_chemical_formula_structural   TlPO4
_chemical_formula_sum   'Tl4 P4 O16'
_cell_volume   330.13943769
_cell_formula_units_Z   4
loop_
 _symmetry_equiv_pos_site_id
 _symmetry_equiv_pos_as_xyz
  1  'x, y, z'
loop_
 _atom_site_type_symbol
 _atom_site_label
 _atom_site_symmetry_multiplicity
 _atom_site_fract_x
 _atom_site_fract_y
 _atom_site_fract_z
 _atom_site_occupancy
  Tl  Tl0  1  0.00000000  0.00000000  0.50000000  1
  Tl  Tl1  1  0.00000000  0.00000000  0.00000000  1
  Tl  Tl2  1  0.50000000  0.50000000  0.50000000  1
  Tl  Tl3  1  0.50000000  0.50000000  0.00000000  1
  P  P4  1  0.50000000  0.85048100  0.25000000  1
  P  P5  1  0.50000000  0.14951900  0.75000000  1
  P  P6  1  0.00000000  0.35048100  0.25000000  1
  P  P7  1  0.00000000  0.64951900  0.75000000  1
  O  O8  1  0.50000000  0.24501200  0.56836900  1
  O  O9  1  0.50000000  0.75498800  0.06836900  1
  O  O10  1  0.50000000  0.75498800  0.43163100  1
  O  O11  1  0.50000000  0.24501200  0.93163100  1
  O  O12  1  0.73259400  0.03770600  0.75000000  1
  O  O13  1  0.26740600  0.96229400  0.25000000  1
  O  O14  1  0.73259400  0.96229400  0.25000000  1
  O  O15  1  0.26740600  0.03770600  0.75000000  1
  O  O16  1  0.00000000  0.74501200  0.56836900  1
  O  O17  1  0.00000000  0.25498800  0.06836900  1
  O  O18  1  0.00000000  0.25498800  0.43163100  1
  O  O19  1  0.00000000  0.74501200  0.93163100  1
  O  O20  1  0.23259400  0.53770600  0.75000000  1
  O  O21  1  0.76740600  0.46229400  0.25000000  1
  O  O22  1  0.23259400  0.46229400  0.25000000  1
  O  O23  1  0.76740600  0.53770600  0.75000000  1
