# generated using pymatgen
data_NaAlTe2
_symmetry_space_group_name_H-M   'P 1'
_cell_length_a   8.30990600
_cell_length_b   8.30990600
_cell_length_c   6.87576600
_cell_angle_alpha   90.00000000
_cell_angle_beta   90.00000000
_cell_angle_gamma   90.00000000
_symmetry_Int_Tables_number   1
_chemical_formula_structural   NaAlTe2
_chemical_formula_sum   'Na4 Al4 Te8'
_cell_volume   474.80284266
_cell_formula_units_Z   4
loop_
 _symmetry_equiv_pos_site_id
 _symmetry_equiv_pos_as_xyz
  1  'x, y, z'
loop_
 _atom_site_type_symbol
 _atom_site_label
 _atom_site_symmetry_multiplicity
 _atom_site_fract_x
 _atom_site_fract_y
 _atom_site_fract_z
 _atom_site_occupancy
  Na  Na0  1  0.00000000  0.00000000  0.25000000  1
  Na  Na1  1  0.00000000  0.00000000  0.75000000  1
  Na  Na2  1  0.50000000  0.50000000  0.75000000  1
  Na  Na3  1  0.50000000  0.50000000  0.25000000  1
  Al  Al4  1  0.00000000  0.50000000  0.25000000  1
  Al  Al5  1  0.50000000  0.00000000  0.25000000  1
  Al  Al6  1  0.50000000  0.00000000  0.75000000  1
  Al  Al7  1  0.00000000  0.50000000  0.75000000  1
  Te  Te8  1  0.17330650  0.67330650  0.00000000  1
  Te  Te9  1  0.32669350  0.17330650  0.00000000  1
  Te  Te10  1  0.17330650  0.32669350  0.50000000  1
  Te  Te11  1  0.32669350  0.82669350  0.50000000  1
  Te  Te12  1  0.67330650  0.17330650  0.50000000  1
  Te  Te13  1  0.82669350  0.67330650  0.50000000  1
  Te  Te14  1  0.67330650  0.82669350  0.00000000  1
  Te  Te15  1  0.82669350  0.32669350  0.00000000  1
