# generated using pymatgen
data_Mn3(BO3)2
_symmetry_space_group_name_H-M   'P 1'
_cell_length_a   4.69332900
_cell_length_b   5.75521100
_cell_length_c   8.81800900
_cell_angle_alpha   90.00000000
_cell_angle_beta   90.00000000
_cell_angle_gamma   90.00000000
_symmetry_Int_Tables_number   1
_chemical_formula_structural   Mn3(BO3)2
_chemical_formula_sum   'Mn6 B4 O12'
_cell_volume   238.18411133
_cell_formula_units_Z   2
loop_
 _symmetry_equiv_pos_site_id
 _symmetry_equiv_pos_as_xyz
  1  'x, y, z'
loop_
 _atom_site_type_symbol
 _atom_site_label
 _atom_site_symmetry_multiplicity
 _atom_site_fract_x
 _atom_site_fract_y
 _atom_site_fract_z
 _atom_site_occupancy
  Mn  Mn0  1  0.00000000  0.00000000  0.00000000  1
  Mn  Mn1  1  0.50000000  0.00000000  0.68782650  1
  Mn  Mn2  1  0.00000000  0.50000000  0.18782650  1
  Mn  Mn3  1  0.50000000  0.50000000  0.50000000  1
  Mn  Mn4  1  0.00000000  0.50000000  0.81217350  1
  Mn  Mn5  1  0.50000000  0.00000000  0.31217350  1
  B  B6  1  0.03831900  0.24314100  0.50000000  1
  B  B7  1  0.46168100  0.74314100  0.00000000  1
  B  B8  1  0.96168100  0.75685900  0.50000000  1
  B  B9  1  0.53831900  0.25685900  0.00000000  1
  O  O10  1  0.25320200  0.31810600  0.00000000  1
  O  O11  1  0.75320200  0.18189400  0.50000000  1
  O  O12  1  0.24679800  0.81810600  0.50000000  1
  O  O13  1  0.74679800  0.68189400  0.00000000  1
  O  O14  1  0.31153400  0.78781200  0.13455550  1
  O  O15  1  0.81153400  0.71218800  0.36544450  1
  O  O16  1  0.31153400  0.78781200  0.86544450  1
  O  O17  1  0.68846600  0.21218800  0.86544450  1
  O  O18  1  0.81153400  0.71218800  0.63455550  1
  O  O19  1  0.18846600  0.28781200  0.63455550  1
  O  O20  1  0.68846600  0.21218800  0.13455550  1
  O  O21  1  0.18846600  0.28781200  0.36544450  1
