# generated using pymatgen
data_Tm2Cu(B2O5)2
_symmetry_space_group_name_H-M   'P 1'
_cell_length_a   4.57939700
_cell_length_b   7.24172100
_cell_length_c   9.32540605
_cell_angle_alpha   90.00000000
_cell_angle_beta   90.26139345
_cell_angle_gamma   90.00000000
_symmetry_Int_Tables_number   1
_chemical_formula_structural   Tm2Cu(B2O5)2
_chemical_formula_sum   'Tm4 Cu2 B8 O20'
_cell_volume   309.25256859
_cell_formula_units_Z   2
loop_
 _symmetry_equiv_pos_site_id
 _symmetry_equiv_pos_as_xyz
  1  'x, y, z'
loop_
 _atom_site_type_symbol
 _atom_site_label
 _atom_site_symmetry_multiplicity
 _atom_site_fract_x
 _atom_site_fract_y
 _atom_site_fract_z
 _atom_site_occupancy
  Tm  Tm0  1  0.00285700  0.60331000  0.16475000  1
  Tm  Tm1  1  0.99714300  0.10331000  0.33525000  1
  Tm  Tm2  1  0.00285700  0.89669000  0.66475000  1
  Tm  Tm3  1  0.99714300  0.39669000  0.83525000  1
  Cu  Cu4  1  0.00000000  0.00000000  0.00000000  1
  Cu  Cu5  1  0.00000000  0.50000000  0.50000000  1
  B  B6  1  0.53905300  0.73071600  0.92040900  1
  B  B7  1  0.46094700  0.23071600  0.57959100  1
  B  B8  1  0.46094700  0.26928400  0.07959100  1
  B  B9  1  0.53905300  0.76928400  0.42040900  1
  B  B10  1  0.52849700  0.40192100  0.33671200  1
  B  B11  1  0.47150300  0.90192100  0.16328800  1
  B  B12  1  0.52849700  0.09807900  0.83671200  1
  B  B13  1  0.47150300  0.59807900  0.66328800  1
  O  O14  1  0.34048500  0.83645600  0.30198100  1
  O  O15  1  0.65951500  0.33645600  0.19801900  1
  O  O16  1  0.77199500  0.89006600  0.45904500  1
  O  O17  1  0.22800500  0.39006600  0.04095500  1
  O  O18  1  0.22800500  0.10993400  0.54095500  1
  O  O19  1  0.77199500  0.60993400  0.95904500  1
  O  O20  1  0.21346600  0.08961600  0.83264500  1
  O  O21  1  0.78653400  0.58961600  0.66735500  1
  O  O22  1  0.78653400  0.91038400  0.16735500  1
  O  O23  1  0.21346600  0.41038400  0.33264500  1
  O  O24  1  0.67753800  0.91129100  0.86150800  1
  O  O25  1  0.32246200  0.41129100  0.63849200  1
  O  O26  1  0.32246200  0.08870900  0.13849200  1
  O  O27  1  0.67753800  0.58870900  0.36150800  1
  O  O28  1  0.64207300  0.22332300  0.95096500  1
  O  O29  1  0.35792700  0.72332300  0.54903500  1
  O  O30  1  0.35792700  0.77667700  0.04903500  1
  O  O31  1  0.64207300  0.27667700  0.45096500  1
  O  O32  1  0.65951500  0.16354400  0.69801900  1
  O  O33  1  0.34048500  0.66354400  0.80198100  1
