# generated using pymatgen
data_Ba2Ca(PdO2)3
_symmetry_space_group_name_H-M   'P 1'
_cell_length_a   8.89964800
_cell_length_b   11.60528000
_cell_length_c   15.23558200
_cell_angle_alpha   90.00000000
_cell_angle_beta   90.00000000
_cell_angle_gamma   90.00000000
_symmetry_Int_Tables_number   1
_chemical_formula_structural   Ba2Ca(PdO2)3
_chemical_formula_sum   'Ba16 Ca8 Pd24 O48'
_cell_volume   1573.57519790
_cell_formula_units_Z   8
loop_
 _symmetry_equiv_pos_site_id
 _symmetry_equiv_pos_as_xyz
  1  'x, y, z'
loop_
 _atom_site_type_symbol
 _atom_site_label
 _atom_site_symmetry_multiplicity
 _atom_site_fract_x
 _atom_site_fract_y
 _atom_site_fract_z
 _atom_site_occupancy
  Ba  Ba0  1  0.75000000  0.25000000  0.25000000  1
  Ba  Ba1  1  0.75000000  0.75000000  0.25000000  1
  Ba  Ba2  1  0.50000000  0.73298000  0.00000000  1
  Ba  Ba3  1  0.50000000  0.26702000  0.00000000  1
  Ba  Ba4  1  0.75000000  0.75000000  0.75000000  1
  Ba  Ba5  1  0.75000000  0.25000000  0.75000000  1
  Ba  Ba6  1  0.50000000  0.23298000  0.50000000  1
  Ba  Ba7  1  0.50000000  0.76702000  0.50000000  1
  Ba  Ba8  1  0.25000000  0.25000000  0.75000000  1
  Ba  Ba9  1  0.25000000  0.75000000  0.75000000  1
  Ba  Ba10  1  0.00000000  0.73298000  0.50000000  1
  Ba  Ba11  1  0.00000000  0.26702000  0.50000000  1
  Ba  Ba12  1  0.25000000  0.75000000  0.25000000  1
  Ba  Ba13  1  0.25000000  0.25000000  0.25000000  1
  Ba  Ba14  1  0.00000000  0.23298000  0.00000000  1
  Ba  Ba15  1  0.00000000  0.76702000  0.00000000  1
  Ca  Ca16  1  0.50000000  0.00000000  0.17063000  1
  Ca  Ca17  1  0.00000000  0.00000000  0.32937000  1
  Ca  Ca18  1  0.50000000  0.50000000  0.67063000  1
  Ca  Ca19  1  0.00000000  0.50000000  0.82937000  1
  Ca  Ca20  1  0.00000000  0.00000000  0.67063000  1
  Ca  Ca21  1  0.50000000  0.00000000  0.82937000  1
  Ca  Ca22  1  0.00000000  0.50000000  0.17063000  1
  Ca  Ca23  1  0.50000000  0.50000000  0.32937000  1
  Pd  Pd24  1  0.65826800  0.00000000  0.34819800  1
  Pd  Pd25  1  0.15826800  0.00000000  0.15180200  1
  Pd  Pd26  1  0.34173200  0.00000000  0.34819800  1
  Pd  Pd27  1  0.84173200  0.00000000  0.15180200  1
  Pd  Pd28  1  0.67466000  0.00000000  0.00000000  1
  Pd  Pd29  1  0.32534000  0.00000000  0.00000000  1
  Pd  Pd30  1  0.65826800  0.50000000  0.84819800  1
  Pd  Pd31  1  0.15826800  0.50000000  0.65180200  1
  Pd  Pd32  1  0.34173200  0.50000000  0.84819800  1
  Pd  Pd33  1  0.84173200  0.50000000  0.65180200  1
  Pd  Pd34  1  0.67466000  0.50000000  0.50000000  1
  Pd  Pd35  1  0.32534000  0.50000000  0.50000000  1
  Pd  Pd36  1  0.15826800  0.00000000  0.84819800  1
  Pd  Pd37  1  0.65826800  0.00000000  0.65180200  1
  Pd  Pd38  1  0.84173200  0.00000000  0.84819800  1
  Pd  Pd39  1  0.34173200  0.00000000  0.65180200  1
  Pd  Pd40  1  0.17466000  0.00000000  0.50000000  1
  Pd  Pd41  1  0.82534000  0.00000000  0.50000000  1
  Pd  Pd42  1  0.15826800  0.50000000  0.34819800  1
  Pd  Pd43  1  0.65826800  0.50000000  0.15180200  1
  Pd  Pd44  1  0.84173200  0.50000000  0.34819800  1
  Pd  Pd45  1  0.34173200  0.50000000  0.15180200  1
  Pd  Pd46  1  0.17466000  0.50000000  0.00000000  1
  Pd  Pd47  1  0.82534000  0.50000000  0.00000000  1
  O  O48  1  0.18728200  0.11690200  0.39838000  1
  O  O49  1  0.68728200  0.88309800  0.10162000  1
  O  O50  1  0.31271800  0.11690200  0.10162000  1
  O  O51  1  0.81271800  0.88309800  0.39838000  1
  O  O52  1  0.31271800  0.88309800  0.10162000  1
  O  O53  1  0.81271800  0.11690200  0.39838000  1
  O  O54  1  0.50000000  0.88258450  0.30469350  1
  O  O55  1  0.68728200  0.11690200  0.10162000  1
  O  O56  1  0.50000000  0.11741550  0.30469350  1
  O  O57  1  0.00000000  0.88258450  0.19530650  1
  O  O58  1  0.00000000  0.11741550  0.19530650  1
  O  O59  1  0.18728200  0.88309800  0.39838000  1
  O  O60  1  0.18728200  0.61690200  0.89838000  1
  O  O61  1  0.68728200  0.38309800  0.60162000  1
  O  O62  1  0.31271800  0.61690200  0.60162000  1
  O  O63  1  0.81271800  0.38309800  0.89838000  1
  O  O64  1  0.31271800  0.38309800  0.60162000  1
  O  O65  1  0.81271800  0.61690200  0.89838000  1
  O  O66  1  0.50000000  0.38258450  0.80469350  1
  O  O67  1  0.68728200  0.61690200  0.60162000  1
  O  O68  1  0.50000000  0.61741550  0.80469350  1
  O  O69  1  0.00000000  0.38258450  0.69530650  1
  O  O70  1  0.00000000  0.61741550  0.69530650  1
  O  O71  1  0.18728200  0.38309800  0.89838000  1
  O  O72  1  0.68728200  0.11690200  0.89838000  1
  O  O73  1  0.18728200  0.88309800  0.60162000  1
  O  O74  1  0.81271800  0.11690200  0.60162000  1
  O  O75  1  0.31271800  0.88309800  0.89838000  1
  O  O76  1  0.81271800  0.88309800  0.60162000  1
  O  O77  1  0.31271800  0.11690200  0.89838000  1
  O  O78  1  0.00000000  0.88258450  0.80469350  1
  O  O79  1  0.18728200  0.11690200  0.60162000  1
  O  O80  1  0.00000000  0.11741550  0.80469350  1
  O  O81  1  0.50000000  0.88258450  0.69530650  1
  O  O82  1  0.50000000  0.11741550  0.69530650  1
  O  O83  1  0.68728200  0.88309800  0.89838000  1
  O  O84  1  0.68728200  0.61690200  0.39838000  1
  O  O85  1  0.18728200  0.38309800  0.10162000  1
  O  O86  1  0.81271800  0.61690200  0.10162000  1
  O  O87  1  0.31271800  0.38309800  0.39838000  1
  O  O88  1  0.81271800  0.38309800  0.10162000  1
  O  O89  1  0.31271800  0.61690200  0.39838000  1
  O  O90  1  0.00000000  0.38258450  0.30469350  1
  O  O91  1  0.18728200  0.61690200  0.10162000  1
  O  O92  1  0.00000000  0.61741550  0.30469350  1
  O  O93  1  0.50000000  0.38258450  0.19530650  1
  O  O94  1  0.50000000  0.61741550  0.19530650  1
  O  O95  1  0.68728200  0.38309800  0.39838000  1
