# generated using pymatgen
data_SrS2
_symmetry_space_group_name_H-M   'P 1'
_cell_length_a   6.14007400
_cell_length_b   6.14007400
_cell_length_c   7.74886600
_cell_angle_alpha   90.00000000
_cell_angle_beta   90.00000000
_cell_angle_gamma   90.00000000
_symmetry_Int_Tables_number   1
_chemical_formula_structural   SrS2
_chemical_formula_sum   'Sr4 S8'
_cell_volume   292.13619025
_cell_formula_units_Z   4
loop_
 _symmetry_equiv_pos_site_id
 _symmetry_equiv_pos_as_xyz
  1  'x, y, z'
loop_
 _atom_site_type_symbol
 _atom_site_label
 _atom_site_symmetry_multiplicity
 _atom_site_fract_x
 _atom_site_fract_y
 _atom_site_fract_z
 _atom_site_occupancy
  Sr  Sr0  1  0.00000000  0.00000000  0.25000000  1
  Sr  Sr1  1  0.00000000  0.00000000  0.75000000  1
  Sr  Sr2  1  0.50000000  0.50000000  0.75000000  1
  Sr  Sr3  1  0.50000000  0.50000000  0.25000000  1
  S  S4  1  0.87794300  0.37794300  0.50000000  1
  S  S5  1  0.12205700  0.37794300  0.00000000  1
  S  S6  1  0.62205700  0.12205700  0.00000000  1
  S  S7  1  0.37794300  0.12205700  0.50000000  1
  S  S8  1  0.37794300  0.87794300  0.00000000  1
  S  S9  1  0.62205700  0.87794300  0.50000000  1
  S  S10  1  0.12205700  0.62205700  0.50000000  1
  S  S11  1  0.87794300  0.62205700  0.00000000  1
