# generated using pymatgen
data_TbFe3(BO3)4
_symmetry_space_group_name_H-M   'P 1'
_cell_length_a   9.62084013
_cell_length_b   9.62084013
_cell_length_c   7.66169500
_cell_angle_alpha   90.00000000
_cell_angle_beta   90.00000000
_cell_angle_gamma   120.00000000
_symmetry_Int_Tables_number   1
_chemical_formula_structural   TbFe3(BO3)4
_chemical_formula_sum   'Tb3 Fe9 B12 O36'
_cell_volume   614.15994324
_cell_formula_units_Z   3
loop_
 _symmetry_equiv_pos_site_id
 _symmetry_equiv_pos_as_xyz
  1  'x, y, z'
loop_
 _atom_site_type_symbol
 _atom_site_label
 _atom_site_symmetry_multiplicity
 _atom_site_fract_x
 _atom_site_fract_y
 _atom_site_fract_z
 _atom_site_occupancy
  Tb  Tb0  1  0.00000000  0.33510300  0.66666667  1
  Tb  Tb1  1  0.33510300  0.00000000  0.33333333  1
  Tb  Tb2  1  0.66489700  0.66489700  0.00000000  1
  Fe  Fe3  1  0.45092500  0.78747900  0.65519100  1
  Fe  Fe4  1  0.21252100  0.66344600  0.98852433  1
  Fe  Fe5  1  0.33655400  0.54907500  0.32185767  1
  Fe  Fe6  1  0.66344600  0.21252100  0.01147567  1
  Fe  Fe7  1  0.54907500  0.33655400  0.67814233  1
  Fe  Fe8  1  0.78747900  0.45092500  0.34480900  1
  Fe  Fe9  1  0.00000000  0.88493900  0.66666667  1
  Fe  Fe10  1  0.88493900  0.00000000  0.33333333  1
  Fe  Fe11  1  0.11506100  0.11506100  0.00000000  1
  B  B12  1  0.77787400  0.00000000  0.83333333  1
  B  B13  1  0.22212600  0.22212600  0.50000000  1
  B  B14  1  0.00000000  0.77787400  0.16666667  1
  B  B15  1  0.87574800  0.55208600  0.84783100  1
  B  B16  1  0.44791400  0.32366200  0.18116433  1
  B  B17  1  0.67633800  0.12425200  0.51449767  1
  B  B18  1  0.32366200  0.44791400  0.81883567  1
  B  B19  1  0.12425200  0.67633800  0.48550233  1
  B  B20  1  0.55208600  0.87574800  0.15216900  1
  B  B21  1  0.66819500  0.66819500  0.50000000  1
  B  B22  1  0.00000000  0.33180500  0.16666667  1
  B  B23  1  0.33180500  0.00000000  0.83333333  1
  O  O24  1  0.00000000  0.92161000  0.16666667  1
  O  O25  1  0.07839000  0.07839000  0.50000000  1
  O  O26  1  0.92161000  0.00000000  0.83333333  1
  O  O27  1  0.41897300  0.72448000  0.12794500  1
  O  O28  1  0.27552000  0.69449300  0.46127833  1
  O  O29  1  0.30550700  0.58102700  0.79461167  1
  O  O30  1  0.69449300  0.27552000  0.53872167  1
  O  O31  1  0.58102700  0.30550700  0.20538833  1
  O  O32  1  0.72448000  0.41897300  0.87205500  1
  O  O33  1  0.87789000  0.69513200  0.82201800  1
  O  O34  1  0.30486800  0.18275800  0.15535133  1
  O  O35  1  0.81724200  0.12211000  0.48868467  1
  O  O36  1  0.18275800  0.30486800  0.84464867  1
  O  O37  1  0.12211000  0.81724200  0.51131533  1
  O  O38  1  0.69513200  0.87789000  0.17798200  1
  O  O39  1  0.85284700  0.63812700  0.18517900  1
  O  O40  1  0.36187300  0.21472000  0.51851233  1
  O  O41  1  0.78528000  0.14715300  0.85184567  1
  O  O42  1  0.21472000  0.36187300  0.48148767  1
  O  O43  1  0.14715300  0.78528000  0.14815433  1
  O  O44  1  0.63812700  0.85284700  0.81482100  1
  O  O45  1  0.47464000  0.14467000  0.84231600  1
  O  O46  1  0.85533000  0.32997000  0.17564933  1
  O  O47  1  0.67003000  0.52536000  0.50898267  1
  O  O48  1  0.32997000  0.85533000  0.82435067  1
  O  O49  1  0.52536000  0.67003000  0.49101733  1
  O  O50  1  0.14467000  0.47464000  0.15768400  1
  O  O51  1  0.18812500  0.00000000  0.83333333  1
  O  O52  1  0.00000000  0.18812500  0.16666667  1
  O  O53  1  0.81187500  0.81187500  0.50000000  1
  O  O54  1  0.47455700  0.46570700  0.81501300  1
  O  O55  1  0.53429300  0.00885000  0.14834633  1
  O  O56  1  0.99115000  0.52544300  0.48167967  1
  O  O57  1  0.00885000  0.53429300  0.85165367  1
  O  O58  1  0.52544300  0.99115000  0.51832033  1
  O  O59  1  0.46570700  0.47455700  0.18498700  1
