# generated using pymatgen
data_ZnPdF6
_symmetry_space_group_name_H-M   'P 1'
_cell_length_a   5.11073413
_cell_length_b   5.11073413
_cell_length_c   13.82698707
_cell_angle_alpha   90.00000000
_cell_angle_beta   90.00000000
_cell_angle_gamma   120.00000000
_symmetry_Int_Tables_number   1
_chemical_formula_structural   ZnPdF6
_chemical_formula_sum   'Zn3 Pd3 F18'
_cell_volume   312.76976660
_cell_formula_units_Z   3
loop_
 _symmetry_equiv_pos_site_id
 _symmetry_equiv_pos_as_xyz
  1  'x, y, z'
loop_
 _atom_site_type_symbol
 _atom_site_label
 _atom_site_symmetry_multiplicity
 _atom_site_fract_x
 _atom_site_fract_y
 _atom_site_fract_z
 _atom_site_occupancy
  Zn  Zn0  1  0.33333333  0.66666667  0.16666667  1
  Zn  Zn1  1  1.00000000  0.00000000  0.50000000  1
  Zn  Zn2  1  0.66666667  0.33333333  0.83333333  1
  Pd  Pd3  1  0.00000000  0.00000000  0.00000000  1
  Pd  Pd4  1  0.66666667  0.33333333  0.33333333  1
  Pd  Pd5  1  0.33333333  0.66666667  0.66666667  1
  F  F6  1  0.30077200  0.97778100  0.08208200  1
  F  F7  1  0.02221900  0.32299100  0.08208200  1
  F  F8  1  0.98965767  0.63410533  0.25125133  1
  F  F9  1  0.64444767  0.01034233  0.25125133  1
  F  F10  1  0.36589467  0.35555233  0.25125133  1
  F  F11  1  0.67700900  0.69922800  0.08208200  1
  F  F12  1  0.96743867  0.31111433  0.41541533  1
  F  F13  1  0.68888567  0.65632433  0.41541533  1
  F  F14  1  0.65632433  0.96743867  0.58458467  1
  F  F15  1  0.31111433  0.34367567  0.58458467  1
  F  F16  1  0.03256133  0.68888567  0.58458467  1
  F  F17  1  0.34367567  0.03256133  0.41541533  1
  F  F18  1  0.63410533  0.64444767  0.74874867  1
  F  F19  1  0.35555233  0.98965767  0.74874867  1
  F  F20  1  0.32299100  0.30077200  0.91791800  1
  F  F21  1  0.97778100  0.67700900  0.91791800  1
  F  F22  1  0.69922800  0.02221900  0.91791800  1
  F  F23  1  0.01034233  0.36589467  0.74874867  1
