# generated using pymatgen
data_NaPrTe2
_symmetry_space_group_name_H-M   'P 1'
_cell_length_a   13.00070000
_cell_length_b   13.00070000
_cell_length_c   13.00070000
_cell_angle_alpha   90.00000000
_cell_angle_beta   90.00000000
_cell_angle_gamma   90.00000000
_symmetry_Int_Tables_number   1
_chemical_formula_structural   NaPrTe2
_chemical_formula_sum   'Na16 Pr16 Te32'
_cell_volume   2197.35491911
_cell_formula_units_Z   16
loop_
 _symmetry_equiv_pos_site_id
 _symmetry_equiv_pos_as_xyz
  1  'x, y, z'
loop_
 _atom_site_type_symbol
 _atom_site_label
 _atom_site_symmetry_multiplicity
 _atom_site_fract_x
 _atom_site_fract_y
 _atom_site_fract_z
 _atom_site_occupancy
  Na  Na0  1  0.37500000  0.62500000  0.37500000  1
  Na  Na1  1  0.37500000  0.87500000  0.12500000  1
  Na  Na2  1  0.12500000  0.87500000  0.37500000  1
  Na  Na3  1  0.12500000  0.62500000  0.12500000  1
  Na  Na4  1  0.37500000  0.12500000  0.87500000  1
  Na  Na5  1  0.37500000  0.37500000  0.62500000  1
  Na  Na6  1  0.12500000  0.37500000  0.87500000  1
  Na  Na7  1  0.12500000  0.12500000  0.62500000  1
  Na  Na8  1  0.87500000  0.62500000  0.87500000  1
  Na  Na9  1  0.87500000  0.87500000  0.62500000  1
  Na  Na10  1  0.62500000  0.87500000  0.87500000  1
  Na  Na11  1  0.62500000  0.62500000  0.62500000  1
  Na  Na12  1  0.87500000  0.12500000  0.37500000  1
  Na  Na13  1  0.87500000  0.37500000  0.12500000  1
  Na  Na14  1  0.62500000  0.37500000  0.37500000  1
  Na  Na15  1  0.62500000  0.12500000  0.12500000  1
  Pr  Pr16  1  0.37500000  0.12500000  0.37500000  1
  Pr  Pr17  1  0.12500000  0.12500000  0.12500000  1
  Pr  Pr18  1  0.62500000  0.87500000  0.37500000  1
  Pr  Pr19  1  0.87500000  0.87500000  0.12500000  1
  Pr  Pr20  1  0.37500000  0.62500000  0.87500000  1
  Pr  Pr21  1  0.12500000  0.62500000  0.62500000  1
  Pr  Pr22  1  0.62500000  0.37500000  0.87500000  1
  Pr  Pr23  1  0.87500000  0.37500000  0.62500000  1
  Pr  Pr24  1  0.87500000  0.12500000  0.87500000  1
  Pr  Pr25  1  0.62500000  0.12500000  0.62500000  1
  Pr  Pr26  1  0.12500000  0.87500000  0.87500000  1
  Pr  Pr27  1  0.37500000  0.87500000  0.62500000  1
  Pr  Pr28  1  0.87500000  0.62500000  0.37500000  1
  Pr  Pr29  1  0.62500000  0.62500000  0.12500000  1
  Pr  Pr30  1  0.12500000  0.37500000  0.37500000  1
  Pr  Pr31  1  0.37500000  0.37500000  0.12500000  1
  Te  Te32  1  0.12216867  0.87783133  0.12216867  1
  Te  Te33  1  0.12783133  0.37216867  0.12783133  1
  Te  Te34  1  0.12783133  0.12783133  0.37216867  1
  Te  Te35  1  0.37216867  0.37216867  0.37216867  1
  Te  Te36  1  0.87783133  0.12216867  0.12216867  1
  Te  Te37  1  0.62216867  0.12216867  0.37783133  1
  Te  Te38  1  0.37783133  0.87783133  0.37783133  1
  Te  Te39  1  0.37216867  0.12783133  0.12783133  1
  Te  Te40  1  0.12216867  0.37783133  0.62216867  1
  Te  Te41  1  0.12783133  0.87216867  0.62783133  1
  Te  Te42  1  0.12783133  0.62783133  0.87216867  1
  Te  Te43  1  0.37216867  0.87216867  0.87216867  1
  Te  Te44  1  0.87783133  0.62216867  0.62216867  1
  Te  Te45  1  0.62216867  0.62216867  0.87783133  1
  Te  Te46  1  0.37783133  0.37783133  0.87783133  1
  Te  Te47  1  0.37216867  0.62783133  0.62783133  1
  Te  Te48  1  0.62216867  0.87783133  0.62216867  1
  Te  Te49  1  0.62783133  0.37216867  0.62783133  1
  Te  Te50  1  0.62783133  0.12783133  0.87216867  1
  Te  Te51  1  0.87216867  0.37216867  0.87216867  1
  Te  Te52  1  0.37783133  0.12216867  0.62216867  1
  Te  Te53  1  0.12216867  0.12216867  0.87783133  1
  Te  Te54  1  0.87783133  0.87783133  0.87783133  1
  Te  Te55  1  0.87216867  0.12783133  0.62783133  1
  Te  Te56  1  0.62216867  0.37783133  0.12216867  1
  Te  Te57  1  0.62783133  0.87216867  0.12783133  1
  Te  Te58  1  0.62783133  0.62783133  0.37216867  1
  Te  Te59  1  0.87216867  0.87216867  0.37216867  1
  Te  Te60  1  0.37783133  0.62216867  0.12216867  1
  Te  Te61  1  0.12216867  0.62216867  0.37783133  1
  Te  Te62  1  0.87783133  0.37783133  0.37783133  1
  Te  Te63  1  0.87216867  0.62783133  0.12783133  1
