# generated using pymatgen
data_Sr2ScF7
_symmetry_space_group_name_H-M   'P 1'
_cell_length_a   5.54602700
_cell_length_b   12.32388300
_cell_length_c   8.33671842
_cell_angle_alpha   90.00000000
_cell_angle_beta   90.43423520
_cell_angle_gamma   90.00000000
_symmetry_Int_Tables_number   1
_chemical_formula_structural   Sr2ScF7
_chemical_formula_sum   'Sr8 Sc4 F28'
_cell_volume   569.78656740
_cell_formula_units_Z   4
loop_
 _symmetry_equiv_pos_site_id
 _symmetry_equiv_pos_as_xyz
  1  'x, y, z'
loop_
 _atom_site_type_symbol
 _atom_site_label
 _atom_site_symmetry_multiplicity
 _atom_site_fract_x
 _atom_site_fract_y
 _atom_site_fract_z
 _atom_site_occupancy
  Sr  Sr0  1  0.76498100  0.43890100  0.67725500  1
  Sr  Sr1  1  0.23501900  0.93890100  0.82274500  1
  Sr  Sr2  1  0.23501900  0.56109900  0.32274500  1
  Sr  Sr3  1  0.76498100  0.06109900  0.17725500  1
  Sr  Sr4  1  0.76540400  0.78001500  0.55189800  1
  Sr  Sr5  1  0.23459600  0.28001500  0.94810200  1
  Sr  Sr6  1  0.23459600  0.21998500  0.44810200  1
  Sr  Sr7  1  0.76540400  0.71998500  0.05189800  1
  Sc  Sc8  1  0.27816600  0.87380800  0.28386500  1
  Sc  Sc9  1  0.72183400  0.37380800  0.21613500  1
  Sc  Sc10  1  0.72183400  0.12619200  0.71613500  1
  Sc  Sc11  1  0.27816600  0.62619200  0.78386500  1
  F  F12  1  0.19931900  0.86368700  0.52375100  1
  F  F13  1  0.80068100  0.36368700  0.97624900  1
  F  F14  1  0.80068100  0.13631300  0.47624900  1
  F  F15  1  0.19931900  0.63631300  0.02375100  1
  F  F16  1  0.01491600  0.74508300  0.30308100  1
  F  F17  1  0.98508400  0.24508300  0.19691900  1
  F  F18  1  0.98508400  0.25491700  0.69691900  1
  F  F19  1  0.01491600  0.75491700  0.80308100  1
  F  F20  1  0.80147700  0.96333800  0.71004000  1
  F  F21  1  0.19852300  0.46333800  0.78996000  1
  F  F22  1  0.19852300  0.03666200  0.28996000  1
  F  F23  1  0.80147700  0.53666200  0.21004000  1
  F  F24  1  0.48799300  0.89477700  0.07505900  1
  F  F25  1  0.51200700  0.39477700  0.42494100  1
  F  F26  1  0.51200700  0.10522300  0.92494100  1
  F  F27  1  0.48799300  0.60522300  0.57505900  1
  F  F28  1  0.48723300  0.77035500  0.79238300  1
  F  F29  1  0.51276700  0.27035500  0.70761700  1
  F  F30  1  0.51276700  0.22964500  0.20761700  1
  F  F31  1  0.48723300  0.72964500  0.29238300  1
  F  F32  1  0.61363300  0.57506600  0.87099700  1
  F  F33  1  0.38636700  0.07506600  0.62900300  1
  F  F34  1  0.38636700  0.42493400  0.12900300  1
  F  F35  1  0.61363300  0.92493400  0.37099700  1
  F  F36  1  0.01647500  0.89497100  0.09096700  1
  F  F37  1  0.98352500  0.39497100  0.40903300  1
  F  F38  1  0.98352500  0.10502900  0.90903300  1
  F  F39  1  0.01647500  0.60502900  0.59096700  1
