# generated using pymatgen
data_RbSm(PO3)4
_symmetry_space_group_name_H-M   'P 1'
_cell_length_a   8.02988800
_cell_length_b   13.03328200
_cell_length_c   10.74471839
_cell_angle_alpha   90.00000000
_cell_angle_beta   111.36853576
_cell_angle_gamma   90.00000000
_symmetry_Int_Tables_number   1
_chemical_formula_structural   RbSm(PO3)4
_chemical_formula_sum   'Rb4 Sm4 P16 O48'
_cell_volume   1047.19467318
_cell_formula_units_Z   4
loop_
 _symmetry_equiv_pos_site_id
 _symmetry_equiv_pos_as_xyz
  1  'x, y, z'
loop_
 _atom_site_type_symbol
 _atom_site_label
 _atom_site_symmetry_multiplicity
 _atom_site_fract_x
 _atom_site_fract_y
 _atom_site_fract_z
 _atom_site_occupancy
  Rb  Rb0  1  0.50000000  0.69260500  0.75000000  1
  Rb  Rb1  1  0.50000000  0.30739500  0.25000000  1
  Rb  Rb2  1  0.00000000  0.19260500  0.75000000  1
  Rb  Rb3  1  0.00000000  0.80739500  0.25000000  1
  Sm  Sm4  1  0.50000000  0.37733300  0.75000000  1
  Sm  Sm5  1  0.50000000  0.62266700  0.25000000  1
  Sm  Sm6  1  0.00000000  0.87733300  0.75000000  1
  Sm  Sm7  1  0.00000000  0.12266700  0.25000000  1
  P  P8  1  0.72224350  0.97305650  0.94981400  1
  P  P9  1  0.27775650  0.97305650  0.55018600  1
  P  P10  1  0.27775650  0.02694350  0.05018600  1
  P  P11  1  0.72224350  0.02694350  0.44981400  1
  P  P12  1  0.45619800  0.16338100  0.51213900  1
  P  P13  1  0.54380200  0.16338100  0.98786100  1
  P  P14  1  0.54380200  0.83661900  0.48786100  1
  P  P15  1  0.45619800  0.83661900  0.01213900  1
  P  P16  1  0.22224350  0.47305650  0.94981400  1
  P  P17  1  0.77775650  0.47305650  0.55018600  1
  P  P18  1  0.77775650  0.52694350  0.05018600  1
  P  P19  1  0.22224350  0.52694350  0.44981400  1
  P  P20  1  0.95619800  0.66338100  0.51213900  1
  P  P21  1  0.04380200  0.66338100  0.98786100  1
  P  P22  1  0.04380200  0.33661900  0.48786100  1
  P  P23  1  0.95619800  0.33661900  0.01213900  1
  O  O24  1  0.44785750  0.24329250  0.88634900  1
  O  O25  1  0.55214250  0.24329250  0.61365100  1
  O  O26  1  0.55214250  0.75670750  0.11365100  1
  O  O27  1  0.44785750  0.75670750  0.38634900  1
  O  O28  1  0.70791600  0.80796600  0.60496200  1
  O  O29  1  0.29208400  0.80796600  0.89503800  1
  O  O30  1  0.29208400  0.19203400  0.39503800  1
  O  O31  1  0.70791600  0.19203400  0.10496200  1
  O  O32  1  0.85084300  0.01012100  0.59049100  1
  O  O33  1  0.14915700  0.01012100  0.90950900  1
  O  O34  1  0.14915700  0.98987900  0.40950900  1
  O  O35  1  0.85084300  0.98987900  0.09049100  1
  O  O36  1  0.59956000  0.12540700  0.44724000  1
  O  O37  1  0.40044000  0.12540700  0.05276000  1
  O  O38  1  0.40044000  0.87459300  0.55276000  1
  O  O39  1  0.59956000  0.87459300  0.94724000  1
  O  O40  1  0.42423600  0.93477600  0.09148500  1
  O  O41  1  0.57576400  0.93477600  0.40851500  1
  O  O42  1  0.57576400  0.06522400  0.90851500  1
  O  O43  1  0.42423600  0.06522400  0.59148500  1
  O  O44  1  0.78848850  0.04224650  0.33844000  1
  O  O45  1  0.21151150  0.04224650  0.16156000  1
  O  O46  1  0.21151150  0.95775350  0.66156000  1
  O  O47  1  0.78848850  0.95775350  0.83844000  1
  O  O48  1  0.94785750  0.74329250  0.88634900  1
  O  O49  1  0.05214250  0.74329250  0.61365100  1
  O  O50  1  0.05214250  0.25670750  0.11365100  1
  O  O51  1  0.94785750  0.25670750  0.38634900  1
  O  O52  1  0.20791600  0.30796600  0.60496200  1
  O  O53  1  0.79208400  0.30796600  0.89503800  1
  O  O54  1  0.79208400  0.69203400  0.39503800  1
  O  O55  1  0.20791600  0.69203400  0.10496200  1
  O  O56  1  0.35084300  0.51012100  0.59049100  1
  O  O57  1  0.64915700  0.51012100  0.90950900  1
  O  O58  1  0.64915700  0.48987900  0.40950900  1
  O  O59  1  0.35084300  0.48987900  0.09049100  1
  O  O60  1  0.09956000  0.62540700  0.44724000  1
  O  O61  1  0.90044000  0.62540700  0.05276000  1
  O  O62  1  0.90044000  0.37459300  0.55276000  1
  O  O63  1  0.09956000  0.37459300  0.94724000  1
  O  O64  1  0.92423600  0.43477600  0.09148500  1
  O  O65  1  0.07576400  0.43477600  0.40851500  1
  O  O66  1  0.07576400  0.56522400  0.90851500  1
  O  O67  1  0.92423600  0.56522400  0.59148500  1
  O  O68  1  0.28848850  0.54224650  0.33844000  1
  O  O69  1  0.71151150  0.54224650  0.16156000  1
  O  O70  1  0.71151150  0.45775350  0.66156000  1
  O  O71  1  0.28848850  0.45775350  0.83844000  1
