# generated using pymatgen
data_Li3Fe2(PO4)3
_symmetry_space_group_name_H-M   'P 1'
_cell_length_a   8.42391789
_cell_length_b   8.42391789
_cell_length_c   22.84663265
_cell_angle_alpha   90.00000000
_cell_angle_beta   90.00000000
_cell_angle_gamma   120.00000000
_symmetry_Int_Tables_number   1
_chemical_formula_structural   Li3Fe2(PO4)3
_chemical_formula_sum   'Li18 Fe12 P18 O72'
_cell_volume   1404.04517239
_cell_formula_units_Z   6
loop_
 _symmetry_equiv_pos_site_id
 _symmetry_equiv_pos_as_xyz
  1  'x, y, z'
loop_
 _atom_site_type_symbol
 _atom_site_label
 _atom_site_symmetry_multiplicity
 _atom_site_fract_x
 _atom_site_fract_y
 _atom_site_fract_z
 _atom_site_occupancy
  Li  Li0  1  0.02689867  0.31226033  0.04890233  1
  Li  Li1  1  0.28536167  0.97310133  0.04890233  1
  Li  Li2  1  0.68773967  0.71463833  0.04890233  1
  Li  Li3  1  0.63976800  0.02107300  0.28443100  1
  Li  Li4  1  0.38130500  0.36023200  0.28443100  1
  Li  Li5  1  0.97892700  0.61869500  0.28443100  1
  Li  Li6  1  0.69356533  0.64559367  0.38223567  1
  Li  Li7  1  0.95202833  0.30643467  0.38223567  1
  Li  Li8  1  0.35440633  0.04797167  0.38223567  1
  Li  Li9  1  0.30643467  0.35440633  0.61776433  1
  Li  Li10  1  0.04797167  0.69356533  0.61776433  1
  Li  Li11  1  0.64559367  0.95202833  0.61776433  1
  Li  Li12  1  0.36023200  0.97892700  0.71556900  1
  Li  Li13  1  0.61869500  0.63976800  0.71556900  1
  Li  Li14  1  0.02107300  0.38130500  0.71556900  1
  Li  Li15  1  0.97310133  0.68773967  0.95109767  1
  Li  Li16  1  0.71463833  0.02689867  0.95109767  1
  Li  Li17  1  0.31226033  0.28536167  0.95109767  1
  Fe  Fe18  1  0.00000000  0.00000000  0.14658600  1
  Fe  Fe19  1  0.66666667  0.33333333  0.18674733  1
  Fe  Fe20  1  0.33333333  0.66666667  0.31829367  1
  Fe  Fe21  1  0.33333333  0.66666667  0.01503967  1
  Fe  Fe22  1  0.66666667  0.33333333  0.47991933  1
  Fe  Fe23  1  0.33333333  0.66666667  0.52008067  1
  Fe  Fe24  1  0.00000000  0.00000000  0.65162700  1
  Fe  Fe25  1  0.00000000  0.00000000  0.34837300  1
  Fe  Fe26  1  0.33333333  0.66666667  0.81325267  1
  Fe  Fe27  1  0.00000000  0.00000000  0.85341400  1
  Fe  Fe28  1  0.66666667  0.33333333  0.98496033  1
  Fe  Fe29  1  0.66666667  0.33333333  0.68170633  1
  P  P30  1  0.70784933  0.70999867  0.24962067  1
  P  P31  1  0.00214933  0.29215067  0.24962067  1
  P  P32  1  0.29000133  0.99785067  0.24962067  1
  P  P33  1  0.95881733  0.62333467  0.08371267  1
  P  P34  1  0.66451733  0.04118267  0.08371267  1
  P  P35  1  0.37666533  0.33548267  0.08371267  1
  P  P36  1  0.37451600  0.04333200  0.58295400  1
  P  P37  1  0.66881600  0.62548400  0.58295400  1
  P  P38  1  0.95666800  0.33118400  0.58295400  1
  P  P39  1  0.62548400  0.95666800  0.41704600  1
  P  P40  1  0.33118400  0.37451600  0.41704600  1
  P  P41  1  0.04333200  0.66881600  0.41704600  1
  P  P42  1  0.04118267  0.37666533  0.91628733  1
  P  P43  1  0.33548267  0.95881733  0.91628733  1
  P  P44  1  0.62333467  0.66451733  0.91628733  1
  P  P45  1  0.29215067  0.29000133  0.75037933  1
  P  P46  1  0.99785067  0.70784933  0.75037933  1
  P  P47  1  0.70999867  0.00214933  0.75037933  1
  O  O48  1  0.79854667  0.80813033  0.19304133  1
  O  O49  1  0.00958367  0.20145333  0.19304133  1
  O  O50  1  0.19186967  0.99041633  0.19304133  1
  O  O51  1  0.86812000  0.52520300  0.14029200  1
  O  O52  1  0.65708300  0.13188000  0.14029200  1
  O  O53  1  0.47479700  0.34291700  0.14029200  1
  O  O54  1  0.81212833  0.56955267  0.03292467  1
  O  O55  1  0.75742433  0.18787167  0.03292467  1
  O  O56  1  0.43044733  0.24257567  0.03292467  1
  O  O57  1  0.85453833  0.76378067  0.30040867  1
  O  O58  1  0.90924233  0.14546167  0.30040867  1
  O  O59  1  0.23621933  0.09075767  0.30040867  1
  O  O60  1  0.56307867  0.76185833  0.26939533  1
  O  O61  1  0.19877967  0.43692133  0.26939533  1
  O  O62  1  0.23814167  0.80122033  0.26939533  1
  O  O63  1  0.10358800  0.57147500  0.06393800  1
  O  O64  1  0.46788700  0.89641200  0.06393800  1
  O  O65  1  0.42852500  0.53211300  0.06393800  1
  O  O66  1  0.04817700  0.83436200  0.08884700  1
  O  O67  1  0.78618500  0.95182300  0.08884700  1
  O  O68  1  0.16563800  0.21381500  0.08884700  1
  O  O69  1  0.61848967  0.49897133  0.24448633  1
  O  O70  1  0.88048167  0.38151033  0.24448633  1
  O  O71  1  0.50102867  0.11951833  0.24448633  1
  O  O72  1  0.46521333  0.14146367  0.52637467  1
  O  O73  1  0.67625033  0.53478667  0.52637467  1
  O  O74  1  0.85853633  0.32374967  0.52637467  1
  O  O75  1  0.53478667  0.85853633  0.47362533  1
  O  O76  1  0.32374967  0.46521333  0.47362533  1
  O  O77  1  0.14146367  0.67625033  0.47362533  1
  O  O78  1  0.47879500  0.90288600  0.36625800  1
  O  O79  1  0.42409100  0.52120500  0.36625800  1
  O  O80  1  0.09711400  0.57590900  0.36625800  1
  O  O81  1  0.52120500  0.09711400  0.63374200  1
  O  O82  1  0.57590900  0.47879500  0.63374200  1
  O  O83  1  0.90288600  0.42409100  0.63374200  1
  O  O84  1  0.22974533  0.09519167  0.60272867  1
  O  O85  1  0.86544633  0.77025467  0.60272867  1
  O  O86  1  0.90480833  0.13455367  0.60272867  1
  O  O87  1  0.77025467  0.90480833  0.39727133  1
  O  O88  1  0.13455367  0.22974533  0.39727133  1
  O  O89  1  0.09519167  0.86544633  0.39727133  1
  O  O90  1  0.71484367  0.16769533  0.42218033  1
  O  O91  1  0.45285167  0.28515633  0.42218033  1
  O  O92  1  0.83230467  0.54714833  0.42218033  1
  O  O93  1  0.28515633  0.83230467  0.57781967  1
  O  O94  1  0.54714833  0.71484367  0.57781967  1
  O  O95  1  0.16769533  0.45285167  0.57781967  1
  O  O96  1  0.13188000  0.47479700  0.85970800  1
  O  O97  1  0.34291700  0.86812000  0.85970800  1
  O  O98  1  0.52520300  0.65708300  0.85970800  1
  O  O99  1  0.20145333  0.19186967  0.80695867  1
  O  O100  1  0.99041633  0.79854667  0.80695867  1
  O  O101  1  0.80813033  0.00958367  0.80695867  1
  O  O102  1  0.14546167  0.23621933  0.69959133  1
  O  O103  1  0.09075767  0.85453833  0.69959133  1
  O  O104  1  0.76378067  0.90924233  0.69959133  1
  O  O105  1  0.18787167  0.43044733  0.96707533  1
  O  O106  1  0.24257567  0.81212833  0.96707533  1
  O  O107  1  0.56955267  0.75742433  0.96707533  1
  O  O108  1  0.89641200  0.42852500  0.93606200  1
  O  O109  1  0.53211300  0.10358800  0.93606200  1
  O  O110  1  0.57147500  0.46788700  0.93606200  1
  O  O111  1  0.43692133  0.23814167  0.73060467  1
  O  O112  1  0.80122033  0.56307867  0.73060467  1
  O  O113  1  0.76185833  0.19877967  0.73060467  1
  O  O114  1  0.38151033  0.50102867  0.75551367  1
  O  O115  1  0.11951833  0.61848967  0.75551367  1
  O  O116  1  0.49897133  0.88048167  0.75551367  1
  O  O117  1  0.95182300  0.16563800  0.91115300  1
  O  O118  1  0.21381500  0.04817700  0.91115300  1
  O  O119  1  0.83436200  0.78618500  0.91115300  1
