# generated using pymatgen
data_CsPrCdSe3
_symmetry_space_group_name_H-M   'P 1'
_cell_length_a   4.43429800
_cell_length_b   16.38238000
_cell_length_c   11.55323900
_cell_angle_alpha   90.00000000
_cell_angle_beta   90.00000000
_cell_angle_gamma   90.00000000
_symmetry_Int_Tables_number   1
_chemical_formula_structural   CsPrCdSe3
_chemical_formula_sum   'Cs4 Pr4 Cd4 Se12'
_cell_volume   839.27759381
_cell_formula_units_Z   4
loop_
 _symmetry_equiv_pos_site_id
 _symmetry_equiv_pos_as_xyz
  1  'x, y, z'
loop_
 _atom_site_type_symbol
 _atom_site_label
 _atom_site_symmetry_multiplicity
 _atom_site_fract_x
 _atom_site_fract_y
 _atom_site_fract_z
 _atom_site_occupancy
  Cs  Cs0  1  0.00000000  0.25506500  0.75000000  1
  Cs  Cs1  1  0.50000000  0.24493500  0.25000000  1
  Cs  Cs2  1  0.50000000  0.75506500  0.75000000  1
  Cs  Cs3  1  0.00000000  0.74493500  0.25000000  1
  Pr  Pr4  1  0.00000000  0.00000000  0.00000000  1
  Pr  Pr5  1  0.00000000  0.00000000  0.50000000  1
  Pr  Pr6  1  0.50000000  0.50000000  0.00000000  1
  Pr  Pr7  1  0.50000000  0.50000000  0.50000000  1
  Cd  Cd8  1  0.00000000  0.46334700  0.25000000  1
  Cd  Cd9  1  0.50000000  0.03665300  0.75000000  1
  Cd  Cd10  1  0.50000000  0.96334700  0.25000000  1
  Cd  Cd11  1  0.00000000  0.53665300  0.75000000  1
  Se  Se12  1  0.00000000  0.38053500  0.05419600  1
  Se  Se13  1  0.50000000  0.11946500  0.94580400  1
  Se  Se14  1  0.50000000  0.11946500  0.55419600  1
  Se  Se15  1  0.00000000  0.06188300  0.25000000  1
  Se  Se16  1  0.50000000  0.43811700  0.75000000  1
  Se  Se17  1  0.00000000  0.38053500  0.44580400  1
  Se  Se18  1  0.50000000  0.88053500  0.05419600  1
  Se  Se19  1  0.00000000  0.61946500  0.94580400  1
  Se  Se20  1  0.00000000  0.61946500  0.55419600  1
  Se  Se21  1  0.50000000  0.56188300  0.25000000  1
  Se  Se22  1  0.00000000  0.93811700  0.75000000  1
  Se  Se23  1  0.50000000  0.88053500  0.44580400  1
