# generated using pymatgen
data_CaFe3O5
_symmetry_space_group_name_H-M   'P 1'
_cell_length_a   3.05341439
_cell_length_b   10.29232938
_cell_length_c   12.74636714
_cell_angle_alpha   90.00000000
_cell_angle_beta   90.00000000
_cell_angle_gamma   90.00000000
_symmetry_Int_Tables_number   1
_chemical_formula_structural   CaFe3O5
_chemical_formula_sum   'Ca4 Fe12 O20'
_cell_volume   400.57685063
_cell_formula_units_Z   4
loop_
 _symmetry_equiv_pos_site_id
 _symmetry_equiv_pos_as_xyz
  1  'x, y, z'
loop_
 _atom_site_type_symbol
 _atom_site_label
 _atom_site_symmetry_multiplicity
 _atom_site_fract_x
 _atom_site_fract_y
 _atom_site_fract_z
 _atom_site_occupancy
  Ca  Ca0  1  0.50000000  0.02127206  0.75000000  1
  Ca  Ca1  1  0.00000000  0.47872794  0.25000000  1
  Ca  Ca2  1  0.00000000  0.52127206  0.75000000  1
  Ca  Ca3  1  0.50000000  0.97872794  0.25000000  1
  Fe  Fe4  1  0.00000000  0.00000000  0.50000000  1
  Fe  Fe5  1  0.00000000  0.26797772  0.89058529  1
  Fe  Fe6  1  0.50000000  0.23202228  0.10941471  1
  Fe  Fe7  1  0.00000000  0.00000000  0.00000000  1
  Fe  Fe8  1  0.50000000  0.23202228  0.39058529  1
  Fe  Fe9  1  0.00000000  0.26797772  0.60941471  1
  Fe  Fe10  1  0.50000000  0.50000000  0.50000000  1
  Fe  Fe11  1  0.50000000  0.76797772  0.89058529  1
  Fe  Fe12  1  0.00000000  0.73202228  0.10941471  1
  Fe  Fe13  1  0.50000000  0.50000000  0.00000000  1
  Fe  Fe14  1  0.00000000  0.73202228  0.39058529  1
  Fe  Fe15  1  0.50000000  0.76797772  0.60941471  1
  O  O16  1  0.50000000  0.40061451  0.63718294  1
  O  O17  1  0.00000000  0.09938549  0.36281706  1
  O  O18  1  0.00000000  0.09938549  0.13718294  1
  O  O19  1  0.50000000  0.40061451  0.86281706  1
  O  O20  1  0.50000000  0.15119413  0.94918521  1
  O  O21  1  0.00000000  0.34880587  0.05081479  1
  O  O22  1  0.00000000  0.34880587  0.44918521  1
  O  O23  1  0.50000000  0.15119413  0.55081479  1
  O  O24  1  0.00000000  0.18885338  0.75000000  1
  O  O25  1  0.50000000  0.31114662  0.25000000  1
  O  O26  1  0.00000000  0.90061451  0.63718294  1
  O  O27  1  0.50000000  0.59938549  0.36281706  1
  O  O28  1  0.50000000  0.59938549  0.13718294  1
  O  O29  1  0.00000000  0.90061451  0.86281706  1
  O  O30  1  0.00000000  0.65119413  0.94918521  1
  O  O31  1  0.50000000  0.84880587  0.05081479  1
  O  O32  1  0.50000000  0.84880587  0.44918521  1
  O  O33  1  0.00000000  0.65119413  0.55081479  1
  O  O34  1  0.50000000  0.68885338  0.75000000  1
  O  O35  1  0.00000000  0.81114662  0.25000000  1
