# generated using pymatgen
data_SmF3
_symmetry_space_group_name_H-M   'P 1'
_cell_length_a   7.03511424
_cell_length_b   7.03511424
_cell_length_c   6.98948100
_cell_angle_alpha   90.00000000
_cell_angle_beta   90.00000000
_cell_angle_gamma   120.00000000
_symmetry_Int_Tables_number   1
_chemical_formula_structural   SmF3
_chemical_formula_sum   'Sm6 F18'
_cell_volume   299.58348518
_cell_formula_units_Z   6
loop_
 _symmetry_equiv_pos_site_id
 _symmetry_equiv_pos_as_xyz
  1  'x, y, z'
loop_
 _atom_site_type_symbol
 _atom_site_label
 _atom_site_symmetry_multiplicity
 _atom_site_fract_x
 _atom_site_fract_y
 _atom_site_fract_z
 _atom_site_occupancy
  Sm  Sm0  1  0.66779600  0.00000000  0.75000000  1
  Sm  Sm1  1  0.66779600  0.66779600  0.25000000  1
  Sm  Sm2  1  0.00000000  0.33220400  0.25000000  1
  Sm  Sm3  1  0.00000000  0.66779600  0.75000000  1
  Sm  Sm4  1  0.33220400  0.33220400  0.75000000  1
  Sm  Sm5  1  0.33220400  0.00000000  0.25000000  1
  F  F6  1  0.00000000  0.00000000  0.00000000  1
  F  F7  1  0.00000000  0.00000000  0.50000000  1
  F  F8  1  0.66666667  0.33333333  0.75000000  1
  F  F9  1  0.33333333  0.66666667  0.25000000  1
  F  F10  1  0.33333333  0.66666667  0.75000000  1
  F  F11  1  0.66666667  0.33333333  0.25000000  1
  F  F12  1  0.00000000  0.65576600  0.41710400  1
  F  F13  1  0.34423400  0.00000000  0.91710400  1
  F  F14  1  0.65576600  0.65576600  0.91710400  1
  F  F15  1  0.34423400  0.34423400  0.41710400  1
  F  F16  1  0.65576600  0.00000000  0.41710400  1
  F  F17  1  0.00000000  0.65576600  0.08289600  1
  F  F18  1  0.65576600  0.00000000  0.08289600  1
  F  F19  1  0.00000000  0.34423400  0.91710400  1
  F  F20  1  0.34423400  0.34423400  0.08289600  1
  F  F21  1  0.65576600  0.65576600  0.58289600  1
  F  F22  1  0.00000000  0.34423400  0.58289600  1
  F  F23  1  0.34423400  0.00000000  0.58289600  1
