# generated using pymatgen
data_Ga7Te10
_symmetry_space_group_name_H-M   'P 1'
_cell_length_a   14.73827358
_cell_length_b   14.73827358
_cell_length_c   18.18903037
_cell_angle_alpha   90.00000000
_cell_angle_beta   90.00000000
_cell_angle_gamma   120.00000000
_symmetry_Int_Tables_number   1
_chemical_formula_structural   Ga7Te10
_chemical_formula_sum   'Ga42 Te60'
_cell_volume   3421.63285604
_cell_formula_units_Z   6
loop_
 _symmetry_equiv_pos_site_id
 _symmetry_equiv_pos_as_xyz
  1  'x, y, z'
loop_
 _atom_site_type_symbol
 _atom_site_label
 _atom_site_symmetry_multiplicity
 _atom_site_fract_x
 _atom_site_fract_y
 _atom_site_fract_z
 _atom_site_occupancy
  Ga  Ga0  1  0.33333333  0.66666667  0.23616267  1
  Ga  Ga1  1  0.33333333  0.66666667  0.09717067  1
  Ga  Ga2  1  0.08244433  0.74218467  0.08401567  1
  Ga  Ga3  1  0.65974033  0.91755567  0.08401567  1
  Ga  Ga4  1  0.25781533  0.34025967  0.08401567  1
  Ga  Ga5  1  0.40885133  0.41577767  0.24931767  1
  Ga  Ga6  1  0.00692633  0.59114867  0.24931767  1
  Ga  Ga7  1  0.58422233  0.99307367  0.24931767  1
  Ga  Ga8  1  0.44918933  0.85884267  0.43721767  1
  Ga  Ga9  1  0.40965333  0.55081067  0.43721767  1
  Ga  Ga10  1  0.14115733  0.59034667  0.43721767  1
  Ga  Ga11  1  0.52550933  0.78252267  0.89611567  1
  Ga  Ga12  1  0.25701333  0.47449067  0.89611567  1
  Ga  Ga13  1  0.21747733  0.74298667  0.89611567  1
  Ga  Ga14  1  0.00000000  0.00000000  0.56949600  1
  Ga  Ga15  1  1.00000000  0.00000000  0.43050400  1
  Ga  Ga16  1  0.74911100  0.07551800  0.41734900  1
  Ga  Ga17  1  0.32640700  0.25088900  0.41734900  1
  Ga  Ga18  1  0.92448200  0.67359300  0.41734900  1
  Ga  Ga19  1  0.07551800  0.74911100  0.58265100  1
  Ga  Ga20  1  0.67359300  0.92448200  0.58265100  1
  Ga  Ga21  1  0.25088900  0.32640700  0.58265100  1
  Ga  Ga22  1  0.11585600  0.19217600  0.77055100  1
  Ga  Ga23  1  0.07632000  0.88414400  0.77055100  1
  Ga  Ga24  1  0.80782400  0.92368000  0.77055100  1
  Ga  Ga25  1  0.19217600  0.11585600  0.22944900  1
  Ga  Ga26  1  0.92368000  0.80782400  0.22944900  1
  Ga  Ga27  1  0.88414400  0.07632000  0.22944900  1
  Ga  Ga28  1  0.66666667  0.33333333  0.90282933  1
  Ga  Ga29  1  0.66666667  0.33333333  0.76383733  1
  Ga  Ga30  1  0.41577767  0.40885133  0.75068233  1
  Ga  Ga31  1  0.99307367  0.58422233  0.75068233  1
  Ga  Ga32  1  0.59114867  0.00692633  0.75068233  1
  Ga  Ga33  1  0.74218467  0.08244433  0.91598433  1
  Ga  Ga34  1  0.34025967  0.25781533  0.91598433  1
  Ga  Ga35  1  0.91755567  0.65974033  0.91598433  1
  Ga  Ga36  1  0.78252267  0.52550933  0.10388433  1
  Ga  Ga37  1  0.74298667  0.21747733  0.10388433  1
  Ga  Ga38  1  0.47449067  0.25701333  0.10388433  1
  Ga  Ga39  1  0.85884267  0.44918933  0.56278233  1
  Ga  Ga40  1  0.59034667  0.14115733  0.56278233  1
  Ga  Ga41  1  0.55081067  0.40965333  0.56278233  1
  Te  Te42  1  0.33333333  0.66666667  0.49948867  1
  Te  Te43  1  0.33333333  0.66666667  0.83384467  1
  Te  Te44  1  0.82369700  0.00000000  0.00000000  1
  Te  Te45  1  0.84296967  0.50963633  0.33333333  1
  Te  Te46  1  0.00000000  0.82369700  0.00000000  1
  Te  Te47  1  0.74980233  0.66666667  0.16666667  1
  Te  Te48  1  0.91686433  0.25019767  0.16666667  1
  Te  Te49  1  0.33333333  0.08313567  0.16666667  1
  Te  Te50  1  0.38960533  0.85651067  0.29568367  1
  Te  Te51  1  0.46690533  0.61039467  0.29568367  1
  Te  Te52  1  0.14348933  0.53309467  0.29568367  1
  Te  Te53  1  0.52317733  0.72293867  0.03764967  1
  Te  Te54  1  0.19976133  0.47682267  0.03764967  1
  Te  Te55  1  0.27706133  0.80023867  0.03764967  1
  Te  Te56  1  0.96834000  0.53263300  0.10632400  1
  Te  Te57  1  0.56429300  0.03166000  0.10632400  1
  Te  Te58  1  0.46736700  0.43570700  0.10632400  1
  Te  Te59  1  0.19929967  0.30167333  0.22700933  1
  Te  Te60  1  0.10237367  0.80070033  0.22700933  1
  Te  Te61  1  0.69832667  0.89762633  0.22700933  1
  Te  Te62  1  0.00000000  0.00000000  0.83282200  1
  Te  Te63  1  1.00000000  0.00000000  0.16717800  1
  Te  Te64  1  0.49036367  0.33333333  0.33333333  1
  Te  Te65  1  0.50963633  0.84296967  0.66666667  1
  Te  Te66  1  0.66666667  0.15703033  0.33333333  1
  Te  Te67  1  0.41646900  0.00000000  0.50000000  1
  Te  Te68  1  0.58353100  0.58353100  0.50000000  1
  Te  Te69  1  0.00000000  0.41646900  0.50000000  1
  Te  Te70  1  0.05627200  0.18984400  0.62901700  1
  Te  Te71  1  0.13357200  0.94372800  0.62901700  1
  Te  Te72  1  0.81015600  0.86642800  0.62901700  1
  Te  Te73  1  0.18984400  0.05627200  0.37098300  1
  Te  Te74  1  0.86642800  0.81015600  0.37098300  1
  Te  Te75  1  0.94372800  0.13357200  0.37098300  1
  Te  Te76  1  0.63500667  0.86596633  0.43965733  1
  Te  Te77  1  0.23095967  0.36499333  0.43965733  1
  Te  Te78  1  0.13403367  0.76904033  0.43965733  1
  Te  Te79  1  0.86596633  0.63500667  0.56034267  1
  Te  Te80  1  0.76904033  0.13403367  0.56034267  1
  Te  Te81  1  0.36499333  0.23095967  0.56034267  1
  Te  Te82  1  0.66666667  0.33333333  0.16615533  1
  Te  Te83  1  0.66666667  0.33333333  0.50051133  1
  Te  Te84  1  0.15703033  0.66666667  0.66666667  1
  Te  Te85  1  0.17630300  0.17630300  0.00000000  1
  Te  Te86  1  0.33333333  0.49036367  0.66666667  1
  Te  Te87  1  0.08313567  0.33333333  0.83333333  1
  Te  Te88  1  0.25019767  0.91686433  0.83333333  1
  Te  Te89  1  0.66666667  0.74980233  0.83333333  1
  Te  Te90  1  0.72293867  0.52317733  0.96235033  1
  Te  Te91  1  0.80023867  0.27706133  0.96235033  1
  Te  Te92  1  0.47682267  0.19976133  0.96235033  1
  Te  Te93  1  0.85651067  0.38960533  0.70431633  1
  Te  Te94  1  0.53309467  0.14348933  0.70431633  1
  Te  Te95  1  0.61039467  0.46690533  0.70431633  1
  Te  Te96  1  0.30167333  0.19929967  0.77299067  1
  Te  Te97  1  0.89762633  0.69832667  0.77299067  1
  Te  Te98  1  0.80070033  0.10237367  0.77299067  1
  Te  Te99  1  0.53263300  0.96834000  0.89367600  1
  Te  Te100  1  0.43570700  0.46736700  0.89367600  1
  Te  Te101  1  0.03166000  0.56429300  0.89367600  1
