# generated using pymatgen
data_K2Hg3(GeS4)2
_symmetry_space_group_name_H-M   'P 1'
_cell_length_a   8.69253800
_cell_length_b   9.80810200
_cell_length_c   19.66467900
_cell_angle_alpha   90.00000000
_cell_angle_beta   90.00000000
_cell_angle_gamma   90.00000000
_symmetry_Int_Tables_number   1
_chemical_formula_structural   K2Hg3(GeS4)2
_chemical_formula_sum   'K8 Hg12 Ge8 S32'
_cell_volume   1676.55742398
_cell_formula_units_Z   4
loop_
 _symmetry_equiv_pos_site_id
 _symmetry_equiv_pos_as_xyz
  1  'x, y, z'
loop_
 _atom_site_type_symbol
 _atom_site_label
 _atom_site_symmetry_multiplicity
 _atom_site_fract_x
 _atom_site_fract_y
 _atom_site_fract_z
 _atom_site_occupancy
  K  K0  1  0.64876050  0.19831750  0.88469300  1
  K  K1  1  0.64876050  0.80168250  0.11530700  1
  K  K2  1  0.64876050  0.69831750  0.61530700  1
  K  K3  1  0.64876050  0.30168250  0.38469300  1
  K  K4  1  0.14876050  0.69831750  0.88469300  1
  K  K5  1  0.14876050  0.30168250  0.11530700  1
  K  K6  1  0.14876050  0.19831750  0.61530700  1
  K  K7  1  0.14876050  0.80168250  0.38469300  1
  Hg  Hg8  1  0.34883150  0.95431350  0.75376000  1
  Hg  Hg9  1  0.34883150  0.04568650  0.24624000  1
  Hg  Hg10  1  0.84883150  0.95431350  0.74624000  1
  Hg  Hg11  1  0.84883150  0.04568650  0.25376000  1
  Hg  Hg12  1  0.02098600  0.00000000  0.00000000  1
  Hg  Hg13  1  0.52098600  0.00000000  0.50000000  1
  Hg  Hg14  1  0.84883150  0.45431350  0.75376000  1
  Hg  Hg15  1  0.84883150  0.54568650  0.24624000  1
  Hg  Hg16  1  0.34883150  0.45431350  0.74624000  1
  Hg  Hg17  1  0.34883150  0.54568650  0.25376000  1
  Hg  Hg18  1  0.52098600  0.50000000  0.00000000  1
  Hg  Hg19  1  0.02098600  0.50000000  0.50000000  1
  Ge  Ge20  1  0.66086450  0.70883850  0.86288300  1
  Ge  Ge21  1  0.66086450  0.29116150  0.13711700  1
  Ge  Ge22  1  0.66086450  0.20883850  0.63711700  1
  Ge  Ge23  1  0.66086450  0.79116150  0.36288300  1
  Ge  Ge24  1  0.16086450  0.20883850  0.86288300  1
  Ge  Ge25  1  0.16086450  0.79116150  0.13711700  1
  Ge  Ge26  1  0.16086450  0.70883850  0.63711700  1
  Ge  Ge27  1  0.16086450  0.29116150  0.36288300  1
  S  S28  1  0.30839650  0.89815750  0.63255900  1
  S  S29  1  0.30839650  0.10184250  0.36744100  1
  S  S30  1  0.80839650  0.89815750  0.86744100  1
  S  S31  1  0.80839650  0.10184250  0.13255900  1
  S  S32  1  0.30351550  0.01806650  0.87334200  1
  S  S33  1  0.30351550  0.98193350  0.12665800  1
  S  S34  1  0.80351550  0.01806650  0.62665800  1
  S  S35  1  0.80351550  0.98193350  0.37334200  1
  S  S36  1  0.51807000  0.72848500  0.95969500  1
  S  S37  1  0.51807000  0.27151500  0.04030500  1
  S  S38  1  0.51807000  0.22848500  0.54030500  1
  S  S39  1  0.51807000  0.77151500  0.45969500  1
  S  S40  1  0.51771800  0.70729700  0.77099200  1
  S  S41  1  0.51771800  0.29270300  0.22900800  1
  S  S42  1  0.51771800  0.79270300  0.27099200  1
  S  S43  1  0.51771800  0.20729700  0.72900800  1
  S  S44  1  0.80839650  0.39815750  0.63255900  1
  S  S45  1  0.80839650  0.60184250  0.36744100  1
  S  S46  1  0.30839650  0.39815750  0.86744100  1
  S  S47  1  0.30839650  0.60184250  0.13255900  1
  S  S48  1  0.80351550  0.51806650  0.87334200  1
  S  S49  1  0.80351550  0.48193350  0.12665800  1
  S  S50  1  0.30351550  0.51806650  0.62665800  1
  S  S51  1  0.30351550  0.48193350  0.37334200  1
  S  S52  1  0.01807000  0.22848500  0.95969500  1
  S  S53  1  0.01807000  0.77151500  0.04030500  1
  S  S54  1  0.01807000  0.72848500  0.54030500  1
  S  S55  1  0.01807000  0.27151500  0.45969500  1
  S  S56  1  0.01771800  0.20729700  0.77099200  1
  S  S57  1  0.01771800  0.79270300  0.22900800  1
  S  S58  1  0.01771800  0.29270300  0.27099200  1
  S  S59  1  0.01771800  0.70729700  0.72900800  1
