# generated using pymatgen
data_Ba2VN3
_symmetry_space_group_name_H-M   'P 1'
_cell_length_a   5.93961600
_cell_length_b   11.72895600
_cell_length_c   13.08797000
_cell_angle_alpha   90.00000000
_cell_angle_beta   90.00000000
_cell_angle_gamma   90.00000000
_symmetry_Int_Tables_number   1
_chemical_formula_structural   Ba2VN3
_chemical_formula_sum   'Ba16 V8 N24'
_cell_volume   911.77990494
_cell_formula_units_Z   8
loop_
 _symmetry_equiv_pos_site_id
 _symmetry_equiv_pos_as_xyz
  1  'x, y, z'
loop_
 _atom_site_type_symbol
 _atom_site_label
 _atom_site_symmetry_multiplicity
 _atom_site_fract_x
 _atom_site_fract_y
 _atom_site_fract_z
 _atom_site_occupancy
  Ba  Ba0  1  0.00000000  0.64163300  0.92176800  1
  Ba  Ba1  1  0.50000000  0.64163300  0.57823200  1
  Ba  Ba2  1  0.00000000  0.85836700  0.42176800  1
  Ba  Ba3  1  0.50000000  0.85836700  0.07823200  1
  Ba  Ba4  1  0.50000000  0.55630100  0.14506100  1
  Ba  Ba5  1  0.00000000  0.94369900  0.85493900  1
  Ba  Ba6  1  0.50000000  0.94369900  0.64506100  1
  Ba  Ba7  1  0.00000000  0.55630100  0.35493900  1
  Ba  Ba8  1  0.50000000  0.14163300  0.92176800  1
  Ba  Ba9  1  0.00000000  0.14163300  0.57823200  1
  Ba  Ba10  1  0.50000000  0.35836700  0.42176800  1
  Ba  Ba11  1  0.00000000  0.35836700  0.07823200  1
  Ba  Ba12  1  0.00000000  0.05630100  0.14506100  1
  Ba  Ba13  1  0.50000000  0.44369900  0.85493900  1
  Ba  Ba14  1  0.00000000  0.44369900  0.64506100  1
  Ba  Ba15  1  0.50000000  0.05630100  0.35493900  1
  V  V16  1  0.00000000  0.74371900  0.16762000  1
  V  V17  1  0.00000000  0.75628100  0.66762000  1
  V  V18  1  0.50000000  0.75628100  0.83238000  1
  V  V19  1  0.50000000  0.74371900  0.33238000  1
  V  V20  1  0.50000000  0.24371900  0.16762000  1
  V  V21  1  0.50000000  0.25628100  0.66762000  1
  V  V22  1  0.00000000  0.25628100  0.83238000  1
  V  V23  1  0.00000000  0.24371900  0.33238000  1
  N  N24  1  0.25000000  0.77429900  0.25000000  1
  N  N25  1  0.75000000  0.72570100  0.75000000  1
  N  N26  1  0.25000000  0.72570100  0.75000000  1
  N  N27  1  0.75000000  0.77429900  0.25000000  1
  N  N28  1  0.50000000  0.59501900  0.36647000  1
  N  N29  1  0.00000000  0.90498100  0.63353000  1
  N  N30  1  0.50000000  0.90498100  0.86647000  1
  N  N31  1  0.00000000  0.83315900  0.05720300  1
  N  N32  1  0.50000000  0.83315900  0.44279700  1
  N  N33  1  0.00000000  0.66684100  0.55720300  1
  N  N34  1  0.50000000  0.66684100  0.94279700  1
  N  N35  1  0.00000000  0.59501900  0.13353000  1
  N  N36  1  0.75000000  0.27429900  0.25000000  1
  N  N37  1  0.25000000  0.22570100  0.75000000  1
  N  N38  1  0.75000000  0.22570100  0.75000000  1
  N  N39  1  0.25000000  0.27429900  0.25000000  1
  N  N40  1  0.00000000  0.09501900  0.36647000  1
  N  N41  1  0.50000000  0.40498100  0.63353000  1
  N  N42  1  0.00000000  0.40498100  0.86647000  1
  N  N43  1  0.50000000  0.33315900  0.05720300  1
  N  N44  1  0.00000000  0.33315900  0.44279700  1
  N  N45  1  0.50000000  0.16684100  0.55720300  1
  N  N46  1  0.00000000  0.16684100  0.94279700  1
  N  N47  1  0.50000000  0.09501900  0.13353000  1
