# generated using pymatgen
data_Ba2TaN3
_symmetry_space_group_name_H-M   'P 1'
_cell_length_a   6.23841600
_cell_length_b   11.98701000
_cell_length_c   13.40602326
_cell_angle_alpha   90.00000000
_cell_angle_beta   90.96420795
_cell_angle_gamma   90.00000000
_symmetry_Int_Tables_number   1
_chemical_formula_structural   Ba2TaN3
_chemical_formula_sum   'Ba16 Ta8 N24'
_cell_volume   1002.35986399
_cell_formula_units_Z   8
loop_
 _symmetry_equiv_pos_site_id
 _symmetry_equiv_pos_as_xyz
  1  'x, y, z'
loop_
 _atom_site_type_symbol
 _atom_site_label
 _atom_site_symmetry_multiplicity
 _atom_site_fract_x
 _atom_site_fract_y
 _atom_site_fract_z
 _atom_site_occupancy
  Ba  Ba0  1  0.75274600  0.69687600  0.86002600  1
  Ba  Ba1  1  0.75735100  0.88653100  0.57703100  1
  Ba  Ba2  1  0.25735100  0.61346900  0.07703100  1
  Ba  Ba3  1  0.74264900  0.61346900  0.42296900  1
  Ba  Ba4  1  0.74725400  0.80312400  0.13997400  1
  Ba  Ba5  1  0.25274600  0.80312400  0.36002600  1
  Ba  Ba6  1  0.24725400  0.69687600  0.63997400  1
  Ba  Ba7  1  0.24264900  0.88653100  0.92296900  1
  Ba  Ba8  1  0.25274600  0.19687600  0.86002600  1
  Ba  Ba9  1  0.25735100  0.38653100  0.57703100  1
  Ba  Ba10  1  0.75735100  0.11346900  0.07703100  1
  Ba  Ba11  1  0.24264900  0.11346900  0.42296900  1
  Ba  Ba12  1  0.24725400  0.30312400  0.13997400  1
  Ba  Ba13  1  0.75274600  0.30312400  0.36002600  1
  Ba  Ba14  1  0.74725400  0.19687600  0.63997400  1
  Ba  Ba15  1  0.74264900  0.38653100  0.92296900  1
  Ta  Ta16  1  0.75883200  0.50401400  0.66617000  1
  Ta  Ta17  1  0.24116800  0.50401400  0.83383000  1
  Ta  Ta18  1  0.74116800  0.99598600  0.33383000  1
  Ta  Ta19  1  0.25883200  0.99598600  0.16617000  1
  Ta  Ta20  1  0.25883200  0.00401400  0.66617000  1
  Ta  Ta21  1  0.74116800  0.00401400  0.83383000  1
  Ta  Ta22  1  0.24116800  0.49598600  0.33383000  1
  Ta  Ta23  1  0.75883200  0.49598600  0.16617000  1
  N  N24  1  0.72628800  0.59032900  0.05051400  1
  N  N25  1  0.27371200  0.59032900  0.44948600  1
  N  N26  1  0.77371200  0.90967100  0.94948600  1
  N  N27  1  0.22628800  0.90967100  0.55051400  1
  N  N28  1  0.50000000  0.50637700  0.25000000  1
  N  N29  1  0.00000000  0.99362300  0.75000000  1
  N  N30  1  0.00000000  0.55508000  0.25000000  1
  N  N31  1  0.50000000  0.94492000  0.75000000  1
  N  N32  1  0.69389100  0.84199700  0.37243300  1
  N  N33  1  0.19389100  0.65800300  0.87243300  1
  N  N34  1  0.80610900  0.65800300  0.62756700  1
  N  N35  1  0.30610900  0.84199700  0.12756700  1
  N  N36  1  0.22628800  0.09032900  0.05051400  1
  N  N37  1  0.77371200  0.09032900  0.44948600  1
  N  N38  1  0.27371200  0.40967100  0.94948600  1
  N  N39  1  0.72628800  0.40967100  0.55051400  1
  N  N40  1  0.00000000  0.00637700  0.25000000  1
  N  N41  1  0.50000000  0.49362300  0.75000000  1
  N  N42  1  0.50000000  0.05508000  0.25000000  1
  N  N43  1  0.00000000  0.44492000  0.75000000  1
  N  N44  1  0.19389100  0.34199700  0.37243300  1
  N  N45  1  0.69389100  0.15800300  0.87243300  1
  N  N46  1  0.30610900  0.15800300  0.62756700  1
  N  N47  1  0.80610900  0.34199700  0.12756700  1
