# generated using pymatgen
data_Na4Mn2O5
_symmetry_space_group_name_H-M   'P 1'
_cell_length_a   5.84527600
_cell_length_b   9.63542200
_cell_length_c   19.88870600
_cell_angle_alpha   90.00000000
_cell_angle_beta   90.00000000
_cell_angle_gamma   90.00000000
_symmetry_Int_Tables_number   1
_chemical_formula_structural   Na4Mn2O5
_chemical_formula_sum   'Na32 Mn16 O40'
_cell_volume   1120.16575194
_cell_formula_units_Z   8
loop_
 _symmetry_equiv_pos_site_id
 _symmetry_equiv_pos_as_xyz
  1  'x, y, z'
loop_
 _atom_site_type_symbol
 _atom_site_label
 _atom_site_symmetry_multiplicity
 _atom_site_fract_x
 _atom_site_fract_y
 _atom_site_fract_z
 _atom_site_occupancy
  Na  Na0  1  0.75525250  0.99912850  0.40990500  1
  Na  Na1  1  0.00525250  0.74912850  0.34009500  1
  Na  Na2  1  0.74474750  0.99912850  0.09009500  1
  Na  Na3  1  0.24474750  0.00087150  0.40990500  1
  Na  Na4  1  0.99474750  0.25087150  0.34009500  1
  Na  Na5  1  0.49474750  0.74912850  0.15990500  1
  Na  Na6  1  0.50525250  0.25087150  0.15990500  1
  Na  Na7  1  0.25525250  0.00087150  0.09009500  1
  Na  Na8  1  0.75525250  0.49912850  0.90990500  1
  Na  Na9  1  0.00525250  0.24912850  0.84009500  1
  Na  Na10  1  0.74474750  0.49912850  0.59009500  1
  Na  Na11  1  0.24474750  0.50087150  0.90990500  1
  Na  Na12  1  0.99474750  0.75087150  0.84009500  1
  Na  Na13  1  0.49474750  0.24912850  0.65990500  1
  Na  Na14  1  0.50525250  0.75087150  0.65990500  1
  Na  Na15  1  0.25525250  0.50087150  0.59009500  1
  Na  Na16  1  0.25525250  0.99912850  0.90990500  1
  Na  Na17  1  0.50525250  0.74912850  0.84009500  1
  Na  Na18  1  0.24474750  0.99912850  0.59009500  1
  Na  Na19  1  0.74474750  0.00087150  0.90990500  1
  Na  Na20  1  0.49474750  0.25087150  0.84009500  1
  Na  Na21  1  0.99474750  0.74912850  0.65990500  1
  Na  Na22  1  0.00525250  0.25087150  0.65990500  1
  Na  Na23  1  0.75525250  0.00087150  0.59009500  1
  Na  Na24  1  0.25525250  0.49912850  0.40990500  1
  Na  Na25  1  0.50525250  0.24912850  0.34009500  1
  Na  Na26  1  0.24474750  0.49912850  0.09009500  1
  Na  Na27  1  0.74474750  0.50087150  0.40990500  1
  Na  Na28  1  0.49474750  0.75087150  0.34009500  1
  Na  Na29  1  0.99474750  0.24912850  0.15990500  1
  Na  Na30  1  0.00525250  0.75087150  0.15990500  1
  Na  Na31  1  0.75525250  0.50087150  0.09009500  1
  Mn  Mn32  1  0.75000000  0.46973100  0.25000000  1
  Mn  Mn33  1  0.50000000  0.21973100  0.00000000  1
  Mn  Mn34  1  0.50000000  0.78026900  0.00000000  1
  Mn  Mn35  1  0.75000000  0.03026900  0.25000000  1
  Mn  Mn36  1  0.75000000  0.96973100  0.75000000  1
  Mn  Mn37  1  0.50000000  0.71973100  0.50000000  1
  Mn  Mn38  1  0.50000000  0.28026900  0.50000000  1
  Mn  Mn39  1  0.75000000  0.53026900  0.75000000  1
  Mn  Mn40  1  0.25000000  0.46973100  0.75000000  1
  Mn  Mn41  1  0.00000000  0.21973100  0.50000000  1
  Mn  Mn42  1  0.00000000  0.78026900  0.50000000  1
  Mn  Mn43  1  0.25000000  0.03026900  0.75000000  1
  Mn  Mn44  1  0.25000000  0.96973100  0.25000000  1
  Mn  Mn45  1  0.00000000  0.71973100  0.00000000  1
  Mn  Mn46  1  0.00000000  0.28026900  0.00000000  1
  Mn  Mn47  1  0.25000000  0.53026900  0.25000000  1
  O  O48  1  0.75000000  0.25000000  0.25000000  1
  O  O49  1  0.00000000  0.00000000  0.31546800  1
  O  O50  1  0.75000000  0.75000000  0.06686100  1
  O  O51  1  0.75000000  0.75000000  0.43313900  1
  O  O52  1  0.00000000  0.00000000  0.18313900  1
  O  O53  1  0.50000000  0.00000000  0.31686100  1
  O  O54  1  0.50000000  0.00000000  0.18453200  1
  O  O55  1  0.75000000  0.25000000  0.43453200  1
  O  O56  1  0.50000000  0.00000000  0.00000000  1
  O  O57  1  0.75000000  0.25000000  0.06546800  1
  O  O58  1  0.75000000  0.75000000  0.75000000  1
  O  O59  1  0.00000000  0.50000000  0.81546800  1
  O  O60  1  0.75000000  0.25000000  0.56686100  1
  O  O61  1  0.75000000  0.25000000  0.93313900  1
  O  O62  1  0.00000000  0.50000000  0.68313900  1
  O  O63  1  0.50000000  0.50000000  0.81686100  1
  O  O64  1  0.50000000  0.50000000  0.68453200  1
  O  O65  1  0.75000000  0.75000000  0.93453200  1
  O  O66  1  0.50000000  0.50000000  0.50000000  1
  O  O67  1  0.75000000  0.75000000  0.56546800  1
  O  O68  1  0.25000000  0.25000000  0.75000000  1
  O  O69  1  0.50000000  0.00000000  0.81546800  1
  O  O70  1  0.25000000  0.75000000  0.56686100  1
  O  O71  1  0.25000000  0.75000000  0.93313900  1
  O  O72  1  0.50000000  0.00000000  0.68313900  1
  O  O73  1  0.00000000  0.00000000  0.81686100  1
  O  O74  1  0.00000000  0.00000000  0.68453200  1
  O  O75  1  0.25000000  0.25000000  0.93453200  1
  O  O76  1  0.00000000  0.00000000  0.50000000  1
  O  O77  1  0.25000000  0.25000000  0.56546800  1
  O  O78  1  0.25000000  0.75000000  0.25000000  1
  O  O79  1  0.50000000  0.50000000  0.31546800  1
  O  O80  1  0.25000000  0.25000000  0.06686100  1
  O  O81  1  0.25000000  0.25000000  0.43313900  1
  O  O82  1  0.50000000  0.50000000  0.18313900  1
  O  O83  1  0.00000000  0.50000000  0.31686100  1
  O  O84  1  0.00000000  0.50000000  0.18453200  1
  O  O85  1  0.25000000  0.75000000  0.43453200  1
  O  O86  1  0.00000000  0.50000000  0.00000000  1
  O  O87  1  0.25000000  0.75000000  0.06546800  1
