# generated using pymatgen
data_NaZr2ZnF11
_symmetry_space_group_name_H-M   'P 1'
_cell_length_a   9.25621400
_cell_length_b   6.83228000
_cell_length_c   7.89395548
_cell_angle_alpha   90.00000000
_cell_angle_beta   116.12186307
_cell_angle_gamma   90.00000000
_symmetry_Int_Tables_number   1
_chemical_formula_structural   NaZr2ZnF11
_chemical_formula_sum   'Na2 Zr4 Zn2 F22'
_cell_volume   448.23128355
_cell_formula_units_Z   2
loop_
 _symmetry_equiv_pos_site_id
 _symmetry_equiv_pos_as_xyz
  1  'x, y, z'
loop_
 _atom_site_type_symbol
 _atom_site_label
 _atom_site_symmetry_multiplicity
 _atom_site_fract_x
 _atom_site_fract_y
 _atom_site_fract_z
 _atom_site_occupancy
  Na  Na0  1  0.00000000  0.00000000  0.00000000  1
  Na  Na1  1  0.50000000  0.50000000  0.00000000  1
  Zr  Zr2  1  0.00662700  0.50000000  0.23655100  1
  Zr  Zr3  1  0.99337300  0.50000000  0.76344900  1
  Zr  Zr4  1  0.50662700  0.00000000  0.23655100  1
  Zr  Zr5  1  0.49337300  0.00000000  0.76344900  1
  Zn  Zn6  1  0.00000000  0.00000000  0.50000000  1
  Zn  Zn7  1  0.50000000  0.50000000  0.50000000  1
  F  F8  1  0.01617350  0.79475850  0.31239400  1
  F  F9  1  0.98382650  0.79475850  0.68760600  1
  F  F10  1  0.98382650  0.20524150  0.68760600  1
  F  F11  1  0.01617350  0.20524150  0.31239400  1
  F  F12  1  0.00000000  0.50000000  0.50000000  1
  F  F13  1  0.00000000  0.32885900  0.00000000  1
  F  F14  1  0.00000000  0.67114100  0.00000000  1
  F  F15  1  0.74618000  0.50000000  0.64840800  1
  F  F16  1  0.25382000  0.50000000  0.35159200  1
  F  F17  1  0.76821400  0.50000000  0.11006900  1
  F  F18  1  0.23178600  0.50000000  0.88993100  1
  F  F19  1  0.51617350  0.29475850  0.31239400  1
  F  F20  1  0.48382650  0.29475850  0.68760600  1
  F  F21  1  0.48382650  0.70524150  0.68760600  1
  F  F22  1  0.51617350  0.70524150  0.31239400  1
  F  F23  1  0.50000000  0.00000000  0.50000000  1
  F  F24  1  0.50000000  0.82885900  0.00000000  1
  F  F25  1  0.50000000  0.17114100  0.00000000  1
  F  F26  1  0.24618000  0.00000000  0.64840800  1
  F  F27  1  0.75382000  0.00000000  0.35159200  1
  F  F28  1  0.26821400  0.00000000  0.11006900  1
  F  F29  1  0.73178600  0.00000000  0.88993100  1
