# generated using pymatgen
data_MnMoO4
_symmetry_space_group_name_H-M   'P 1'
_cell_length_a   10.68269057
_cell_length_b   9.69743528
_cell_length_c   7.28261651
_cell_angle_alpha   90.00000000
_cell_angle_beta   106.21758473
_cell_angle_gamma   90.00000000
_symmetry_Int_Tables_number   1
_chemical_formula_structural   MnMoO4
_chemical_formula_sum   'Mn8 Mo8 O32'
_cell_volume   724.41979139
_cell_formula_units_Z   8
loop_
 _symmetry_equiv_pos_site_id
 _symmetry_equiv_pos_as_xyz
  1  'x, y, z'
loop_
 _atom_site_type_symbol
 _atom_site_label
 _atom_site_symmetry_multiplicity
 _atom_site_fract_x
 _atom_site_fract_y
 _atom_site_fract_z
 _atom_site_occupancy
  Mn  Mn0  1  0.00000000  0.81671428  0.50000000  1
  Mn  Mn1  1  0.00000000  0.18328572  0.50000000  1
  Mn  Mn2  1  0.70518708  0.50000000  0.86230113  1
  Mn  Mn3  1  0.29481292  0.50000000  0.13769887  1
  Mn  Mn4  1  0.50000000  0.31671428  0.50000000  1
  Mn  Mn5  1  0.50000000  0.68328572  0.50000000  1
  Mn  Mn6  1  0.20518708  0.00000000  0.86230113  1
  Mn  Mn7  1  0.79481293  0.00000000  0.13769887  1
  Mo  Mo8  1  0.00000000  0.74909819  0.00000000  1
  Mo  Mo9  1  0.00000000  0.25090181  0.00000000  1
  Mo  Mo10  1  0.22969244  0.50000000  0.59404220  1
  Mo  Mo11  1  0.77030756  0.50000000  0.40595780  1
  Mo  Mo12  1  0.50000000  0.24909819  0.00000000  1
  Mo  Mo13  1  0.50000000  0.75090181  0.00000000  1
  Mo  Mo14  1  0.72969244  0.00000000  0.59404220  1
  Mo  Mo15  1  0.27030756  0.00000000  0.40595780  1
  O  O16  1  0.13534568  0.65163560  0.52943175  1
  O  O17  1  0.86465432  0.65163560  0.47056825  1
  O  O18  1  0.86465432  0.34836440  0.47056825  1
  O  O19  1  0.13534568  0.34836440  0.52943175  1
  O  O20  1  0.04215433  0.84647333  0.80899473  1
  O  O21  1  0.95784567  0.84647333  0.19100527  1
  O  O22  1  0.95784567  0.15352667  0.19100527  1
  O  O23  1  0.04215433  0.15352667  0.80899473  1
  O  O24  1  0.64207138  0.50000000  0.53740113  1
  O  O25  1  0.35792862  0.50000000  0.46259887  1
  O  O26  1  0.29836873  0.50000000  0.84768715  1
  O  O27  1  0.70163127  0.50000000  0.15231285  1
  O  O28  1  0.86232201  0.35468932  0.89369700  1
  O  O29  1  0.13767799  0.64531068  0.10630300  1
  O  O30  1  0.13767799  0.35468932  0.10630300  1
  O  O31  1  0.86232201  0.64531068  0.89369700  1
  O  O32  1  0.63534568  0.15163560  0.52943175  1
  O  O33  1  0.36465432  0.15163560  0.47056825  1
  O  O34  1  0.36465432  0.84836440  0.47056825  1
  O  O35  1  0.63534568  0.84836440  0.52943175  1
  O  O36  1  0.54215433  0.34647333  0.80899473  1
  O  O37  1  0.45784567  0.34647333  0.19100527  1
  O  O38  1  0.45784567  0.65352667  0.19100527  1
  O  O39  1  0.54215433  0.65352667  0.80899473  1
  O  O40  1  0.14207138  0.00000000  0.53740113  1
  O  O41  1  0.85792862  0.00000000  0.46259887  1
  O  O42  1  0.79836873  0.00000000  0.84768715  1
  O  O43  1  0.20163127  0.00000000  0.15231285  1
  O  O44  1  0.36232201  0.85468932  0.89369700  1
  O  O45  1  0.63767799  0.14531068  0.10630300  1
  O  O46  1  0.63767799  0.85468932  0.10630300  1
  O  O47  1  0.36232201  0.14531068  0.89369700  1
