# generated using pymatgen
data_HgWO4
_symmetry_space_group_name_H-M   'P 1'
_cell_length_a   11.61034200
_cell_length_b   6.21695800
_cell_length_c   5.27409946
_cell_angle_alpha   90.00000000
_cell_angle_beta   113.72756879
_cell_angle_gamma   90.00000000
_symmetry_Int_Tables_number   1
_chemical_formula_structural   HgWO4
_chemical_formula_sum   'Hg4 W4 O16'
_cell_volume   348.50975920
_cell_formula_units_Z   4
loop_
 _symmetry_equiv_pos_site_id
 _symmetry_equiv_pos_as_xyz
  1  'x, y, z'
loop_
 _atom_site_type_symbol
 _atom_site_label
 _atom_site_symmetry_multiplicity
 _atom_site_fract_x
 _atom_site_fract_y
 _atom_site_fract_z
 _atom_site_occupancy
  Hg  Hg0  1  0.25000000  0.75000000  0.00000000  1
  Hg  Hg1  1  0.25000000  0.25000000  0.50000000  1
  Hg  Hg2  1  0.75000000  0.25000000  0.00000000  1
  Hg  Hg3  1  0.75000000  0.75000000  0.50000000  1
  W  W4  1  0.00000000  0.18069900  0.75000000  1
  W  W5  1  0.00000000  0.81930100  0.25000000  1
  W  W6  1  0.50000000  0.68069900  0.75000000  1
  W  W7  1  0.50000000  0.31930100  0.25000000  1
  O  O8  1  0.38316550  0.14078650  0.02425600  1
  O  O9  1  0.11683450  0.64078650  0.47574400  1
  O  O10  1  0.11683450  0.35921350  0.97574400  1
  O  O11  1  0.38316550  0.85921350  0.52425600  1
  O  O12  1  0.40468850  0.59223350  0.97288900  1
  O  O13  1  0.09531150  0.09223350  0.52711100  1
  O  O14  1  0.09531150  0.90776650  0.02711100  1
  O  O15  1  0.40468850  0.40776650  0.47288900  1
  O  O16  1  0.88316550  0.64078650  0.02425600  1
  O  O17  1  0.61683450  0.14078650  0.47574400  1
  O  O18  1  0.61683450  0.85921350  0.97574400  1
  O  O19  1  0.88316550  0.35921350  0.52425600  1
  O  O20  1  0.90468850  0.09223350  0.97288900  1
  O  O21  1  0.59531150  0.59223350  0.52711100  1
  O  O22  1  0.59531150  0.40776650  0.02711100  1
  O  O23  1  0.90468850  0.90776650  0.47288900  1
