# generated using pymatgen
data_Cs2As3
_symmetry_space_group_name_H-M   'P 1'
_cell_length_a   9.87015600
_cell_length_b   10.64998800
_cell_length_c   16.04821000
_cell_angle_alpha   90.00000000
_cell_angle_beta   90.00000000
_cell_angle_gamma   90.00000000
_symmetry_Int_Tables_number   1
_chemical_formula_structural   Cs2As3
_chemical_formula_sum   'Cs16 As24'
_cell_volume   1686.94037997
_cell_formula_units_Z   8
loop_
 _symmetry_equiv_pos_site_id
 _symmetry_equiv_pos_as_xyz
  1  'x, y, z'
loop_
 _atom_site_type_symbol
 _atom_site_label
 _atom_site_symmetry_multiplicity
 _atom_site_fract_x
 _atom_site_fract_y
 _atom_site_fract_z
 _atom_site_occupancy
  Cs  Cs0  1  0.75000000  0.25000000  0.25000000  1
  Cs  Cs1  1  0.75000000  0.75000000  0.25000000  1
  Cs  Cs2  1  0.50000000  0.23161900  0.00000000  1
  Cs  Cs3  1  0.50000000  0.76838100  0.00000000  1
  Cs  Cs4  1  0.75000000  0.75000000  0.75000000  1
  Cs  Cs5  1  0.75000000  0.25000000  0.75000000  1
  Cs  Cs6  1  0.50000000  0.73161900  0.50000000  1
  Cs  Cs7  1  0.50000000  0.26838100  0.50000000  1
  Cs  Cs8  1  0.25000000  0.25000000  0.75000000  1
  Cs  Cs9  1  0.25000000  0.75000000  0.75000000  1
  Cs  Cs10  1  0.00000000  0.23161900  0.50000000  1
  Cs  Cs11  1  0.00000000  0.76838100  0.50000000  1
  Cs  Cs12  1  0.25000000  0.75000000  0.25000000  1
  Cs  Cs13  1  0.25000000  0.25000000  0.25000000  1
  Cs  Cs14  1  0.00000000  0.73161900  0.00000000  1
  Cs  Cs15  1  0.00000000  0.26838100  0.00000000  1
  As  As16  1  0.28791950  0.00000000  0.42461250  1
  As  As17  1  0.78791950  0.00000000  0.07538750  1
  As  As18  1  0.21208050  0.00000000  0.07538750  1
  As  As19  1  0.71208050  0.00000000  0.42461250  1
  As  As20  1  0.50000000  0.00000000  0.34832500  1
  As  As21  1  0.00000000  0.00000000  0.15167500  1
  As  As22  1  0.28791950  0.50000000  0.92461250  1
  As  As23  1  0.78791950  0.50000000  0.57538750  1
  As  As24  1  0.21208050  0.50000000  0.57538750  1
  As  As25  1  0.71208050  0.50000000  0.92461250  1
  As  As26  1  0.50000000  0.50000000  0.84832500  1
  As  As27  1  0.00000000  0.50000000  0.65167500  1
  As  As28  1  0.78791950  0.00000000  0.92461250  1
  As  As29  1  0.28791950  0.00000000  0.57538750  1
  As  As30  1  0.71208050  0.00000000  0.57538750  1
  As  As31  1  0.21208050  0.00000000  0.92461250  1
  As  As32  1  0.00000000  0.00000000  0.84832500  1
  As  As33  1  0.50000000  0.00000000  0.65167500  1
  As  As34  1  0.78791950  0.50000000  0.42461250  1
  As  As35  1  0.28791950  0.50000000  0.07538750  1
  As  As36  1  0.71208050  0.50000000  0.07538750  1
  As  As37  1  0.21208050  0.50000000  0.42461250  1
  As  As38  1  0.00000000  0.50000000  0.34832500  1
  As  As39  1  0.50000000  0.50000000  0.15167500  1
