# generated using pymatgen
data_KMnO4
_symmetry_space_group_name_H-M   'P 1'
_cell_length_a   5.92929400
_cell_length_b   7.57734000
_cell_length_c   9.23189100
_cell_angle_alpha   90.00000000
_cell_angle_beta   90.00000000
_cell_angle_gamma   90.00000000
_symmetry_Int_Tables_number   1
_chemical_formula_structural   KMnO4
_chemical_formula_sum   'K4 Mn4 O16'
_cell_volume   414.77295237
_cell_formula_units_Z   4
loop_
 _symmetry_equiv_pos_site_id
 _symmetry_equiv_pos_as_xyz
  1  'x, y, z'
loop_
 _atom_site_type_symbol
 _atom_site_label
 _atom_site_symmetry_multiplicity
 _atom_site_fract_x
 _atom_site_fract_y
 _atom_site_fract_z
 _atom_site_occupancy
  K  K0  1  0.25000000  0.65687300  0.31886400  1
  K  K1  1  0.75000000  0.34312700  0.68113600  1
  K  K2  1  0.75000000  0.15687300  0.18113600  1
  K  K3  1  0.25000000  0.84312700  0.81886400  1
  Mn  Mn4  1  0.25000000  0.18905900  0.44057400  1
  Mn  Mn5  1  0.75000000  0.81094100  0.55942600  1
  Mn  Mn6  1  0.75000000  0.68905900  0.05942600  1
  Mn  Mn7  1  0.25000000  0.31094100  0.94057400  1
  O  O8  1  0.52646400  0.81079000  0.07829400  1
  O  O9  1  0.02646400  0.18921000  0.92170600  1
  O  O10  1  0.47353600  0.31079000  0.42170600  1
  O  O11  1  0.97353600  0.68921000  0.57829400  1
  O  O12  1  0.47353600  0.18921000  0.92170600  1
  O  O13  1  0.97353600  0.81079000  0.07829400  1
  O  O14  1  0.52646400  0.68921000  0.57829400  1
  O  O15  1  0.02646400  0.31079000  0.42170600  1
  O  O16  1  0.25000000  0.03630000  0.31846300  1
  O  O17  1  0.75000000  0.96370000  0.68153700  1
  O  O18  1  0.75000000  0.53630000  0.18153700  1
  O  O19  1  0.25000000  0.46370000  0.81846300  1
  O  O20  1  0.25000000  0.10165100  0.59986000  1
  O  O21  1  0.75000000  0.89834900  0.40014000  1
  O  O22  1  0.75000000  0.60165100  0.90014000  1
  O  O23  1  0.25000000  0.39834900  0.09986000  1
