# generated using pymatgen
data_Ba4GaN3O
_symmetry_space_group_name_H-M   'P 1'
_cell_length_a   7.98743300
_cell_length_b   8.02536600
_cell_length_c   25.01159000
_cell_angle_alpha   90.00000000
_cell_angle_beta   90.00000000
_cell_angle_gamma   90.00000000
_symmetry_Int_Tables_number   1
_chemical_formula_structural   Ba4GaN3O
_chemical_formula_sum   'Ba32 Ga8 N24 O8'
_cell_volume   1603.29477367
_cell_formula_units_Z   8
loop_
 _symmetry_equiv_pos_site_id
 _symmetry_equiv_pos_as_xyz
  1  'x, y, z'
loop_
 _atom_site_type_symbol
 _atom_site_label
 _atom_site_symmetry_multiplicity
 _atom_site_fract_x
 _atom_site_fract_y
 _atom_site_fract_z
 _atom_site_occupancy
  Ba  Ba0  1  0.16599100  0.85743900  0.43682100  1
  Ba  Ba1  1  0.83400900  0.35743900  0.06317900  1
  Ba  Ba2  1  0.33400900  0.14256100  0.93682100  1
  Ba  Ba3  1  0.66599100  0.64256100  0.56317900  1
  Ba  Ba4  1  0.83400900  0.14256100  0.56317900  1
  Ba  Ba5  1  0.16599100  0.64256100  0.93682100  1
  Ba  Ba6  1  0.66599100  0.85743900  0.06317900  1
  Ba  Ba7  1  0.33400900  0.35743900  0.43682100  1
  Ba  Ba8  1  0.35744900  0.51893800  0.06120600  1
  Ba  Ba9  1  0.64255100  0.01893800  0.43879400  1
  Ba  Ba10  1  0.14255100  0.48106200  0.56120600  1
  Ba  Ba11  1  0.85744900  0.98106200  0.93879400  1
  Ba  Ba12  1  0.64255100  0.48106200  0.93879400  1
  Ba  Ba13  1  0.35744900  0.98106200  0.56120600  1
  Ba  Ba14  1  0.85744900  0.51893800  0.43879400  1
  Ba  Ba15  1  0.14255100  0.01893800  0.06120600  1
  Ba  Ba16  1  0.26335900  0.95314100  0.26645700  1
  Ba  Ba17  1  0.73664100  0.45314100  0.23354300  1
  Ba  Ba18  1  0.23664100  0.04685900  0.76645700  1
  Ba  Ba19  1  0.76335900  0.54685900  0.73354300  1
  Ba  Ba20  1  0.73664100  0.04685900  0.73354300  1
  Ba  Ba21  1  0.26335900  0.54685900  0.76645700  1
  Ba  Ba22  1  0.76335900  0.95314100  0.23354300  1
  Ba  Ba23  1  0.23664100  0.45314100  0.26645700  1
  Ba  Ba24  1  0.04053300  0.69115600  0.14972700  1
  Ba  Ba25  1  0.95946700  0.19115600  0.35027300  1
  Ba  Ba26  1  0.45946700  0.30884400  0.64972700  1
  Ba  Ba27  1  0.54053300  0.80884400  0.85027300  1
  Ba  Ba28  1  0.95946700  0.30884400  0.85027300  1
  Ba  Ba29  1  0.04053300  0.80884400  0.64972700  1
  Ba  Ba30  1  0.54053300  0.69115600  0.35027300  1
  Ba  Ba31  1  0.45946700  0.19115600  0.14972700  1
  Ga  Ga32  1  0.48437600  0.70630000  0.17145500  1
  Ga  Ga33  1  0.51562400  0.20630000  0.32854500  1
  Ga  Ga34  1  0.01562400  0.29370000  0.67145500  1
  Ga  Ga35  1  0.98437600  0.79370000  0.82854500  1
  Ga  Ga36  1  0.51562400  0.29370000  0.82854500  1
  Ga  Ga37  1  0.48437600  0.79370000  0.67145500  1
  Ga  Ga38  1  0.98437600  0.70630000  0.32854500  1
  Ga  Ga39  1  0.01562400  0.20630000  0.17145500  1
  N  N40  1  0.13882400  0.57445000  0.37233200  1
  N  N41  1  0.86117600  0.07445000  0.12766800  1
  N  N42  1  0.36117600  0.42555000  0.87233200  1
  N  N43  1  0.63882400  0.92555000  0.62766800  1
  N  N44  1  0.86117600  0.42555000  0.62766800  1
  N  N45  1  0.13882400  0.92555000  0.87233200  1
  N  N46  1  0.63882400  0.57445000  0.12766800  1
  N  N47  1  0.36117600  0.07445000  0.37233200  1
  N  N48  1  0.34885000  0.86098300  0.13194900  1
  N  N49  1  0.65115000  0.36098300  0.36805100  1
  N  N50  1  0.15115000  0.13901700  0.63194900  1
  N  N51  1  0.84885000  0.63901700  0.86805100  1
  N  N52  1  0.65115000  0.13901700  0.86805100  1
  N  N53  1  0.34885000  0.63901700  0.63194900  1
  N  N54  1  0.84885000  0.86098300  0.36805100  1
  N  N55  1  0.15115000  0.36098300  0.13194900  1
  N  N56  1  0.49123900  0.69139300  0.24721900  1
  N  N57  1  0.50876100  0.19139300  0.25278100  1
  N  N58  1  0.00876100  0.30860700  0.74721900  1
  N  N59  1  0.99123900  0.80860700  0.75278100  1
  N  N60  1  0.50876100  0.30860700  0.75278100  1
  N  N61  1  0.49123900  0.80860700  0.74721900  1
  N  N62  1  0.99123900  0.69139300  0.25278100  1
  N  N63  1  0.00876100  0.19139300  0.24721900  1
  O  O64  1  0.97432500  0.76833800  0.02533800  1
  O  O65  1  0.02567500  0.26833800  0.47466200  1
  O  O66  1  0.52567500  0.23166200  0.52533800  1
  O  O67  1  0.47432500  0.73166200  0.97466200  1
  O  O68  1  0.02567500  0.23166200  0.97466200  1
  O  O69  1  0.97432500  0.73166200  0.52533800  1
  O  O70  1  0.47432500  0.76833800  0.47466200  1
  O  O71  1  0.52567500  0.26833800  0.02533800  1
