# generated using pymatgen
data_Ba5Dy8Zn4O21
_symmetry_space_group_name_H-M   'P 1'
_cell_length_a   13.90340800
_cell_length_b   13.90340800
_cell_length_c   5.75813200
_cell_angle_alpha   90.00000000
_cell_angle_beta   90.00000000
_cell_angle_gamma   90.00000000
_symmetry_Int_Tables_number   1
_chemical_formula_structural   Ba5Dy8Zn4O21
_chemical_formula_sum   'Ba10 Dy16 Zn8 O42'
_cell_volume   1113.07428984
_cell_formula_units_Z   2
loop_
 _symmetry_equiv_pos_site_id
 _symmetry_equiv_pos_as_xyz
  1  'x, y, z'
loop_
 _atom_site_type_symbol
 _atom_site_label
 _atom_site_symmetry_multiplicity
 _atom_site_fract_x
 _atom_site_fract_y
 _atom_site_fract_z
 _atom_site_occupancy
  Ba  Ba0  1  0.53487400  0.86075800  0.00000000  1
  Ba  Ba1  1  0.36075800  0.96512600  0.50000000  1
  Ba  Ba2  1  0.63924200  0.03487400  0.50000000  1
  Ba  Ba3  1  0.46512600  0.13924200  0.00000000  1
  Ba  Ba4  1  0.00000000  0.00000000  0.00000000  1
  Ba  Ba5  1  0.03487400  0.36075800  0.50000000  1
  Ba  Ba6  1  0.86075800  0.46512600  0.00000000  1
  Ba  Ba7  1  0.13924200  0.53487400  0.00000000  1
  Ba  Ba8  1  0.96512600  0.63924200  0.50000000  1
  Ba  Ba9  1  0.50000000  0.50000000  0.50000000  1
  Dy  Dy10  1  0.41133400  0.64217000  0.00000000  1
  Dy  Dy11  1  0.14217000  0.08866600  0.50000000  1
  Dy  Dy12  1  0.85783000  0.91133400  0.50000000  1
  Dy  Dy13  1  0.58866600  0.35783000  0.00000000  1
  Dy  Dy14  1  0.24730400  0.83214700  0.00000000  1
  Dy  Dy15  1  0.33214700  0.25269600  0.50000000  1
  Dy  Dy16  1  0.66785300  0.74730400  0.50000000  1
  Dy  Dy17  1  0.75269600  0.16785300  0.00000000  1
  Dy  Dy18  1  0.91133400  0.14217000  0.50000000  1
  Dy  Dy19  1  0.64217000  0.58866600  0.00000000  1
  Dy  Dy20  1  0.35783000  0.41133400  0.00000000  1
  Dy  Dy21  1  0.08866600  0.85783000  0.50000000  1
  Dy  Dy22  1  0.74730400  0.33214700  0.50000000  1
  Dy  Dy23  1  0.83214700  0.75269600  0.00000000  1
  Dy  Dy24  1  0.16785300  0.24730400  0.00000000  1
  Dy  Dy25  1  0.25269600  0.66785300  0.50000000  1
  Zn  Zn26  1  0.54061550  0.24918050  0.50000000  1
  Zn  Zn27  1  0.74918050  0.95938450  0.00000000  1
  Zn  Zn28  1  0.25081950  0.04061550  0.00000000  1
  Zn  Zn29  1  0.45938450  0.75081950  0.50000000  1
  Zn  Zn30  1  0.04061550  0.74918050  0.00000000  1
  Zn  Zn31  1  0.24918050  0.45938450  0.50000000  1
  Zn  Zn32  1  0.75081950  0.54061550  0.50000000  1
  Zn  Zn33  1  0.95938450  0.25081950  0.00000000  1
  O  O34  1  0.64828800  0.24258600  0.25212100  1
  O  O35  1  0.74258600  0.85171200  0.75212100  1
  O  O36  1  0.25741400  0.14828800  0.75212100  1
  O  O37  1  0.35171200  0.75741400  0.25212100  1
  O  O38  1  0.35171200  0.75741400  0.74787900  1
  O  O39  1  0.25741400  0.14828800  0.24787900  1
  O  O40  1  0.74258600  0.85171200  0.24787900  1
  O  O41  1  0.64828800  0.24258600  0.74787900  1
  O  O42  1  0.82216250  0.04780550  0.25001550  1
  O  O43  1  0.54780550  0.67783750  0.75001550  1
  O  O44  1  0.45219450  0.32216250  0.75001550  1
  O  O45  1  0.17783750  0.95219450  0.25001550  1
  O  O46  1  0.17783750  0.95219450  0.74998450  1
  O  O47  1  0.45219450  0.32216250  0.24998450  1
  O  O48  1  0.54780550  0.67783750  0.24998450  1
  O  O49  1  0.82216250  0.04780550  0.74998450  1
  O  O50  1  0.62802300  0.03727100  0.00000000  1
  O  O51  1  0.00000000  0.00000000  0.50000000  1
  O  O52  1  0.37197700  0.96272900  0.00000000  1
  O  O53  1  0.46272900  0.12802300  0.50000000  1
  O  O54  1  0.53727100  0.87197700  0.50000000  1
  O  O55  1  0.14828800  0.74258600  0.75212100  1
  O  O56  1  0.24258600  0.35171200  0.25212100  1
  O  O57  1  0.75741400  0.64828800  0.25212100  1
  O  O58  1  0.85171200  0.25741400  0.75212100  1
  O  O59  1  0.85171200  0.25741400  0.24787900  1
  O  O60  1  0.75741400  0.64828800  0.74787900  1
  O  O61  1  0.24258600  0.35171200  0.74787900  1
  O  O62  1  0.14828800  0.74258600  0.24787900  1
  O  O63  1  0.32216250  0.54780550  0.75001550  1
  O  O64  1  0.04780550  0.17783750  0.25001550  1
  O  O65  1  0.95219450  0.82216250  0.25001550  1
  O  O66  1  0.67783750  0.45219450  0.75001550  1
  O  O67  1  0.67783750  0.45219450  0.24998450  1
  O  O68  1  0.95219450  0.82216250  0.74998450  1
  O  O69  1  0.04780550  0.17783750  0.74998450  1
  O  O70  1  0.32216250  0.54780550  0.24998450  1
  O  O71  1  0.12802300  0.53727100  0.50000000  1
  O  O72  1  0.50000000  0.50000000  0.00000000  1
  O  O73  1  0.87197700  0.46272900  0.50000000  1
  O  O74  1  0.96272900  0.62802300  0.00000000  1
  O  O75  1  0.03727100  0.37197700  0.00000000  1
