# generated using pymatgen
data_Ca2ZnGe2O7
_symmetry_space_group_name_H-M   'P 1'
_cell_length_a   8.06421800
_cell_length_b   8.06421800
_cell_length_c   5.22891200
_cell_angle_alpha   90.00000000
_cell_angle_beta   90.00000000
_cell_angle_gamma   90.00000000
_symmetry_Int_Tables_number   1
_chemical_formula_structural   Ca2ZnGe2O7
_chemical_formula_sum   'Ca4 Zn2 Ge4 O14'
_cell_volume   340.04457611
_cell_formula_units_Z   2
loop_
 _symmetry_equiv_pos_site_id
 _symmetry_equiv_pos_as_xyz
  1  'x, y, z'
loop_
 _atom_site_type_symbol
 _atom_site_label
 _atom_site_symmetry_multiplicity
 _atom_site_fract_x
 _atom_site_fract_y
 _atom_site_fract_z
 _atom_site_occupancy
  Ca  Ca0  1  0.83289300  0.33289300  0.50864900  1
  Ca  Ca1  1  0.33289300  0.16710700  0.49135100  1
  Ca  Ca2  1  0.66710700  0.83289300  0.49135100  1
  Ca  Ca3  1  0.16710700  0.66710700  0.50864900  1
  Zn  Zn4  1  0.50000000  0.50000000  0.00000000  1
  Zn  Zn5  1  0.00000000  0.00000000  0.00000000  1
  Ge  Ge6  1  0.64488900  0.14488900  0.94325400  1
  Ge  Ge7  1  0.14488900  0.35511100  0.05674600  1
  Ge  Ge8  1  0.85511100  0.64488900  0.05674600  1
  Ge  Ge9  1  0.35511100  0.85511100  0.94325400  1
  O  O10  1  0.41283700  0.67350000  0.77436300  1
  O  O11  1  0.58716300  0.32650000  0.77436300  1
  O  O12  1  0.32650000  0.41283700  0.22563700  1
  O  O13  1  0.67350000  0.58716300  0.22563700  1
  O  O14  1  0.17350000  0.91283700  0.77436300  1
  O  O15  1  0.91283700  0.82650000  0.22563700  1
  O  O16  1  0.08716300  0.17350000  0.22563700  1
  O  O17  1  0.82650000  0.08716300  0.77436300  1
  O  O18  1  0.36003500  0.86003500  0.27533200  1
  O  O19  1  0.86003500  0.63996500  0.72466800  1
  O  O20  1  0.00000000  0.50000000  0.20422200  1
  O  O21  1  0.50000000  0.00000000  0.79577800  1
  O  O22  1  0.63996500  0.13996500  0.27533200  1
  O  O23  1  0.13996500  0.36003500  0.72466800  1
