# generated using pymatgen
data_Ba5Sb4
_symmetry_space_group_name_H-M   'P 1'
_cell_length_a   9.15386200
_cell_length_b   18.02742400
_cell_length_c   9.19742200
_cell_angle_alpha   90.00000000
_cell_angle_beta   90.00000000
_cell_angle_gamma   90.00000000
_symmetry_Int_Tables_number   1
_chemical_formula_structural   Ba5Sb4
_chemical_formula_sum   'Ba20 Sb16'
_cell_volume   1517.76365092
_cell_formula_units_Z   4
loop_
 _symmetry_equiv_pos_site_id
 _symmetry_equiv_pos_as_xyz
  1  'x, y, z'
loop_
 _atom_site_type_symbol
 _atom_site_label
 _atom_site_symmetry_multiplicity
 _atom_site_fract_x
 _atom_site_fract_y
 _atom_site_fract_z
 _atom_site_occupancy
  Ba  Ba0  1  0.50000000  0.00000000  0.50000000  1
  Ba  Ba1  1  0.00000000  0.00000000  0.00000000  1
  Ba  Ba2  1  0.16849250  0.85394250  0.33579400  1
  Ba  Ba3  1  0.16849250  0.64605750  0.16420600  1
  Ba  Ba4  1  0.83150750  0.64605750  0.83579400  1
  Ba  Ba5  1  0.83150750  0.85394250  0.66420600  1
  Ba  Ba6  1  0.33150750  0.64605750  0.66420600  1
  Ba  Ba7  1  0.33150750  0.85394250  0.83579400  1
  Ba  Ba8  1  0.66849250  0.85394250  0.16420600  1
  Ba  Ba9  1  0.66849250  0.64605750  0.33579400  1
  Ba  Ba10  1  0.00000000  0.50000000  0.50000000  1
  Ba  Ba11  1  0.50000000  0.50000000  0.00000000  1
  Ba  Ba12  1  0.66849250  0.35394250  0.33579400  1
  Ba  Ba13  1  0.66849250  0.14605750  0.16420600  1
  Ba  Ba14  1  0.33150750  0.14605750  0.83579400  1
  Ba  Ba15  1  0.33150750  0.35394250  0.66420600  1
  Ba  Ba16  1  0.83150750  0.14605750  0.66420600  1
  Ba  Ba17  1  0.83150750  0.35394250  0.83579400  1
  Ba  Ba18  1  0.16849250  0.35394250  0.16420600  1
  Ba  Ba19  1  0.16849250  0.14605750  0.33579400  1
  Sb  Sb20  1  0.88682100  0.00000000  0.38709500  1
  Sb  Sb21  1  0.38682100  0.00000000  0.11290500  1
  Sb  Sb22  1  0.61317900  0.00000000  0.88709500  1
  Sb  Sb23  1  0.11317900  0.00000000  0.61290500  1
  Sb  Sb24  1  0.00000000  0.80186200  0.00000000  1
  Sb  Sb25  1  0.00000000  0.69813800  0.50000000  1
  Sb  Sb26  1  0.50000000  0.69813800  0.00000000  1
  Sb  Sb27  1  0.50000000  0.80186200  0.50000000  1
  Sb  Sb28  1  0.38682100  0.50000000  0.38709500  1
  Sb  Sb29  1  0.88682100  0.50000000  0.11290500  1
  Sb  Sb30  1  0.11317900  0.50000000  0.88709500  1
  Sb  Sb31  1  0.61317900  0.50000000  0.61290500  1
  Sb  Sb32  1  0.50000000  0.30186200  0.00000000  1
  Sb  Sb33  1  0.50000000  0.19813800  0.50000000  1
  Sb  Sb34  1  0.00000000  0.19813800  0.00000000  1
  Sb  Sb35  1  0.00000000  0.30186200  0.50000000  1
