# generated using pymatgen
data_SnTe3O8
_symmetry_space_group_name_H-M   'P 1'
_cell_length_a   11.43950000
_cell_length_b   11.43950000
_cell_length_c   11.43950000
_cell_angle_alpha   90.00000000
_cell_angle_beta   90.00000000
_cell_angle_gamma   90.00000000
_symmetry_Int_Tables_number   1
_chemical_formula_structural   SnTe3O8
_chemical_formula_sum   'Sn8 Te24 O64'
_cell_volume   1496.99768218
_cell_formula_units_Z   8
loop_
 _symmetry_equiv_pos_site_id
 _symmetry_equiv_pos_as_xyz
  1  'x, y, z'
loop_
 _atom_site_type_symbol
 _atom_site_label
 _atom_site_symmetry_multiplicity
 _atom_site_fract_x
 _atom_site_fract_y
 _atom_site_fract_z
 _atom_site_occupancy
  Sn  Sn0  1  0.00000000  0.00000000  0.00000000  1
  Sn  Sn1  1  0.00000000  0.00000000  0.50000000  1
  Sn  Sn2  1  0.50000000  0.00000000  0.00000000  1
  Sn  Sn3  1  0.00000000  0.50000000  0.00000000  1
  Sn  Sn4  1  0.50000000  0.50000000  0.50000000  1
  Sn  Sn5  1  0.50000000  0.50000000  0.00000000  1
  Sn  Sn6  1  0.00000000  0.50000000  0.50000000  1
  Sn  Sn7  1  0.50000000  0.00000000  0.50000000  1
  Te  Te8  1  0.25000000  0.69851100  0.00000000  1
  Te  Te9  1  0.50000000  0.25000000  0.30148900  1
  Te  Te10  1  0.50000000  0.25000000  0.80148900  1
  Te  Te11  1  0.19851100  0.00000000  0.25000000  1
  Te  Te12  1  0.25000000  0.19851100  0.00000000  1
  Te  Te13  1  0.80148900  0.50000000  0.25000000  1
  Te  Te14  1  0.25000000  0.80148900  0.50000000  1
  Te  Te15  1  0.00000000  0.25000000  0.19851100  1
  Te  Te16  1  0.69851100  0.00000000  0.25000000  1
  Te  Te17  1  0.25000000  0.30148900  0.50000000  1
  Te  Te18  1  0.30148900  0.50000000  0.25000000  1
  Te  Te19  1  0.00000000  0.25000000  0.69851100  1
  Te  Te20  1  0.75000000  0.19851100  0.50000000  1
  Te  Te21  1  0.00000000  0.75000000  0.80148900  1
  Te  Te22  1  0.00000000  0.75000000  0.30148900  1
  Te  Te23  1  0.69851100  0.50000000  0.75000000  1
  Te  Te24  1  0.75000000  0.69851100  0.50000000  1
  Te  Te25  1  0.30148900  0.00000000  0.75000000  1
  Te  Te26  1  0.75000000  0.30148900  0.00000000  1
  Te  Te27  1  0.50000000  0.75000000  0.69851100  1
  Te  Te28  1  0.19851100  0.50000000  0.75000000  1
  Te  Te29  1  0.75000000  0.80148900  0.00000000  1
  Te  Te30  1  0.80148900  0.00000000  0.75000000  1
  Te  Te31  1  0.50000000  0.75000000  0.19851100  1
  O  O32  1  0.16489250  0.66489250  0.83510750  1
  O  O33  1  0.66489250  0.83510750  0.16489250  1
  O  O34  1  0.83510750  0.16489250  0.66489250  1
  O  O35  1  0.33510750  0.33510750  0.33510750  1
  O  O36  1  0.83510750  0.33510750  0.16489250  1
  O  O37  1  0.33510750  0.16489250  0.83510750  1
  O  O38  1  0.16489250  0.83510750  0.33510750  1
  O  O39  1  0.16489250  0.16489250  0.16489250  1
  O  O40  1  0.14077350  0.90707650  0.56927650  1
  O  O41  1  0.35922650  0.90707650  0.43072350  1
  O  O42  1  0.14077350  0.09292350  0.93072350  1
  O  O43  1  0.09292350  0.06927650  0.35922650  1
  O  O44  1  0.06927650  0.35922650  0.09292350  1
  O  O45  1  0.56927650  0.14077350  0.90707650  1
  O  O46  1  0.90707650  0.43072350  0.35922650  1
  O  O47  1  0.93072350  0.14077350  0.09292350  1
  O  O48  1  0.14077350  0.40707650  0.43072350  1
  O  O49  1  0.40707650  0.56927650  0.35922650  1
  O  O50  1  0.06927650  0.14077350  0.59292350  1
  O  O51  1  0.59292350  0.93072350  0.35922650  1
  O  O52  1  0.56927650  0.35922650  0.40707650  1
  O  O53  1  0.59292350  0.06927650  0.14077350  1
  O  O54  1  0.93072350  0.35922650  0.59292350  1
  O  O55  1  0.43072350  0.14077350  0.40707650  1
  O  O56  1  0.40707650  0.43072350  0.14077350  1
  O  O57  1  0.35922650  0.40707650  0.56927650  1
  O  O58  1  0.14077350  0.59292350  0.06927650  1
  O  O59  1  0.35922650  0.59292350  0.93072350  1
  O  O60  1  0.35922650  0.09292350  0.06927650  1
  O  O61  1  0.09292350  0.93072350  0.14077350  1
  O  O62  1  0.43072350  0.35922650  0.90707650  1
  O  O63  1  0.90707650  0.56927650  0.14077350  1
  O  O64  1  0.66489250  0.16489250  0.33510750  1
  O  O65  1  0.16489250  0.33510750  0.66489250  1
  O  O66  1  0.33510750  0.66489250  0.16489250  1
  O  O67  1  0.83510750  0.83510750  0.83510750  1
  O  O68  1  0.33510750  0.83510750  0.66489250  1
  O  O69  1  0.83510750  0.66489250  0.33510750  1
  O  O70  1  0.66489250  0.33510750  0.83510750  1
  O  O71  1  0.66489250  0.66489250  0.66489250  1
  O  O72  1  0.64077350  0.40707650  0.06927650  1
  O  O73  1  0.85922650  0.40707650  0.93072350  1
  O  O74  1  0.64077350  0.59292350  0.43072350  1
  O  O75  1  0.59292350  0.56927650  0.85922650  1
  O  O76  1  0.56927650  0.85922650  0.59292350  1
  O  O77  1  0.06927650  0.64077350  0.40707650  1
  O  O78  1  0.40707650  0.93072350  0.85922650  1
  O  O79  1  0.43072350  0.64077350  0.59292350  1
  O  O80  1  0.64077350  0.90707650  0.93072350  1
  O  O81  1  0.90707650  0.06927650  0.85922650  1
  O  O82  1  0.56927650  0.64077350  0.09292350  1
  O  O83  1  0.09292350  0.43072350  0.85922650  1
  O  O84  1  0.06927650  0.85922650  0.90707650  1
  O  O85  1  0.09292350  0.56927650  0.64077350  1
  O  O86  1  0.43072350  0.85922650  0.09292350  1
  O  O87  1  0.93072350  0.64077350  0.90707650  1
  O  O88  1  0.90707650  0.93072350  0.64077350  1
  O  O89  1  0.85922650  0.90707650  0.06927650  1
  O  O90  1  0.64077350  0.09292350  0.56927650  1
  O  O91  1  0.85922650  0.09292350  0.43072350  1
  O  O92  1  0.85922650  0.59292350  0.56927650  1
  O  O93  1  0.59292350  0.43072350  0.64077350  1
  O  O94  1  0.93072350  0.85922650  0.40707650  1
  O  O95  1  0.40707650  0.06927650  0.64077350  1
