# generated using pymatgen
data_NaTiP2O7
_symmetry_space_group_name_H-M   'P 1'
_cell_length_a   7.47974900
_cell_length_b   8.03656900
_cell_length_c   9.84832174
_cell_angle_alpha   90.00000000
_cell_angle_beta   111.67182555
_cell_angle_gamma   90.00000000
_symmetry_Int_Tables_number   1
_chemical_formula_structural   NaTiP2O7
_chemical_formula_sum   'Na4 Ti4 P8 O28'
_cell_volume   550.15180209
_cell_formula_units_Z   4
loop_
 _symmetry_equiv_pos_site_id
 _symmetry_equiv_pos_as_xyz
  1  'x, y, z'
loop_
 _atom_site_type_symbol
 _atom_site_label
 _atom_site_symmetry_multiplicity
 _atom_site_fract_x
 _atom_site_fract_y
 _atom_site_fract_z
 _atom_site_occupancy
  Na  Na0  1  0.71558600  0.02244000  0.20996800  1
  Na  Na1  1  0.28441400  0.52244000  0.29003200  1
  Na  Na2  1  0.28441400  0.97756000  0.79003200  1
  Na  Na3  1  0.71558600  0.47756000  0.70996800  1
  Ti  Ti4  1  0.73903400  0.49058700  0.25049600  1
  Ti  Ti5  1  0.26096600  0.99058700  0.24950400  1
  Ti  Ti6  1  0.26096600  0.50941300  0.74950400  1
  Ti  Ti7  1  0.73903400  0.00941300  0.75049600  1
  P  P8  1  0.32787300  0.28691100  0.04650400  1
  P  P9  1  0.67212700  0.78691100  0.45349600  1
  P  P10  1  0.67212700  0.71308900  0.95349600  1
  P  P11  1  0.32787300  0.21308900  0.54650400  1
  P  P12  1  0.92939500  0.24384200  0.04565200  1
  P  P13  1  0.07060500  0.74384200  0.45434800  1
  P  P14  1  0.07060500  0.75615800  0.95434800  1
  P  P15  1  0.92939500  0.25615800  0.54565200  1
  O  O16  1  0.12648000  0.34261900  0.06223400  1
  O  O17  1  0.87352000  0.84261900  0.43776600  1
  O  O18  1  0.87352000  0.65738100  0.93776600  1
  O  O19  1  0.12648000  0.15738100  0.56223400  1
  O  O20  1  0.63053400  0.60688600  0.39745700  1
  O  O21  1  0.36946600  0.10688600  0.10254300  1
  O  O22  1  0.36946600  0.39311400  0.60254300  1
  O  O23  1  0.63053400  0.89311400  0.89745700  1
  O  O24  1  0.81807200  0.28537200  0.38243500  1
  O  O25  1  0.18192800  0.78537200  0.11756500  1
  O  O26  1  0.18192800  0.71462800  0.61756500  1
  O  O27  1  0.81807200  0.21462800  0.88243500  1
  O  O28  1  0.01155000  0.58249700  0.36456900  1
  O  O29  1  0.98845000  0.08249700  0.13543100  1
  O  O30  1  0.98845000  0.41750300  0.63543100  1
  O  O31  1  0.01155000  0.91750300  0.86456900  1
  O  O32  1  0.46605400  0.08673900  0.64883700  1
  O  O33  1  0.53394600  0.58673900  0.85116300  1
  O  O34  1  0.53394600  0.91326100  0.35116300  1
  O  O35  1  0.46605400  0.41326100  0.14883700  1
  O  O36  1  0.69269500  0.79974500  0.61333100  1
  O  O37  1  0.30730500  0.29974500  0.88666900  1
  O  O38  1  0.30730500  0.20025500  0.38666900  1
  O  O39  1  0.69269500  0.70025500  0.11333100  1
  O  O40  1  0.82416700  0.13713500  0.60881100  1
  O  O41  1  0.17583300  0.63713500  0.89118900  1
  O  O42  1  0.17583300  0.86286500  0.39118900  1
  O  O43  1  0.82416700  0.36286500  0.10881100  1
