# generated using pymatgen
data_NaFePO4
_symmetry_space_group_name_H-M   'P 1'
_cell_length_a   5.10760005
_cell_length_b   6.93116707
_cell_length_c   9.11321644
_cell_angle_alpha   90.00000000
_cell_angle_beta   90.00000000
_cell_angle_gamma   90.00000000
_symmetry_Int_Tables_number   1
_chemical_formula_structural   NaFePO4
_chemical_formula_sum   'Na4 Fe4 P4 O16'
_cell_volume   322.62270958
_cell_formula_units_Z   4
loop_
 _symmetry_equiv_pos_site_id
 _symmetry_equiv_pos_as_xyz
  1  'x, y, z'
loop_
 _atom_site_type_symbol
 _atom_site_label
 _atom_site_symmetry_multiplicity
 _atom_site_fract_x
 _atom_site_fract_y
 _atom_site_fract_z
 _atom_site_occupancy
  Na  Na0  1  0.47149000  0.25000000  0.65176200  1
  Na  Na1  1  0.02851000  0.25000000  0.15176200  1
  Na  Na2  1  0.52851000  0.75000000  0.34823800  1
  Na  Na3  1  0.97149000  0.75000000  0.84823800  1
  Fe  Fe4  1  0.50000000  0.50000000  0.00000000  1
  Fe  Fe5  1  0.00000000  0.50000000  0.50000000  1
  Fe  Fe6  1  0.00000000  0.00000000  0.50000000  1
  Fe  Fe7  1  0.50000000  0.00000000  0.00000000  1
  P  P8  1  0.53431600  0.25000000  0.32454700  1
  P  P9  1  0.96568400  0.25000000  0.82454700  1
  P  P10  1  0.46568400  0.75000000  0.67545300  1
  P  P11  1  0.03431600  0.75000000  0.17545300  1
  O  O12  1  0.24803100  0.25000000  0.38381400  1
  O  O13  1  0.25196900  0.25000000  0.88381400  1
  O  O14  1  0.75196900  0.75000000  0.61618600  1
  O  O15  1  0.74803100  0.75000000  0.11618600  1
  O  O16  1  0.54345400  0.25000000  0.15214200  1
  O  O17  1  0.95654600  0.25000000  0.65214200  1
  O  O18  1  0.45654600  0.75000000  0.84785800  1
  O  O19  1  0.04345400  0.75000000  0.34785800  1
  O  O20  1  0.68024800  0.06798650  0.37890000  1
  O  O21  1  0.81975200  0.43201350  0.87890000  1
  O  O22  1  0.31975200  0.56798650  0.62110000  1
  O  O23  1  0.18024800  0.93201350  0.12110000  1
  O  O24  1  0.31975200  0.93201350  0.62110000  1
  O  O25  1  0.18024800  0.56798650  0.12110000  1
  O  O26  1  0.68024800  0.43201350  0.37890000  1
  O  O27  1  0.81975200  0.06798650  0.87890000  1
