# generated using pymatgen
data_Nd4Si2S3O7
_symmetry_space_group_name_H-M   'P 1'
_cell_length_a   12.03821200
_cell_length_b   12.03821200
_cell_length_c   14.22033000
_cell_angle_alpha   90.00000000
_cell_angle_beta   90.00000000
_cell_angle_gamma   90.00000000
_symmetry_Int_Tables_number   1
_chemical_formula_structural   Nd4Si2S3O7
_chemical_formula_sum   'Nd32 Si16 S24 O56'
_cell_volume   2060.78957791
_cell_formula_units_Z   8
loop_
 _symmetry_equiv_pos_site_id
 _symmetry_equiv_pos_as_xyz
  1  'x, y, z'
loop_
 _atom_site_type_symbol
 _atom_site_label
 _atom_site_symmetry_multiplicity
 _atom_site_fract_x
 _atom_site_fract_y
 _atom_site_fract_z
 _atom_site_occupancy
  Nd  Nd0  1  0.67147700  0.17147700  0.25000000  1
  Nd  Nd1  1  0.82852300  0.17147700  0.50000000  1
  Nd  Nd2  1  0.17147700  0.82852300  0.50000000  1
  Nd  Nd3  1  0.32852300  0.82852300  0.25000000  1
  Nd  Nd4  1  0.32852300  0.32852300  0.00000000  1
  Nd  Nd5  1  0.67147700  0.82852300  0.25000000  1
  Nd  Nd6  1  0.32852300  0.17147700  0.25000000  1
  Nd  Nd7  1  0.17147700  0.17147700  0.50000000  1
  Nd  Nd8  1  0.76324850  0.00000000  0.03189050  1
  Nd  Nd9  1  0.23675150  0.00000000  0.03189050  1
  Nd  Nd10  1  0.50000000  0.73675150  0.46810950  1
  Nd  Nd11  1  0.50000000  0.23675150  0.78189050  1
  Nd  Nd12  1  0.00000000  0.26324850  0.28189050  1
  Nd  Nd13  1  0.26324850  0.00000000  0.71810950  1
  Nd  Nd14  1  0.23675150  0.50000000  0.21810950  1
  Nd  Nd15  1  0.50000000  0.26324850  0.46810950  1
  Nd  Nd16  1  0.17147700  0.67147700  0.75000000  1
  Nd  Nd17  1  0.32852300  0.67147700  0.00000000  1
  Nd  Nd18  1  0.67147700  0.32852300  0.00000000  1
  Nd  Nd19  1  0.82852300  0.32852300  0.75000000  1
  Nd  Nd20  1  0.82852300  0.82852300  0.50000000  1
  Nd  Nd21  1  0.17147700  0.32852300  0.75000000  1
  Nd  Nd22  1  0.82852300  0.67147700  0.75000000  1
  Nd  Nd23  1  0.67147700  0.67147700  0.00000000  1
  Nd  Nd24  1  0.26324850  0.50000000  0.53189050  1
  Nd  Nd25  1  0.73675150  0.50000000  0.53189050  1
  Nd  Nd26  1  0.00000000  0.23675150  0.96810950  1
  Nd  Nd27  1  0.00000000  0.73675150  0.28189050  1
  Nd  Nd28  1  0.50000000  0.76324850  0.78189050  1
  Nd  Nd29  1  0.76324850  0.50000000  0.21810950  1
  Nd  Nd30  1  0.73675150  0.00000000  0.71810950  1
  Nd  Nd31  1  0.00000000  0.76324850  0.96810950  1
  Si  Si32  1  0.12424200  0.00000000  0.27750500  1
  Si  Si33  1  0.37575800  0.50000000  0.77750500  1
  Si  Si34  1  0.50000000  0.37575800  0.22249500  1
  Si  Si35  1  0.00000000  0.37575800  0.52750500  1
  Si  Si36  1  0.50000000  0.12424200  0.02750500  1
  Si  Si37  1  0.12424200  0.50000000  0.97249500  1
  Si  Si38  1  0.37575800  0.00000000  0.47249500  1
  Si  Si39  1  0.00000000  0.12424200  0.72249500  1
  Si  Si40  1  0.62424200  0.50000000  0.77750500  1
  Si  Si41  1  0.87575800  0.00000000  0.27750500  1
  Si  Si42  1  0.00000000  0.87575800  0.72249500  1
  Si  Si43  1  0.50000000  0.87575800  0.02750500  1
  Si  Si44  1  0.00000000  0.62424200  0.52750500  1
  Si  Si45  1  0.62424200  0.00000000  0.47249500  1
  Si  Si46  1  0.87575800  0.50000000  0.97249500  1
  Si  Si47  1  0.50000000  0.62424200  0.22249500  1
  S  S48  1  0.00000000  0.00000000  0.50000000  1
  S  S49  1  0.50000000  0.00000000  0.25000000  1
  S  S50  1  0.00000000  0.50000000  0.25000000  1
  S  S51  1  0.00000000  0.00000000  0.00000000  1
  S  S52  1  0.35143400  0.25000000  0.62500000  1
  S  S53  1  0.25000000  0.35143400  0.37500000  1
  S  S54  1  0.25000000  0.14856600  0.87500000  1
  S  S55  1  0.14856600  0.25000000  0.12500000  1
  S  S56  1  0.14856600  0.75000000  0.12500000  1
  S  S57  1  0.75000000  0.14856600  0.87500000  1
  S  S58  1  0.75000000  0.35143400  0.37500000  1
  S  S59  1  0.35143400  0.75000000  0.62500000  1
  S  S60  1  0.50000000  0.50000000  0.00000000  1
  S  S61  1  0.00000000  0.50000000  0.75000000  1
  S  S62  1  0.50000000  0.00000000  0.75000000  1
  S  S63  1  0.50000000  0.50000000  0.50000000  1
  S  S64  1  0.85143400  0.75000000  0.12500000  1
  S  S65  1  0.75000000  0.85143400  0.87500000  1
  S  S66  1  0.75000000  0.64856600  0.37500000  1
  S  S67  1  0.64856600  0.75000000  0.62500000  1
  S  S68  1  0.64856600  0.25000000  0.62500000  1
  S  S69  1  0.25000000  0.64856600  0.37500000  1
  S  S70  1  0.25000000  0.85143400  0.87500000  1
  S  S71  1  0.85143400  0.25000000  0.12500000  1
  O  O72  1  0.00000000  0.00000000  0.77145100  1
  O  O73  1  0.00000000  0.50000000  0.02145100  1
  O  O74  1  0.00000000  0.50000000  0.47854900  1
  O  O75  1  0.00000000  0.00000000  0.22854900  1
  O  O76  1  0.77263300  0.00000000  0.20034700  1
  O  O77  1  0.22736700  0.00000000  0.20034700  1
  O  O78  1  0.50000000  0.72736700  0.29965300  1
  O  O79  1  0.50000000  0.22736700  0.95034700  1
  O  O80  1  0.00000000  0.27263300  0.45034700  1
  O  O81  1  0.27263300  0.00000000  0.54965300  1
  O  O82  1  0.22736700  0.50000000  0.04965300  1
  O  O83  1  0.50000000  0.27263300  0.29965300  1
  O  O84  1  0.14070150  0.38061750  0.91846150  1
  O  O85  1  0.35929850  0.11938250  0.41846150  1
  O  O86  1  0.11938250  0.35929850  0.58153850  1
  O  O87  1  0.38061750  0.35929850  0.16846150  1
  O  O88  1  0.11938250  0.14070150  0.66846150  1
  O  O89  1  0.14070150  0.11938250  0.33153850  1
  O  O90  1  0.35929850  0.38061750  0.83153850  1
  O  O91  1  0.38061750  0.14070150  0.08153850  1
  O  O92  1  0.35929850  0.61938250  0.83153850  1
  O  O93  1  0.14070150  0.88061750  0.33153850  1
  O  O94  1  0.88061750  0.14070150  0.66846150  1
  O  O95  1  0.61938250  0.14070150  0.08153850  1
  O  O96  1  0.88061750  0.35929850  0.58153850  1
  O  O97  1  0.35929850  0.88061750  0.41846150  1
  O  O98  1  0.14070150  0.61938250  0.91846150  1
  O  O99  1  0.61938250  0.35929850  0.16846150  1
  O  O100  1  0.50000000  0.50000000  0.27145100  1
  O  O101  1  0.50000000  0.00000000  0.52145100  1
  O  O102  1  0.50000000  0.00000000  0.97854900  1
  O  O103  1  0.50000000  0.50000000  0.72854900  1
  O  O104  1  0.27263300  0.50000000  0.70034700  1
  O  O105  1  0.72736700  0.50000000  0.70034700  1
  O  O106  1  0.00000000  0.22736700  0.79965300  1
  O  O107  1  0.00000000  0.72736700  0.45034700  1
  O  O108  1  0.50000000  0.77263300  0.95034700  1
  O  O109  1  0.77263300  0.50000000  0.04965300  1
  O  O110  1  0.72736700  0.00000000  0.54965300  1
  O  O111  1  0.00000000  0.77263300  0.79965300  1
  O  O112  1  0.64070150  0.88061750  0.41846150  1
  O  O113  1  0.85929850  0.61938250  0.91846150  1
  O  O114  1  0.61938250  0.85929850  0.08153850  1
  O  O115  1  0.88061750  0.85929850  0.66846150  1
  O  O116  1  0.61938250  0.64070150  0.16846150  1
  O  O117  1  0.64070150  0.61938250  0.83153850  1
  O  O118  1  0.85929850  0.88061750  0.33153850  1
  O  O119  1  0.88061750  0.64070150  0.58153850  1
  O  O120  1  0.85929850  0.11938250  0.33153850  1
  O  O121  1  0.64070150  0.38061750  0.83153850  1
  O  O122  1  0.38061750  0.64070150  0.16846150  1
  O  O123  1  0.11938250  0.64070150  0.58153850  1
  O  O124  1  0.38061750  0.85929850  0.08153850  1
  O  O125  1  0.85929850  0.38061750  0.91846150  1
  O  O126  1  0.64070150  0.11938250  0.41846150  1
  O  O127  1  0.11938250  0.85929850  0.66846150  1
