# generated using pymatgen
data_NdCrO4
_symmetry_space_group_name_H-M   'P 1'
_cell_length_a   7.43662200
_cell_length_b   7.43662200
_cell_length_c   6.44607600
_cell_angle_alpha   90.00000000
_cell_angle_beta   90.00000000
_cell_angle_gamma   90.00000000
_symmetry_Int_Tables_number   1
_chemical_formula_structural   NdCrO4
_chemical_formula_sum   'Nd4 Cr4 O16'
_cell_volume   356.48957634
_cell_formula_units_Z   4
loop_
 _symmetry_equiv_pos_site_id
 _symmetry_equiv_pos_as_xyz
  1  'x, y, z'
loop_
 _atom_site_type_symbol
 _atom_site_label
 _atom_site_symmetry_multiplicity
 _atom_site_fract_x
 _atom_site_fract_y
 _atom_site_fract_z
 _atom_site_occupancy
  Nd  Nd0  1  0.50000000  0.00000000  0.25000000  1
  Nd  Nd1  1  0.50000000  0.50000000  0.50000000  1
  Nd  Nd2  1  0.00000000  0.50000000  0.75000000  1
  Nd  Nd3  1  0.00000000  0.00000000  0.00000000  1
  Cr  Cr4  1  0.00000000  0.00000000  0.50000000  1
  Cr  Cr5  1  0.50000000  0.00000000  0.75000000  1
  Cr  Cr6  1  0.50000000  0.50000000  0.00000000  1
  Cr  Cr7  1  0.00000000  0.50000000  0.25000000  1
  O  O8  1  0.50000000  0.18027000  0.58125000  1
  O  O9  1  0.81973000  0.00000000  0.33125000  1
  O  O10  1  0.18027000  0.00000000  0.33125000  1
  O  O11  1  0.00000000  0.31973000  0.08125000  1
  O  O12  1  0.68027000  0.00000000  0.91875000  1
  O  O13  1  0.00000000  0.81973000  0.66875000  1
  O  O14  1  0.00000000  0.18027000  0.66875000  1
  O  O15  1  0.81973000  0.50000000  0.41875000  1
  O  O16  1  0.00000000  0.68027000  0.08125000  1
  O  O17  1  0.31973000  0.50000000  0.83125000  1
  O  O18  1  0.68027000  0.50000000  0.83125000  1
  O  O19  1  0.50000000  0.81973000  0.58125000  1
  O  O20  1  0.18027000  0.50000000  0.41875000  1
  O  O21  1  0.50000000  0.31973000  0.16875000  1
  O  O22  1  0.50000000  0.68027000  0.16875000  1
  O  O23  1  0.31973000  0.00000000  0.91875000  1
