# generated using pymatgen
data_CrHgO4
_symmetry_space_group_name_H-M   'P 1'
_cell_length_a   5.79364200
_cell_length_b   9.14660400
_cell_length_c   7.24922500
_cell_angle_alpha   90.00000000
_cell_angle_beta   90.00000000
_cell_angle_gamma   90.00000000
_symmetry_Int_Tables_number   1
_chemical_formula_structural   CrHgO4
_chemical_formula_sum   'Cr4 Hg4 O16'
_cell_volume   384.15201200
_cell_formula_units_Z   4
loop_
 _symmetry_equiv_pos_site_id
 _symmetry_equiv_pos_as_xyz
  1  'x, y, z'
loop_
 _atom_site_type_symbol
 _atom_site_label
 _atom_site_symmetry_multiplicity
 _atom_site_fract_x
 _atom_site_fract_y
 _atom_site_fract_z
 _atom_site_occupancy
  Cr  Cr0  1  0.50000000  0.85709200  0.75000000  1
  Cr  Cr1  1  0.50000000  0.14290800  0.25000000  1
  Cr  Cr2  1  0.00000000  0.35709200  0.75000000  1
  Cr  Cr3  1  0.00000000  0.64290800  0.25000000  1
  Hg  Hg4  1  0.00000000  0.00000000  0.00000000  1
  Hg  Hg5  1  0.00000000  0.00000000  0.50000000  1
  Hg  Hg6  1  0.50000000  0.50000000  0.00000000  1
  Hg  Hg7  1  0.50000000  0.50000000  0.50000000  1
  O  O8  1  0.74225050  0.03575550  0.25000000  1
  O  O9  1  0.25774950  0.96424450  0.75000000  1
  O  O10  1  0.74225050  0.96424450  0.75000000  1
  O  O11  1  0.25774950  0.03575550  0.25000000  1
  O  O12  1  0.50000000  0.24551000  0.43539100  1
  O  O13  1  0.50000000  0.75449000  0.93539100  1
  O  O14  1  0.50000000  0.75449000  0.56460900  1
  O  O15  1  0.50000000  0.24551000  0.06460900  1
  O  O16  1  0.24225050  0.53575550  0.25000000  1
  O  O17  1  0.75774950  0.46424450  0.75000000  1
  O  O18  1  0.24225050  0.46424450  0.75000000  1
  O  O19  1  0.75774950  0.53575550  0.25000000  1
  O  O20  1  0.00000000  0.74551000  0.43539100  1
  O  O21  1  0.00000000  0.25449000  0.93539100  1
  O  O22  1  0.00000000  0.25449000  0.56460900  1
  O  O23  1  0.00000000  0.74551000  0.06460900  1
