# generated using pymatgen
data_Ba2LaTaO6
_symmetry_space_group_name_H-M   'P 1'
_cell_length_a   6.20039191
_cell_length_b   6.20039191
_cell_length_c   14.95009704
_cell_angle_alpha   90.00000000
_cell_angle_beta   90.00000000
_cell_angle_gamma   120.00000000
_symmetry_Int_Tables_number   1
_chemical_formula_structural   Ba2LaTaO6
_chemical_formula_sum   'Ba6 La3 Ta3 O18'
_cell_volume   497.75189853
_cell_formula_units_Z   3
loop_
 _symmetry_equiv_pos_site_id
 _symmetry_equiv_pos_as_xyz
  1  'x, y, z'
loop_
 _atom_site_type_symbol
 _atom_site_label
 _atom_site_symmetry_multiplicity
 _atom_site_fract_x
 _atom_site_fract_y
 _atom_site_fract_z
 _atom_site_occupancy
  Ba  Ba0  1  0.33333333  0.66666667  0.41434267  1
  Ba  Ba1  1  0.33333333  0.66666667  0.91899067  1
  Ba  Ba2  1  0.00000000  0.00000000  0.74767600  1
  Ba  Ba3  1  0.00000000  0.00000000  0.25232400  1
  Ba  Ba4  1  0.66666667  0.33333333  0.08100933  1
  Ba  Ba5  1  0.66666667  0.33333333  0.58565733  1
  La  La6  1  0.00000000  0.00000000  0.00000000  1
  La  La7  1  0.66666667  0.33333333  0.33333333  1
  La  La8  1  0.33333333  0.66666667  0.66666667  1
  Ta  Ta9  1  0.33333333  0.66666667  0.16666667  1
  Ta  Ta10  1  1.00000000  0.00000000  0.50000000  1
  Ta  Ta11  1  0.66666667  0.33333333  0.83333333  1
  O  O12  1  0.63429500  0.75980300  0.08890800  1
  O  O13  1  0.12550800  0.36570500  0.08890800  1
  O  O14  1  0.24019700  0.87449200  0.08890800  1
  O  O15  1  0.03237167  0.57353033  0.24442533  1
  O  O16  1  0.42646967  0.45884133  0.24442533  1
  O  O17  1  0.54115867  0.96762833  0.24442533  1
  O  O18  1  0.30096167  0.09313633  0.42224133  1
  O  O19  1  0.79217467  0.69903833  0.42224133  1
  O  O20  1  0.90686367  0.20782533  0.42224133  1
  O  O21  1  0.69903833  0.90686367  0.57775867  1
  O  O22  1  0.09313633  0.79217467  0.57775867  1
  O  O23  1  0.20782533  0.30096167  0.57775867  1
  O  O24  1  0.96762833  0.42646967  0.75557467  1
  O  O25  1  0.45884133  0.03237167  0.75557467  1
  O  O26  1  0.57353033  0.54115867  0.75557467  1
  O  O27  1  0.36570500  0.24019700  0.91109200  1
  O  O28  1  0.75980300  0.12550800  0.91109200  1
  O  O29  1  0.87449200  0.63429500  0.91109200  1
