# generated using pymatgen
data_Rb2B2Se7
_symmetry_space_group_name_H-M   'P 1'
_cell_length_a   16.39291000
_cell_length_b   7.52262000
_cell_length_c   13.06497539
_cell_angle_alpha   90.00000000
_cell_angle_beta   123.45701197
_cell_angle_gamma   90.00000000
_symmetry_Int_Tables_number   1
_chemical_formula_structural   Rb2B2Se7
_chemical_formula_sum   'Rb8 B8 Se28'
_cell_volume   1344.17514396
_cell_formula_units_Z   4
loop_
 _symmetry_equiv_pos_site_id
 _symmetry_equiv_pos_as_xyz
  1  'x, y, z'
loop_
 _atom_site_type_symbol
 _atom_site_label
 _atom_site_symmetry_multiplicity
 _atom_site_fract_x
 _atom_site_fract_y
 _atom_site_fract_z
 _atom_site_occupancy
  Rb  Rb0  1  0.60396750  0.27733050  0.52360600  1
  Rb  Rb1  1  0.89603250  0.77733050  0.97639400  1
  Rb  Rb2  1  0.39603250  0.72266950  0.47639400  1
  Rb  Rb3  1  0.10396750  0.22266950  0.02360600  1
  Rb  Rb4  1  0.10396750  0.77733050  0.52360600  1
  Rb  Rb5  1  0.39603250  0.27733050  0.97639400  1
  Rb  Rb6  1  0.89603250  0.22266950  0.47639400  1
  Rb  Rb7  1  0.60396750  0.72266950  0.02360600  1
  B  B8  1  0.61561400  0.76941700  0.34910900  1
  B  B9  1  0.38438600  0.76941700  0.15089100  1
  B  B10  1  0.38438600  0.23058300  0.65089100  1
  B  B11  1  0.61561400  0.23058300  0.84910900  1
  B  B12  1  0.11561400  0.26941700  0.34910900  1
  B  B13  1  0.88438600  0.26941700  0.15089100  1
  B  B14  1  0.88438600  0.73058300  0.65089100  1
  B  B15  1  0.11561400  0.73058300  0.84910900  1
  Se  Se16  1  0.13153350  0.70102050  0.01546700  1
  Se  Se17  1  0.36846650  0.20102050  0.48453300  1
  Se  Se18  1  0.86846650  0.29897950  0.98453300  1
  Se  Se19  1  0.63153350  0.79897950  0.51546700  1
  Se  Se20  1  0.72574450  0.12761050  0.83637800  1
  Se  Se21  1  0.77425550  0.62761050  0.66362200  1
  Se  Se22  1  0.27425550  0.87238950  0.16362200  1
  Se  Se23  1  0.22574450  0.37238950  0.33637800  1
  Se  Se24  1  0.58123400  0.48077000  0.77209100  1
  Se  Se25  1  0.41876600  0.48077000  0.72790900  1
  Se  Se26  1  0.41876600  0.51923000  0.22790900  1
  Se  Se27  1  0.58123400  0.51923000  0.27209100  1
  Se  Se28  1  0.50000000  0.05362700  0.75000000  1
  Se  Se29  1  0.50000000  0.94637300  0.25000000  1
  Se  Se30  1  0.63153350  0.20102050  0.01546700  1
  Se  Se31  1  0.86846650  0.70102050  0.48453300  1
  Se  Se32  1  0.36846650  0.79897950  0.98453300  1
  Se  Se33  1  0.13153350  0.29897950  0.51546700  1
  Se  Se34  1  0.22574450  0.62761050  0.83637800  1
  Se  Se35  1  0.27425550  0.12761050  0.66362200  1
  Se  Se36  1  0.77425550  0.37238950  0.16362200  1
  Se  Se37  1  0.72574450  0.87238950  0.33637800  1
  Se  Se38  1  0.08123400  0.98077000  0.77209100  1
  Se  Se39  1  0.91876600  0.98077000  0.72790900  1
  Se  Se40  1  0.91876600  0.01923000  0.22790900  1
  Se  Se41  1  0.08123400  0.01923000  0.27209100  1
  Se  Se42  1  0.00000000  0.55362700  0.75000000  1
  Se  Se43  1  0.00000000  0.44637300  0.25000000  1
