# generated using pymatgen
data_Ba2NF
_symmetry_space_group_name_H-M   'P 1'
_cell_length_a   4.03922389
_cell_length_b   4.03922389
_cell_length_c   20.32751055
_cell_angle_alpha   90.00000000
_cell_angle_beta   90.00000000
_cell_angle_gamma   120.00000000
_symmetry_Int_Tables_number   1
_chemical_formula_structural   Ba2NF
_chemical_formula_sum   'Ba6 N3 F3'
_cell_volume   287.21735616
_cell_formula_units_Z   3
loop_
 _symmetry_equiv_pos_site_id
 _symmetry_equiv_pos_as_xyz
  1  'x, y, z'
loop_
 _atom_site_type_symbol
 _atom_site_label
 _atom_site_symmetry_multiplicity
 _atom_site_fract_x
 _atom_site_fract_y
 _atom_site_fract_z
 _atom_site_occupancy
  Ba  Ba0  1  0.66666667  0.33333333  0.09171733  1
  Ba  Ba1  1  0.00000000  0.00000000  0.24161600  1
  Ba  Ba2  1  0.33333333  0.66666667  0.42505067  1
  Ba  Ba3  1  0.66666667  0.33333333  0.57494933  1
  Ba  Ba4  1  0.00000000  0.00000000  0.75838400  1
  Ba  Ba5  1  0.33333333  0.66666667  0.90828267  1
  N  N6  1  0.33333333  0.66666667  0.16666667  1
  N  N7  1  1.00000000  1.00000000  0.50000000  1
  N  N8  1  0.66666667  0.33333333  0.83333333  1
  F  F9  1  0.00000000  0.00000000  0.00000000  1
  F  F10  1  0.66666667  0.33333333  0.33333333  1
  F  F11  1  0.33333333  0.66666667  0.66666667  1
