# generated using pymatgen
data_ZnCu2SnSe4
_symmetry_space_group_name_H-M   'P 1'
_cell_length_a   5.75774400
_cell_length_b   5.75774400
_cell_length_c   11.52075800
_cell_angle_alpha   90.00000000
_cell_angle_beta   90.00000000
_cell_angle_gamma   90.00000000
_symmetry_Int_Tables_number   1
_chemical_formula_structural   ZnCu2SnSe4
_chemical_formula_sum   'Zn2 Cu4 Sn2 Se8'
_cell_volume   381.93174489
_cell_formula_units_Z   2
loop_
 _symmetry_equiv_pos_site_id
 _symmetry_equiv_pos_as_xyz
  1  'x, y, z'
loop_
 _atom_site_type_symbol
 _atom_site_label
 _atom_site_symmetry_multiplicity
 _atom_site_fract_x
 _atom_site_fract_y
 _atom_site_fract_z
 _atom_site_occupancy
  Zn  Zn0  1  0.00000000  0.00000000  0.00000000  1
  Zn  Zn1  1  0.50000000  0.50000000  0.50000000  1
  Cu  Cu2  1  0.00000000  0.50000000  0.25000000  1
  Cu  Cu3  1  0.50000000  0.00000000  0.25000000  1
  Cu  Cu4  1  0.50000000  0.00000000  0.75000000  1
  Cu  Cu5  1  0.00000000  0.50000000  0.75000000  1
  Sn  Sn6  1  0.50000000  0.50000000  0.00000000  1
  Sn  Sn7  1  0.00000000  0.00000000  0.50000000  1
  Se  Se8  1  0.25905550  0.25905550  0.36480050  1
  Se  Se9  1  0.24094450  0.75905550  0.13519950  1
  Se  Se10  1  0.75905550  0.24094450  0.13519950  1
  Se  Se11  1  0.74094450  0.74094450  0.36480050  1
  Se  Se12  1  0.75905550  0.75905550  0.86480050  1
  Se  Se13  1  0.74094450  0.25905550  0.63519950  1
  Se  Se14  1  0.25905550  0.74094450  0.63519950  1
  Se  Se15  1  0.24094450  0.24094450  0.86480050  1
