# generated using pymatgen
data_Sm2O3
_symmetry_space_group_name_H-M   'P 1'
_cell_length_a   14.39491000
_cell_length_b   3.63013000
_cell_length_c   8.91731063
_cell_angle_alpha   90.00000000
_cell_angle_beta   100.25568804
_cell_angle_gamma   90.00000000
_symmetry_Int_Tables_number   1
_chemical_formula_structural   Sm2O3
_chemical_formula_sum   'Sm12 O18'
_cell_volume   458.53267483
_cell_formula_units_Z   6
loop_
 _symmetry_equiv_pos_site_id
 _symmetry_equiv_pos_as_xyz
  1  'x, y, z'
loop_
 _atom_site_type_symbol
 _atom_site_label
 _atom_site_symmetry_multiplicity
 _atom_site_fract_x
 _atom_site_fract_y
 _atom_site_fract_z
 _atom_site_occupancy
  Sm  Sm0  1  0.96735400  0.00000000  0.18720600  1
  Sm  Sm1  1  0.53264600  0.50000000  0.81279400  1
  Sm  Sm2  1  0.69116800  0.00000000  0.13773000  1
  Sm  Sm3  1  0.80883200  0.50000000  0.86227000  1
  Sm  Sm4  1  0.63466800  0.00000000  0.48880200  1
  Sm  Sm5  1  0.86533200  0.50000000  0.51119800  1
  Sm  Sm6  1  0.46735400  0.50000000  0.18720600  1
  Sm  Sm7  1  0.03264600  0.00000000  0.81279400  1
  Sm  Sm8  1  0.19116800  0.50000000  0.13773000  1
  Sm  Sm9  1  0.30883200  0.00000000  0.86227000  1
  Sm  Sm10  1  0.13466800  0.50000000  0.48880200  1
  Sm  Sm11  1  0.36533200  0.00000000  0.51119800  1
  O  O12  1  0.00000000  0.50000000  0.00000000  1
  O  O13  1  0.97252100  0.50000000  0.34366400  1
  O  O14  1  0.52747900  0.00000000  0.65633600  1
  O  O15  1  0.79570200  0.00000000  0.37557200  1
  O  O16  1  0.70429800  0.50000000  0.62442800  1
  O  O17  1  0.82486400  0.00000000  0.02844800  1
  O  O18  1  0.87137900  0.00000000  0.71645200  1
  O  O19  1  0.62862100  0.50000000  0.28354800  1
  O  O20  1  0.67513600  0.50000000  0.97155200  1
  O  O21  1  0.50000000  0.00000000  0.00000000  1
  O  O22  1  0.47252100  0.00000000  0.34366400  1
  O  O23  1  0.02747900  0.50000000  0.65633600  1
  O  O24  1  0.29570200  0.50000000  0.37557200  1
  O  O25  1  0.20429800  0.00000000  0.62442800  1
  O  O26  1  0.32486400  0.50000000  0.02844800  1
  O  O27  1  0.37137900  0.50000000  0.71645200  1
  O  O28  1  0.12862100  0.00000000  0.28354800  1
  O  O29  1  0.17513600  0.00000000  0.97155200  1
