# generated using pymatgen
data_NaAlSe2
_symmetry_space_group_name_H-M   'P 1'
_cell_length_a   10.82444600
_cell_length_b   10.82552400
_cell_length_c   14.30893162
_cell_angle_alpha   90.00000000
_cell_angle_beta   100.97113386
_cell_angle_gamma   90.00000000
_symmetry_Int_Tables_number   1
_chemical_formula_structural   NaAlSe2
_chemical_formula_sum   'Na16 Al16 Se32'
_cell_volume   1646.07971746
_cell_formula_units_Z   16
loop_
 _symmetry_equiv_pos_site_id
 _symmetry_equiv_pos_as_xyz
  1  'x, y, z'
loop_
 _atom_site_type_symbol
 _atom_site_label
 _atom_site_symmetry_multiplicity
 _atom_site_fract_x
 _atom_site_fract_y
 _atom_site_fract_z
 _atom_site_occupancy
  Na  Na0  1  0.53394250  0.31252550  0.88075300  1
  Na  Na1  1  0.46605750  0.31252550  0.61924700  1
  Na  Na2  1  0.46605750  0.68747450  0.11924700  1
  Na  Na3  1  0.53394250  0.68747450  0.38075300  1
  Na  Na4  1  0.71920250  0.06160450  0.62726400  1
  Na  Na5  1  0.28079750  0.06160450  0.87273600  1
  Na  Na6  1  0.28079750  0.93839550  0.37273600  1
  Na  Na7  1  0.71920250  0.93839550  0.12726400  1
  Na  Na8  1  0.03394250  0.81252550  0.88075300  1
  Na  Na9  1  0.96605750  0.81252550  0.61924700  1
  Na  Na10  1  0.96605750  0.18747450  0.11924700  1
  Na  Na11  1  0.03394250  0.18747450  0.38075300  1
  Na  Na12  1  0.21920250  0.56160450  0.62726400  1
  Na  Na13  1  0.78079750  0.56160450  0.87273600  1
  Na  Na14  1  0.78079750  0.43839550  0.37273600  1
  Na  Na15  1  0.21920250  0.43839550  0.12726400  1
  Al  Al16  1  0.40141850  0.68907750  0.84818200  1
  Al  Al17  1  0.59858150  0.68907750  0.65181800  1
  Al  Al18  1  0.59858150  0.31092250  0.15181800  1
  Al  Al19  1  0.40141850  0.31092250  0.34818200  1
  Al  Al20  1  0.35203350  0.93568950  0.65166100  1
  Al  Al21  1  0.64796650  0.93568950  0.84833900  1
  Al  Al22  1  0.64796650  0.06431050  0.34833900  1
  Al  Al23  1  0.35203350  0.06431050  0.15166100  1
  Al  Al24  1  0.90141850  0.18907750  0.84818200  1
  Al  Al25  1  0.09858150  0.18907750  0.65181800  1
  Al  Al26  1  0.09858150  0.81092250  0.15181800  1
  Al  Al27  1  0.90141850  0.81092250  0.34818200  1
  Al  Al28  1  0.85203350  0.43568950  0.65166100  1
  Al  Al29  1  0.14796650  0.43568950  0.84833900  1
  Al  Al30  1  0.14796650  0.56431050  0.34833900  1
  Al  Al31  1  0.85203350  0.56431050  0.15166100  1
  Se  Se32  1  0.50000000  0.55398000  0.75000000  1
  Se  Se33  1  0.50000000  0.44602000  0.25000000  1
  Se  Se34  1  0.50000000  0.07032900  0.75000000  1
  Se  Se35  1  0.50000000  0.92967100  0.25000000  1
  Se  Se36  1  0.79980800  0.06281000  0.94988100  1
  Se  Se37  1  0.20019200  0.06281000  0.55011900  1
  Se  Se38  1  0.20019200  0.93719000  0.05011900  1
  Se  Se39  1  0.79980800  0.93719000  0.44988100  1
  Se  Se40  1  0.24187650  0.81227350  0.74986100  1
  Se  Se41  1  0.75812350  0.81227350  0.75013900  1
  Se  Se42  1  0.75812350  0.18772650  0.25013900  1
  Se  Se43  1  0.24187650  0.18772650  0.24986100  1
  Se  Se44  1  0.44853250  0.81217150  0.54637000  1
  Se  Se45  1  0.55146750  0.81217150  0.95363000  1
  Se  Se46  1  0.55146750  0.18782850  0.45363000  1
  Se  Se47  1  0.44853250  0.18782850  0.04637000  1
  Se  Se48  1  0.00000000  0.05398000  0.75000000  1
  Se  Se49  1  0.00000000  0.94602000  0.25000000  1
  Se  Se50  1  0.00000000  0.57032900  0.75000000  1
  Se  Se51  1  0.00000000  0.42967100  0.25000000  1
  Se  Se52  1  0.29980800  0.56281000  0.94988100  1
  Se  Se53  1  0.70019200  0.56281000  0.55011900  1
  Se  Se54  1  0.70019200  0.43719000  0.05011900  1
  Se  Se55  1  0.29980800  0.43719000  0.44988100  1
  Se  Se56  1  0.74187650  0.31227350  0.74986100  1
  Se  Se57  1  0.25812350  0.31227350  0.75013900  1
  Se  Se58  1  0.25812350  0.68772650  0.25013900  1
  Se  Se59  1  0.74187650  0.68772650  0.24986100  1
  Se  Se60  1  0.94853250  0.31217150  0.54637000  1
  Se  Se61  1  0.05146750  0.31217150  0.95363000  1
  Se  Se62  1  0.05146750  0.68782850  0.45363000  1
  Se  Se63  1  0.94853250  0.68782850  0.04637000  1
