# generated using pymatgen
data_Li2GePbS4
_symmetry_space_group_name_H-M   'P 1'
_cell_length_a   6.57049400
_cell_length_b   6.57049400
_cell_length_c   7.90858800
_cell_angle_alpha   90.00000000
_cell_angle_beta   90.00000000
_cell_angle_gamma   90.00000000
_symmetry_Int_Tables_number   1
_chemical_formula_structural   Li2GePbS4
_chemical_formula_sum   'Li4 Ge2 Pb2 S8'
_cell_volume   341.42474800
_cell_formula_units_Z   2
loop_
 _symmetry_equiv_pos_site_id
 _symmetry_equiv_pos_as_xyz
  1  'x, y, z'
loop_
 _atom_site_type_symbol
 _atom_site_label
 _atom_site_symmetry_multiplicity
 _atom_site_fract_x
 _atom_site_fract_y
 _atom_site_fract_z
 _atom_site_occupancy
  Li  Li0  1  0.00000000  0.50000000  0.25000000  1
  Li  Li1  1  0.50000000  0.00000000  0.25000000  1
  Li  Li2  1  0.50000000  0.00000000  0.75000000  1
  Li  Li3  1  0.00000000  0.50000000  0.75000000  1
  Ge  Ge4  1  0.00000000  0.00000000  0.50000000  1
  Ge  Ge5  1  0.50000000  0.50000000  0.00000000  1
  Pb  Pb6  1  0.00000000  0.00000000  0.00000000  1
  Pb  Pb7  1  0.50000000  0.50000000  0.50000000  1
  S  S8  1  0.19700800  0.80299200  0.66281100  1
  S  S9  1  0.30299200  0.30299200  0.83718900  1
  S  S10  1  0.19700800  0.19700800  0.33718900  1
  S  S11  1  0.80299200  0.19700800  0.66281100  1
  S  S12  1  0.69700800  0.30299200  0.16281100  1
  S  S13  1  0.80299200  0.80299200  0.33718900  1
  S  S14  1  0.69700800  0.69700800  0.83718900  1
  S  S15  1  0.30299200  0.69700800  0.16281100  1
