# generated using pymatgen
data_Ba3Lu(BO3)3
_symmetry_space_group_name_H-M   'P 1'
_cell_length_a   9.44866609
_cell_length_b   9.44866609
_cell_length_c   17.88247500
_cell_angle_alpha   90.00000000
_cell_angle_beta   90.00000000
_cell_angle_gamma   120.00000000
_symmetry_Int_Tables_number   1
_chemical_formula_structural   Ba3Lu(BO3)3
_chemical_formula_sum   'Ba18 Lu6 B18 O54'
_cell_volume   1382.60862431
_cell_formula_units_Z   6
loop_
 _symmetry_equiv_pos_site_id
 _symmetry_equiv_pos_as_xyz
  1  'x, y, z'
loop_
 _atom_site_type_symbol
 _atom_site_label
 _atom_site_symmetry_multiplicity
 _atom_site_fract_x
 _atom_site_fract_y
 _atom_site_fract_z
 _atom_site_occupancy
  Ba  Ba0  1  0.68211800  0.00000000  0.37146000  1
  Ba  Ba1  1  0.68211800  0.68211800  0.87146000  1
  Ba  Ba2  1  0.00000000  0.31788200  0.87146000  1
  Ba  Ba3  1  0.00000000  0.68211800  0.37146000  1
  Ba  Ba4  1  0.31788200  0.31788200  0.37146000  1
  Ba  Ba5  1  0.31788200  0.00000000  0.87146000  1
  Ba  Ba6  1  0.65206600  0.00000000  0.12953800  1
  Ba  Ba7  1  0.65206600  0.65206600  0.62953800  1
  Ba  Ba8  1  0.00000000  0.34793400  0.62953800  1
  Ba  Ba9  1  0.00000000  0.65206600  0.12953800  1
  Ba  Ba10  1  0.34793400  0.34793400  0.12953800  1
  Ba  Ba11  1  0.34793400  0.00000000  0.62953800  1
  Ba  Ba12  1  0.66666667  0.33333333  0.77765300  1
  Ba  Ba13  1  0.33333333  0.66666667  0.27765300  1
  Ba  Ba14  1  0.66666667  0.33333333  0.27765300  1
  Ba  Ba15  1  0.33333333  0.66666667  0.77765300  1
  Ba  Ba16  1  0.00000000  0.00000000  0.21721900  1
  Ba  Ba17  1  0.00000000  0.00000000  0.71721900  1
  Lu  Lu18  1  0.66666667  0.33333333  0.49733800  1
  Lu  Lu19  1  0.33333333  0.66666667  0.99733800  1
  Lu  Lu20  1  0.66666667  0.33333333  0.99733800  1
  Lu  Lu21  1  0.33333333  0.66666667  0.49733800  1
  Lu  Lu22  1  0.00000000  0.00000000  0.00350300  1
  Lu  Lu23  1  0.00000000  0.00000000  0.50350300  1
  B  B24  1  0.66046100  0.00000000  0.92385200  1
  B  B25  1  0.66046100  0.66046100  0.42385200  1
  B  B26  1  0.00000000  0.33953900  0.42385200  1
  B  B27  1  0.00000000  0.66046100  0.92385200  1
  B  B28  1  0.33953900  0.33953900  0.92385200  1
  B  B29  1  0.33953900  0.00000000  0.42385200  1
  B  B30  1  0.66744800  0.00000000  0.74953700  1
  B  B31  1  0.66744800  0.66744800  0.24953700  1
  B  B32  1  0.00000000  0.33255200  0.24953700  1
  B  B33  1  0.00000000  0.66744800  0.74953700  1
  B  B34  1  0.33255200  0.33255200  0.74953700  1
  B  B35  1  0.33255200  0.00000000  0.24953700  1
  B  B36  1  0.67303700  0.00000000  0.57194200  1
  B  B37  1  0.67303700  0.67303700  0.07194200  1
  B  B38  1  0.00000000  0.32696300  0.07194200  1
  B  B39  1  0.00000000  0.67303700  0.57194200  1
  B  B40  1  0.32696300  0.32696300  0.57194200  1
  B  B41  1  0.32696300  0.00000000  0.07194200  1
  O  O42  1  0.80733100  0.00000000  0.93315100  1
  O  O43  1  0.80733100  0.80733100  0.43315100  1
  O  O44  1  0.00000000  0.19266900  0.43315100  1
  O  O45  1  0.00000000  0.80733100  0.93315100  1
  O  O46  1  0.19266900  0.19266900  0.93315100  1
  O  O47  1  0.19266900  0.00000000  0.43315100  1
  O  O48  1  0.14763300  0.48617700  0.41870700  1
  O  O49  1  0.51382300  0.66145600  0.41870700  1
  O  O50  1  0.33854400  0.85236700  0.41870700  1
  O  O51  1  0.66145600  0.14763300  0.91870700  1
  O  O52  1  0.85236700  0.51382300  0.91870700  1
  O  O53  1  0.48617700  0.33854400  0.91870700  1
  O  O54  1  0.51382300  0.85236700  0.91870700  1
  O  O55  1  0.66145600  0.51382300  0.41870700  1
  O  O56  1  0.85236700  0.33854400  0.41870700  1
  O  O57  1  0.14763300  0.66145600  0.91870700  1
  O  O58  1  0.33854400  0.48617700  0.91870700  1
  O  O59  1  0.48617700  0.14763300  0.41870700  1
  O  O60  1  0.51986200  0.00000000  0.74935200  1
  O  O61  1  0.51986200  0.51986200  0.24935200  1
  O  O62  1  0.00000000  0.48013800  0.24935200  1
  O  O63  1  0.00000000  0.51986200  0.74935200  1
  O  O64  1  0.48013800  0.48013800  0.74935200  1
  O  O65  1  0.48013800  0.00000000  0.24935200  1
  O  O66  1  0.14758600  0.33266700  0.24998200  1
  O  O67  1  0.66733300  0.81491900  0.24998200  1
  O  O68  1  0.18508100  0.85241400  0.24998200  1
  O  O69  1  0.81491900  0.14758600  0.74998200  1
  O  O70  1  0.85241400  0.66733300  0.74998200  1
  O  O71  1  0.33266700  0.18508100  0.74998200  1
  O  O72  1  0.66733300  0.85241400  0.74998200  1
  O  O73  1  0.81491900  0.66733300  0.24998200  1
  O  O74  1  0.85241400  0.18508100  0.24998200  1
  O  O75  1  0.14758600  0.81491900  0.74998200  1
  O  O76  1  0.18508100  0.33266700  0.74998200  1
  O  O77  1  0.33266700  0.14758600  0.24998200  1
  O  O78  1  0.14710200  0.47387700  0.06746400  1
  O  O79  1  0.52612300  0.67322500  0.06746400  1
  O  O80  1  0.32677500  0.85289800  0.06746400  1
  O  O81  1  0.67322500  0.14710200  0.56746400  1
  O  O82  1  0.85289800  0.52612300  0.56746400  1
  O  O83  1  0.47387700  0.32677500  0.56746400  1
  O  O84  1  0.52612300  0.85289800  0.56746400  1
  O  O85  1  0.67322500  0.52612300  0.06746400  1
  O  O86  1  0.85289800  0.32677500  0.06746400  1
  O  O87  1  0.14710200  0.67322500  0.56746400  1
  O  O88  1  0.32677500  0.47387700  0.56746400  1
  O  O89  1  0.47387700  0.14710200  0.06746400  1
  O  O90  1  0.81922600  0.00000000  0.58142600  1
  O  O91  1  0.81922600  0.81922600  0.08142600  1
  O  O92  1  0.00000000  0.18077400  0.08142600  1
  O  O93  1  0.00000000  0.81922600  0.58142600  1
  O  O94  1  0.18077400  0.18077400  0.58142600  1
  O  O95  1  0.18077400  0.00000000  0.08142600  1
