# generated using pymatgen
data_Lu2SiO5
_symmetry_space_group_name_H-M   'P 1'
_cell_length_a   14.28332200
_cell_length_b   6.67335000
_cell_length_c   10.28811137
_cell_angle_alpha   90.00000000
_cell_angle_beta   121.98989128
_cell_angle_gamma   90.00000000
_symmetry_Int_Tables_number   1
_chemical_formula_structural   Lu2SiO5
_chemical_formula_sum   'Lu16 Si8 O40'
_cell_volume   831.71999107
_cell_formula_units_Z   8
loop_
 _symmetry_equiv_pos_site_id
 _symmetry_equiv_pos_as_xyz
  1  'x, y, z'
loop_
 _atom_site_type_symbol
 _atom_site_label
 _atom_site_symmetry_multiplicity
 _atom_site_fract_x
 _atom_site_fract_y
 _atom_site_fract_z
 _atom_site_occupancy
  Lu  Lu0  1  0.85872750  0.61837950  0.66084100  1
  Lu  Lu1  1  0.14127250  0.61837950  0.83915900  1
  Lu  Lu2  1  0.14127250  0.38162050  0.33915900  1
  Lu  Lu3  1  0.85872750  0.38162050  0.16084100  1
  Lu  Lu4  1  0.96172800  0.74320600  0.02863200  1
  Lu  Lu5  1  0.03827200  0.74320600  0.47136800  1
  Lu  Lu6  1  0.03827200  0.25679400  0.97136800  1
  Lu  Lu7  1  0.96172800  0.25679400  0.52863200  1
  Lu  Lu8  1  0.35872750  0.11837950  0.66084100  1
  Lu  Lu9  1  0.64127250  0.11837950  0.83915900  1
  Lu  Lu10  1  0.64127250  0.88162050  0.33915900  1
  Lu  Lu11  1  0.35872750  0.88162050  0.16084100  1
  Lu  Lu12  1  0.46172800  0.24320600  0.02863200  1
  Lu  Lu13  1  0.53827200  0.24320600  0.47136800  1
  Lu  Lu14  1  0.53827200  0.75679400  0.97136800  1
  Lu  Lu15  1  0.46172800  0.75679400  0.52863200  1
  Si  Si16  1  0.68254200  0.40762900  0.30601300  1
  Si  Si17  1  0.81745800  0.90762900  0.19398700  1
  Si  Si18  1  0.31745800  0.59237100  0.69398700  1
  Si  Si19  1  0.18254200  0.09237100  0.80601300  1
  Si  Si20  1  0.18254200  0.90762900  0.30601300  1
  Si  Si21  1  0.31745800  0.40762900  0.19398700  1
  Si  Si22  1  0.81745800  0.09237100  0.69398700  1
  Si  Si23  1  0.68254200  0.59237100  0.80601300  1
  O  O24  1  0.98368650  0.59517350  0.60435900  1
  O  O25  1  0.01631350  0.59517350  0.89564100  1
  O  O26  1  0.01631350  0.40482650  0.39564100  1
  O  O27  1  0.98368650  0.40482650  0.10435900  1
  O  O28  1  0.20285850  0.07683550  0.43372800  1
  O  O29  1  0.79714150  0.07683550  0.06627200  1
  O  O30  1  0.79714150  0.92316450  0.56627200  1
  O  O31  1  0.20285850  0.92316450  0.93372800  1
  O  O32  1  0.79906100  0.34893000  0.32137500  1
  O  O33  1  0.70093900  0.84893000  0.17862500  1
  O  O34  1  0.20093900  0.65107000  0.67862500  1
  O  O35  1  0.29906100  0.15107000  0.82137500  1
  O  O36  1  0.08833500  0.01402000  0.63399000  1
  O  O37  1  0.41166500  0.51402000  0.86601000  1
  O  O38  1  0.91166500  0.98598000  0.36601000  1
  O  O39  1  0.58833500  0.48598000  0.13399000  1
  O  O40  1  0.12206950  0.28835350  0.83064900  1
  O  O41  1  0.87793050  0.28835350  0.66935100  1
  O  O42  1  0.87793050  0.71164650  0.16935100  1
  O  O43  1  0.12206950  0.71164650  0.33064900  1
  O  O44  1  0.48368650  0.09517350  0.60435900  1
  O  O45  1  0.51631350  0.09517350  0.89564100  1
  O  O46  1  0.51631350  0.90482650  0.39564100  1
  O  O47  1  0.48368650  0.90482650  0.10435900  1
  O  O48  1  0.70285850  0.57683550  0.43372800  1
  O  O49  1  0.29714150  0.57683550  0.06627200  1
  O  O50  1  0.29714150  0.42316450  0.56627200  1
  O  O51  1  0.70285850  0.42316450  0.93372800  1
  O  O52  1  0.29906100  0.84893000  0.32137500  1
  O  O53  1  0.20093900  0.34893000  0.17862500  1
  O  O54  1  0.70093900  0.15107000  0.67862500  1
  O  O55  1  0.79906100  0.65107000  0.82137500  1
  O  O56  1  0.58833500  0.51402000  0.63399000  1
  O  O57  1  0.91166500  0.01402000  0.86601000  1
  O  O58  1  0.41166500  0.48598000  0.36601000  1
  O  O59  1  0.08833500  0.98598000  0.13399000  1
  O  O60  1  0.62206950  0.78835350  0.83064900  1
  O  O61  1  0.37793050  0.78835350  0.66935100  1
  O  O62  1  0.37793050  0.21164650  0.16935100  1
  O  O63  1  0.62206950  0.21164650  0.33064900  1
