# generated using pymatgen
data_LiZnPO4
_symmetry_space_group_name_H-M   'P 1'
_cell_length_a   13.87581182
_cell_length_b   13.87581182
_cell_length_c   9.22982100
_cell_angle_alpha   90.00000000
_cell_angle_beta   90.00000000
_cell_angle_gamma   120.00000000
_symmetry_Int_Tables_number   1
_chemical_formula_structural   LiZnPO4
_chemical_formula_sum   'Li18 Zn18 P18 O72'
_cell_volume   1539.00741699
_cell_formula_units_Z   18
loop_
 _symmetry_equiv_pos_site_id
 _symmetry_equiv_pos_as_xyz
  1  'x, y, z'
loop_
 _atom_site_type_symbol
 _atom_site_label
 _atom_site_symmetry_multiplicity
 _atom_site_fract_x
 _atom_site_fract_y
 _atom_site_fract_z
 _atom_site_occupancy
  Li  Li0  1  0.20682367  0.19481133  0.58272033  1
  Li  Li1  1  0.68697433  0.54603367  0.41909667  1
  Li  Li2  1  0.85905933  0.31302567  0.41909667  1
  Li  Li3  1  0.45396633  0.14094067  0.41909667  1
  Li  Li4  1  0.98798767  0.79317633  0.58272033  1
  Li  Li5  1  0.80518867  0.01201233  0.58272033  1
  Li  Li6  1  0.87349033  0.52814467  0.91605367  1
  Li  Li7  1  0.35364100  0.87936700  0.75243000  1
  Li  Li8  1  0.52572600  0.64635900  0.75243000  1
  Li  Li9  1  0.12063300  0.47427400  0.75243000  1
  Li  Li10  1  0.65465433  0.12650967  0.91605367  1
  Li  Li11  1  0.47185533  0.34534567  0.91605367  1
  Li  Li12  1  0.54015700  0.86147800  0.24938700  1
  Li  Li13  1  0.02030767  0.21270033  0.08576333  1
  Li  Li14  1  0.19239267  0.97969233  0.08576333  1
  Li  Li15  1  0.78729967  0.80760733  0.08576333  1
  Li  Li16  1  0.32132100  0.45984300  0.24938700  1
  Li  Li17  1  0.13852200  0.67867900  0.24938700  1
  Zn  Zn18  1  0.79282700  0.80476900  0.75178000  1
  Zn  Zn19  1  0.01194200  0.20717300  0.75178000  1
  Zn  Zn20  1  0.19523100  0.98805800  0.75178000  1
  Zn  Zn21  1  0.21244967  0.19269133  0.25019433  1
  Zn  Zn22  1  0.98024167  0.78755033  0.25019433  1
  Zn  Zn23  1  0.80730867  0.01975833  0.25019433  1
  Zn  Zn24  1  0.45949367  0.13810233  0.08511333  1
  Zn  Zn25  1  0.67860867  0.54050633  0.08511333  1
  Zn  Zn26  1  0.86189767  0.32139133  0.08511333  1
  Zn  Zn27  1  0.87911633  0.52602467  0.58352767  1
  Zn  Zn28  1  0.64690833  0.12088367  0.58352767  1
  Zn  Zn29  1  0.47397533  0.35309167  0.58352767  1
  Zn  Zn30  1  0.12616033  0.47143567  0.41844667  1
  Zn  Zn31  1  0.34527533  0.87383967  0.41844667  1
  Zn  Zn32  1  0.52856433  0.65472467  0.41844667  1
  Zn  Zn33  1  0.54578300  0.85935800  0.91686100  1
  Zn  Zn34  1  0.31357500  0.45421700  0.91686100  1
  Zn  Zn35  1  0.14064200  0.68642500  0.91686100  1
  P  P36  1  0.13530500  0.67683200  0.58266400  1
  P  P37  1  0.54152700  0.86469500  0.58266400  1
  P  P38  1  0.32316800  0.45847300  0.58266400  1
  P  P39  1  0.01326233  0.20964967  0.41820867  1
  P  P40  1  0.19638733  0.98673767  0.41820867  1
  P  P41  1  0.79035033  0.80361267  0.41820867  1
  P  P42  1  0.80197167  0.01016533  0.91599733  1
  P  P43  1  0.20819367  0.19802833  0.91599733  1
  P  P44  1  0.98983467  0.79180633  0.91599733  1
  P  P45  1  0.67992900  0.54298300  0.75154200  1
  P  P46  1  0.86305400  0.32007100  0.75154200  1
  P  P47  1  0.45701700  0.13694600  0.75154200  1
  P  P48  1  0.46863833  0.34349867  0.24933067  1
  P  P49  1  0.87486033  0.53136167  0.24933067  1
  P  P50  1  0.65650133  0.12513967  0.24933067  1
  P  P51  1  0.34659567  0.87631633  0.08487533  1
  P  P52  1  0.52972067  0.65340433  0.08487533  1
  P  P53  1  0.12368367  0.47027933  0.08487533  1
  O  O54  1  0.21392500  0.10668000  0.41812500  1
  O  O55  1  0.79460400  0.86758100  0.55867300  1
  O  O56  1  0.13241900  0.92702300  0.55867300  1
  O  O57  1  0.53628333  0.79624567  0.71983667  1
  O  O58  1  0.25996233  0.46371667  0.71983667  1
  O  O59  1  0.20375433  0.74003767  0.71983667  1
  O  O60  1  0.77367500  0.55119600  0.24976500  1
  O  O61  1  0.77752100  0.22632500  0.24976500  1
  O  O62  1  0.44880400  0.22247900  0.24976500  1
  O  O63  1  0.07297700  0.20539600  0.55867300  1
  O  O64  1  0.89332000  0.10724500  0.41812500  1
  O  O65  1  0.89275500  0.78607500  0.41812500  1
  O  O66  1  0.79340400  0.87116500  0.28186000  1
  O  O67  1  0.12883500  0.92223900  0.28186000  1
  O  O68  1  0.07776100  0.20659600  0.28186000  1
  O  O69  1  0.20330500  0.13336200  0.77670700  1
  O  O70  1  0.86663800  0.06994300  0.77670700  1
  O  O71  1  0.93005700  0.79669500  0.77670700  1
  O  O72  1  0.32940167  0.34967533  0.58502533  1
  O  O73  1  0.65032467  0.97972633  0.58502533  1
  O  O74  1  0.02027367  0.67059833  0.58502533  1
  O  O75  1  0.68403067  0.68671133  0.41571933  1
  O  O76  1  0.31328867  0.99731933  0.41571933  1
  O  O77  1  0.00268067  0.31596933  0.41571933  1
  O  O78  1  0.88059167  0.44001333  0.75145833  1
  O  O79  1  0.46127067  0.20091433  0.89200633  1
  O  O80  1  0.79908567  0.26035633  0.89200633  1
  O  O81  1  0.20295000  0.12957900  0.05317000  1
  O  O82  1  0.92662900  0.79705000  0.05317000  1
  O  O83  1  0.87042100  0.07337100  0.05317000  1
  O  O84  1  0.44034167  0.88452933  0.58309833  1
  O  O85  1  0.44418767  0.55965833  0.58309833  1
  O  O86  1  0.11547067  0.55581233  0.58309833  1
  O  O87  1  0.73964367  0.53872933  0.89200633  1
  O  O88  1  0.55998667  0.44057833  0.75145833  1
  O  O89  1  0.55942167  0.11940833  0.75145833  1
  O  O90  1  0.46007067  0.20449833  0.61519333  1
  O  O91  1  0.79550167  0.25557233  0.61519333  1
  O  O92  1  0.74442767  0.53992933  0.61519333  1
  O  O93  1  0.86997167  0.46669533  0.11004033  1
  O  O94  1  0.53330467  0.40327633  0.11004033  1
  O  O95  1  0.59672367  0.13002833  0.11004033  1
  O  O96  1  0.99606833  0.68300867  0.91835867  1
  O  O97  1  0.31699133  0.31305967  0.91835867  1
  O  O98  1  0.68694033  0.00393167  0.91835867  1
  O  O99  1  0.35069733  0.02004467  0.74905267  1
  O  O100  1  0.97995533  0.33065267  0.74905267  1
  O  O101  1  0.66934733  0.64930267  0.74905267  1
  O  O102  1  0.54725833  0.77334667  0.08479167  1
  O  O103  1  0.12793733  0.53424767  0.22533967  1
  O  O104  1  0.46575233  0.59368967  0.22533967  1
  O  O105  1  0.86961667  0.46291233  0.38650333  1
  O  O106  1  0.59329567  0.13038333  0.38650333  1
  O  O107  1  0.53708767  0.40670433  0.38650333  1
  O  O108  1  0.10700833  0.21786267  0.91643167  1
  O  O109  1  0.11085433  0.89299167  0.91643167  1
  O  O110  1  0.78213733  0.88914567  0.91643167  1
  O  O111  1  0.40631033  0.87206267  0.22533967  1
  O  O112  1  0.22665333  0.77391167  0.08479167  1
  O  O113  1  0.22608833  0.45274167  0.08479167  1
  O  O114  1  0.12673733  0.53783167  0.94852667  1
  O  O115  1  0.46216833  0.58890567  0.94852667  1
  O  O116  1  0.41109433  0.87326267  0.94852667  1
  O  O117  1  0.53663833  0.80002867  0.44337367  1
  O  O118  1  0.19997133  0.73660967  0.44337367  1
  O  O119  1  0.26339033  0.46336167  0.44337367  1
  O  O120  1  0.66273500  0.01634200  0.25169200  1
  O  O121  1  0.98365800  0.64639300  0.25169200  1
  O  O122  1  0.35360700  0.33726500  0.25169200  1
  O  O123  1  0.01736400  0.35337800  0.08238600  1
  O  O124  1  0.64662200  0.66398600  0.08238600  1
  O  O125  1  0.33601400  0.98263600  0.08238600  1
