# generated using pymatgen
data_KSmS2
_symmetry_space_group_name_H-M   'P 1'
_cell_length_a   4.14607612
_cell_length_b   4.14607612
_cell_length_c   22.15689892
_cell_angle_alpha   90.00000000
_cell_angle_beta   90.00000000
_cell_angle_gamma   120.00000000
_symmetry_Int_Tables_number   1
_chemical_formula_structural   KSmS2
_chemical_formula_sum   'K3 Sm3 S6'
_cell_volume   329.84822498
_cell_formula_units_Z   3
loop_
 _symmetry_equiv_pos_site_id
 _symmetry_equiv_pos_as_xyz
  1  'x, y, z'
loop_
 _atom_site_type_symbol
 _atom_site_label
 _atom_site_symmetry_multiplicity
 _atom_site_fract_x
 _atom_site_fract_y
 _atom_site_fract_z
 _atom_site_occupancy
  K  K0  1  0.33333333  0.66666667  0.16666667  1
  K  K1  1  1.00000000  1.00000000  0.50000000  1
  K  K2  1  0.66666667  0.33333333  0.83333333  1
  Sm  Sm3  1  0.00000000  0.00000000  0.00000000  1
  Sm  Sm4  1  0.66666667  0.33333333  0.33333333  1
  Sm  Sm5  1  0.33333333  0.66666667  0.66666667  1
  S  S6  1  0.00000000  0.00000000  0.26489000  1
  S  S7  1  0.66666667  0.33333333  0.06844333  1
  S  S8  1  0.66666667  0.33333333  0.59822333  1
  S  S9  1  0.33333333  0.66666667  0.40177667  1
  S  S10  1  0.33333333  0.66666667  0.93155667  1
  S  S11  1  0.00000000  0.00000000  0.73511000  1
