# generated using pymatgen
data_KNd2CuS4
_symmetry_space_group_name_H-M   'P 1'
_cell_length_a   4.07319800
_cell_length_b   13.93332600
_cell_length_c   14.03878100
_cell_angle_alpha   90.00000000
_cell_angle_beta   90.00000000
_cell_angle_gamma   90.00000000
_symmetry_Int_Tables_number   1
_chemical_formula_structural   KNd2CuS4
_chemical_formula_sum   'K4 Nd8 Cu4 S16'
_cell_volume   796.74568403
_cell_formula_units_Z   4
loop_
 _symmetry_equiv_pos_site_id
 _symmetry_equiv_pos_as_xyz
  1  'x, y, z'
loop_
 _atom_site_type_symbol
 _atom_site_label
 _atom_site_symmetry_multiplicity
 _atom_site_fract_x
 _atom_site_fract_y
 _atom_site_fract_z
 _atom_site_occupancy
  K  K0  1  0.50000000  0.39236800  0.75000000  1
  K  K1  1  0.00000000  0.10763200  0.25000000  1
  K  K2  1  0.00000000  0.89236800  0.75000000  1
  K  K3  1  0.50000000  0.60763200  0.25000000  1
  Nd  Nd4  1  0.00000000  0.36539000  0.43747500  1
  Nd  Nd5  1  0.50000000  0.13461000  0.93747500  1
  Nd  Nd6  1  0.00000000  0.36539000  0.06252500  1
  Nd  Nd7  1  0.50000000  0.13461000  0.56252500  1
  Nd  Nd8  1  0.50000000  0.86539000  0.43747500  1
  Nd  Nd9  1  0.00000000  0.63461000  0.93747500  1
  Nd  Nd10  1  0.50000000  0.86539000  0.06252500  1
  Nd  Nd11  1  0.00000000  0.63461000  0.56252500  1
  Cu  Cu12  1  0.50000000  0.33760200  0.25000000  1
  Cu  Cu13  1  0.00000000  0.16239800  0.75000000  1
  Cu  Cu14  1  0.00000000  0.83760200  0.25000000  1
  Cu  Cu15  1  0.50000000  0.66239800  0.75000000  1
  S  S16  1  0.00000000  0.00000000  0.00000000  1
  S  S17  1  0.00000000  0.00000000  0.50000000  1
  S  S18  1  0.00000000  0.26276300  0.61510500  1
  S  S19  1  0.50000000  0.23723700  0.38489500  1
  S  S20  1  0.00000000  0.42991800  0.25000000  1
  S  S21  1  0.00000000  0.26276300  0.88489500  1
  S  S22  1  0.50000000  0.07008200  0.75000000  1
  S  S23  1  0.50000000  0.23723700  0.11510500  1
  S  S24  1  0.50000000  0.50000000  0.00000000  1
  S  S25  1  0.50000000  0.50000000  0.50000000  1
  S  S26  1  0.50000000  0.76276300  0.61510500  1
  S  S27  1  0.00000000  0.73723700  0.38489500  1
  S  S28  1  0.50000000  0.92991800  0.25000000  1
  S  S29  1  0.50000000  0.76276300  0.88489500  1
  S  S30  1  0.00000000  0.57008200  0.75000000  1
  S  S31  1  0.00000000  0.73723700  0.11510500  1
