# generated using pymatgen
data_Ca2Ga2O5
_symmetry_space_group_name_H-M   'P 1'
_cell_length_a   5.43081600
_cell_length_b   5.64916000
_cell_length_c   14.70602200
_cell_angle_alpha   90.00000000
_cell_angle_beta   90.00000000
_cell_angle_gamma   90.00000000
_symmetry_Int_Tables_number   1
_chemical_formula_structural   Ca2Ga2O5
_chemical_formula_sum   'Ca8 Ga8 O20'
_cell_volume   451.17411541
_cell_formula_units_Z   4
loop_
 _symmetry_equiv_pos_site_id
 _symmetry_equiv_pos_as_xyz
  1  'x, y, z'
loop_
 _atom_site_type_symbol
 _atom_site_label
 _atom_site_symmetry_multiplicity
 _atom_site_fract_x
 _atom_site_fract_y
 _atom_site_fract_z
 _atom_site_occupancy
  Ca  Ca0  1  0.01573650  0.02843800  0.60761350  1
  Ca  Ca1  1  0.51573650  0.47156200  0.89238650  1
  Ca  Ca2  1  0.51573650  0.47156200  0.60761350  1
  Ca  Ca3  1  0.01573650  0.02843800  0.89238650  1
  Ca  Ca4  1  0.51573650  0.52843800  0.10761350  1
  Ca  Ca5  1  0.01573650  0.97156200  0.39238650  1
  Ca  Ca6  1  0.01573650  0.97156200  0.10761350  1
  Ca  Ca7  1  0.51573650  0.52843800  0.39238650  1
  Ga  Ga8  1  0.04641200  0.57053350  0.75000000  1
  Ga  Ga9  1  0.54641200  0.92946650  0.75000000  1
  Ga  Ga10  1  0.50236650  0.00000000  0.00000000  1
  Ga  Ga11  1  0.00236650  0.50000000  0.00000000  1
  Ga  Ga12  1  0.54641200  0.07053350  0.25000000  1
  Ga  Ga13  1  0.04641200  0.42946650  0.25000000  1
  Ga  Ga14  1  0.00236650  0.50000000  0.50000000  1
  Ga  Ga15  1  0.50236650  0.00000000  0.50000000  1
  O  O16  1  0.25382800  0.74508750  0.51506600  1
  O  O17  1  0.75382800  0.75491250  0.98493400  1
  O  O18  1  0.75382800  0.75491250  0.51506600  1
  O  O19  1  0.25382800  0.74508750  0.98493400  1
  O  O20  1  0.89640750  0.87631500  0.75000000  1
  O  O21  1  0.39640750  0.62368500  0.75000000  1
  O  O22  1  0.46629000  0.07321350  0.85823500  1
  O  O23  1  0.96629000  0.42678650  0.64176500  1
  O  O24  1  0.46629000  0.07321350  0.64176500  1
  O  O25  1  0.96629000  0.42678650  0.85823500  1
  O  O26  1  0.75382800  0.24508750  0.01506600  1
  O  O27  1  0.25382800  0.25491250  0.48493400  1
  O  O28  1  0.25382800  0.25491250  0.01506600  1
  O  O29  1  0.75382800  0.24508750  0.48493400  1
  O  O30  1  0.39640750  0.37631500  0.25000000  1
  O  O31  1  0.89640750  0.12368500  0.25000000  1
  O  O32  1  0.96629000  0.57321350  0.35823500  1
  O  O33  1  0.46629000  0.92678650  0.14176500  1
  O  O34  1  0.96629000  0.57321350  0.14176500  1
  O  O35  1  0.46629000  0.92678650  0.35823500  1
