# generated using pymatgen
data_VAg3O4
_symmetry_space_group_name_H-M   'P 1'
_cell_length_a   5.06895400
_cell_length_b   5.06895400
_cell_length_c   9.95490400
_cell_angle_alpha   90.00000000
_cell_angle_beta   90.00000000
_cell_angle_gamma   90.00000000
_symmetry_Int_Tables_number   1
_chemical_formula_structural   VAg3O4
_chemical_formula_sum   'V2 Ag6 O8'
_cell_volume   255.78423663
_cell_formula_units_Z   2
loop_
 _symmetry_equiv_pos_site_id
 _symmetry_equiv_pos_as_xyz
  1  'x, y, z'
loop_
 _atom_site_type_symbol
 _atom_site_label
 _atom_site_symmetry_multiplicity
 _atom_site_fract_x
 _atom_site_fract_y
 _atom_site_fract_z
 _atom_site_occupancy
  V  V0  1  0.00000000  0.00000000  0.00000000  1
  V  V1  1  0.50000000  0.50000000  0.50000000  1
  Ag  Ag2  1  0.50000000  0.50000000  0.00000000  1
  Ag  Ag3  1  0.50000000  0.00000000  0.25000000  1
  Ag  Ag4  1  0.00000000  0.50000000  0.25000000  1
  Ag  Ag5  1  0.00000000  0.00000000  0.50000000  1
  Ag  Ag6  1  0.00000000  0.50000000  0.75000000  1
  Ag  Ag7  1  0.50000000  0.00000000  0.75000000  1
  O  O8  1  0.29907500  0.29907500  0.39803700  1
  O  O9  1  0.70092500  0.70092500  0.39803700  1
  O  O10  1  0.79907500  0.20092500  0.10196300  1
  O  O11  1  0.20092500  0.79907500  0.10196300  1
  O  O12  1  0.79907500  0.79907500  0.89803700  1
  O  O13  1  0.20092500  0.20092500  0.89803700  1
  O  O14  1  0.29907500  0.70092500  0.60196300  1
  O  O15  1  0.70092500  0.29907500  0.60196300  1
