# generated using pymatgen
data_V2Cd(PO5)2
_symmetry_space_group_name_H-M   'P 1'
_cell_length_a   5.24631762
_cell_length_b   8.10607491
_cell_length_c   17.48949582
_cell_angle_alpha   90.00000000
_cell_angle_beta   92.97839462
_cell_angle_gamma   90.00000000
_symmetry_Int_Tables_number   1
_chemical_formula_structural   V2Cd(PO5)2
_chemical_formula_sum   'V8 Cd4 P8 O40'
_cell_volume   742.77185708
_cell_formula_units_Z   4
loop_
 _symmetry_equiv_pos_site_id
 _symmetry_equiv_pos_as_xyz
  1  'x, y, z'
loop_
 _atom_site_type_symbol
 _atom_site_label
 _atom_site_symmetry_multiplicity
 _atom_site_fract_x
 _atom_site_fract_y
 _atom_site_fract_z
 _atom_site_occupancy
  V  V0  1  0.04021250  0.53394700  0.64701954  1
  V  V1  1  0.95978750  0.03394700  0.85298046  1
  V  V2  1  0.33918064  0.12720776  0.43069112  1
  V  V3  1  0.04021250  0.96605300  0.14701954  1
  V  V4  1  0.33918064  0.37279224  0.93069112  1
  V  V5  1  0.66081936  0.87279224  0.56930888  1
  V  V6  1  0.66081936  0.62720776  0.06930888  1
  V  V7  1  0.95978750  0.46605300  0.35298046  1
  Cd  Cd8  1  0.40910105  0.72373712  0.81823147  1
  Cd  Cd9  1  0.59089895  0.22373712  0.68176853  1
  Cd  Cd10  1  0.59089895  0.27626288  0.18176853  1
  Cd  Cd11  1  0.40910105  0.77626288  0.31823147  1
  P  P12  1  0.16718687  0.93299936  0.68554236  1
  P  P13  1  0.83281313  0.43299936  0.81445764  1
  P  P14  1  0.83281313  0.06700064  0.31445764  1
  P  P15  1  0.16718687  0.56700064  0.18554236  1
  P  P16  1  0.14123979  0.76632491  0.98490833  1
  P  P17  1  0.85876021  0.26632491  0.51509167  1
  P  P18  1  0.85876021  0.23367509  0.01509167  1
  P  P19  1  0.14123979  0.73367509  0.48490833  1
  O  O20  1  0.17675020  0.60793495  0.54974873  1
  O  O21  1  0.82324980  0.10793495  0.95025127  1
  O  O22  1  0.82324980  0.39206505  0.45025127  1
  O  O23  1  0.17675020  0.89206505  0.04974873  1
  O  O24  1  0.82868989  0.35293864  0.59450249  1
  O  O25  1  0.17131011  0.85293864  0.90549751  1
  O  O26  1  0.17131011  0.64706136  0.40549751  1
  O  O27  1  0.82868989  0.14706136  0.09450249  1
  O  O28  1  0.80480082  0.51636415  0.73537820  1
  O  O29  1  0.19519918  0.01636415  0.76462180  1
  O  O30  1  0.19519918  0.48363585  0.26462180  1
  O  O31  1  0.80480082  0.98363585  0.23537820  1
  O  O32  1  0.18060928  0.74276174  0.70036639  1
  O  O33  1  0.81939072  0.24276174  0.79963361  1
  O  O34  1  0.08097414  0.48663454  0.85859047  1
  O  O35  1  0.18060928  0.75723826  0.20036639  1
  O  O36  1  0.27107603  0.40656510  0.68064750  1
  O  O37  1  0.72892397  0.90656510  0.81935250  1
  O  O38  1  0.72892397  0.59343490  0.31935250  1
  O  O39  1  0.27107603  0.09343490  0.18064750  1
  O  O40  1  0.28801562  0.30950880  0.38961123  1
  O  O41  1  0.71198438  0.80950880  0.11038877  1
  O  O42  1  0.71198438  0.69049120  0.61038877  1
  O  O43  1  0.28801562  0.19049120  0.88961123  1
  O  O44  1  0.63605152  0.13590356  0.51073115  1
  O  O45  1  0.36394848  0.63590356  0.98926885  1
  O  O46  1  0.36394848  0.86409644  0.48926885  1
  O  O47  1  0.63605152  0.36409644  0.01073115  1
  O  O48  1  0.59147098  0.01490367  0.35770410  1
  O  O49  1  0.40852902  0.51490367  0.14229590  1
  O  O50  1  0.40852902  0.98509633  0.64229590  1
  O  O51  1  0.59147098  0.48509633  0.85770410  1
  O  O52  1  0.11629362  0.17732142  0.51476981  1
  O  O53  1  0.88370638  0.67732142  0.98523019  1
  O  O54  1  0.88370638  0.82267858  0.48523019  1
  O  O55  1  0.11629362  0.32267858  0.01476981  1
  O  O56  1  0.08097414  0.01336546  0.35859047  1
  O  O57  1  0.91902586  0.51336546  0.14140953  1
  O  O58  1  0.91902586  0.98663454  0.64140953  1
  O  O59  1  0.81939072  0.25723826  0.29963361  1
