# generated using pymatgen
data_NaZr2PdF11
_symmetry_space_group_name_H-M   'P 1'
_cell_length_a   9.41865600
_cell_length_b   6.97621200
_cell_length_c   7.96573276
_cell_angle_alpha   90.00000000
_cell_angle_beta   115.83146044
_cell_angle_gamma   90.00000000
_symmetry_Int_Tables_number   1
_chemical_formula_structural   NaZr2PdF11
_chemical_formula_sum   'Na2 Zr4 Pd2 F22'
_cell_volume   471.10236350
_cell_formula_units_Z   2
loop_
 _symmetry_equiv_pos_site_id
 _symmetry_equiv_pos_as_xyz
  1  'x, y, z'
loop_
 _atom_site_type_symbol
 _atom_site_label
 _atom_site_symmetry_multiplicity
 _atom_site_fract_x
 _atom_site_fract_y
 _atom_site_fract_z
 _atom_site_occupancy
  Na  Na0  1  0.00000000  0.00000000  0.00000000  1
  Na  Na1  1  0.50000000  0.50000000  0.00000000  1
  Zr  Zr2  1  0.00033700  0.50000000  0.23192600  1
  Zr  Zr3  1  0.99966300  0.50000000  0.76807400  1
  Zr  Zr4  1  0.50033700  0.00000000  0.23192600  1
  Zr  Zr5  1  0.49966300  0.00000000  0.76807400  1
  Pd  Pd6  1  0.00000000  0.00000000  0.50000000  1
  Pd  Pd7  1  0.50000000  0.50000000  0.50000000  1
  F  F8  1  0.00968200  0.78993800  0.29968200  1
  F  F9  1  0.99031800  0.78993800  0.70031800  1
  F  F10  1  0.99031800  0.21006200  0.70031800  1
  F  F11  1  0.00968200  0.21006200  0.29968200  1
  F  F12  1  0.00000000  0.50000000  0.50000000  1
  F  F13  1  0.00000000  0.33254500  0.00000000  1
  F  F14  1  0.00000000  0.66745500  0.00000000  1
  F  F15  1  0.75825500  0.50000000  0.64986700  1
  F  F16  1  0.24174500  0.50000000  0.35013300  1
  F  F17  1  0.76615300  0.50000000  0.11036200  1
  F  F18  1  0.23384700  0.50000000  0.88963800  1
  F  F19  1  0.50968200  0.28993800  0.29968200  1
  F  F20  1  0.49031800  0.28993800  0.70031800  1
  F  F21  1  0.49031800  0.71006200  0.70031800  1
  F  F22  1  0.50968200  0.71006200  0.29968200  1
  F  F23  1  0.50000000  0.00000000  0.50000000  1
  F  F24  1  0.50000000  0.83254500  0.00000000  1
  F  F25  1  0.50000000  0.16745500  0.00000000  1
  F  F26  1  0.25825500  0.00000000  0.64986700  1
  F  F27  1  0.74174500  0.00000000  0.35013300  1
  F  F28  1  0.26615300  0.00000000  0.11036200  1
  F  F29  1  0.73384700  0.00000000  0.88963800  1
