# generated using pymatgen
data_B2S2O9
_symmetry_space_group_name_H-M   'P 1'
_cell_length_a   7.86981200
_cell_length_b   4.26830400
_cell_length_c   8.86518586
_cell_angle_alpha   90.00000000
_cell_angle_beta   94.09266428
_cell_angle_gamma   90.00000000
_symmetry_Int_Tables_number   1
_chemical_formula_structural   B2S2O9
_chemical_formula_sum   'B4 S4 O18'
_cell_volume   297.02886089
_cell_formula_units_Z   2
loop_
 _symmetry_equiv_pos_site_id
 _symmetry_equiv_pos_as_xyz
  1  'x, y, z'
loop_
 _atom_site_type_symbol
 _atom_site_label
 _atom_site_symmetry_multiplicity
 _atom_site_fract_x
 _atom_site_fract_y
 _atom_site_fract_z
 _atom_site_occupancy
  B  B0  1  0.50193250  0.67741350  0.85740600  1
  B  B1  1  0.99806750  0.17741350  0.14259400  1
  B  B2  1  0.00193250  0.17741350  0.85740600  1
  B  B3  1  0.49806750  0.67741350  0.14259400  1
  S  S4  1  0.66808600  0.17653300  0.73583900  1
  S  S5  1  0.83191400  0.67653300  0.26416100  1
  S  S6  1  0.16808600  0.67653300  0.73583900  1
  S  S7  1  0.33191400  0.17653300  0.26416100  1
  O  O8  1  0.66830700  0.04141400  0.59027300  1
  O  O9  1  0.83169300  0.54141400  0.40972700  1
  O  O10  1  0.83405350  0.32749950  0.79693800  1
  O  O11  1  0.66594650  0.82749950  0.20306200  1
  O  O12  1  0.62843950  0.94459350  0.86061200  1
  O  O13  1  0.87156050  0.44459350  0.13938800  1
  O  O14  1  0.54021800  0.44336600  0.73653300  1
  O  O15  1  0.95978200  0.94336600  0.26346700  1
  O  O16  1  0.00000000  0.04514000  0.00000000  1
  O  O17  1  0.16830700  0.54141400  0.59027300  1
  O  O18  1  0.33169300  0.04141400  0.40972700  1
  O  O19  1  0.33405350  0.82749950  0.79693800  1
  O  O20  1  0.16594650  0.32749950  0.20306200  1
  O  O21  1  0.12843950  0.44459350  0.86061200  1
  O  O22  1  0.37156050  0.94459350  0.13938800  1
  O  O23  1  0.04021800  0.94336600  0.73653300  1
  O  O24  1  0.45978200  0.44336600  0.26346700  1
  O  O25  1  0.50000000  0.54514000  0.00000000  1
