# generated using pymatgen
data_Ca3ZnGe5O14
_symmetry_space_group_name_H-M   'P 1'
_cell_length_a   14.11100000
_cell_length_b   8.06198000
_cell_length_c   5.14415820
_cell_angle_alpha   90.00000000
_cell_angle_beta   90.40608477
_cell_angle_gamma   90.00000000
_symmetry_Int_Tables_number   1
_chemical_formula_structural   Ca3ZnGe5O14
_chemical_formula_sum   'Ca6 Zn2 Ge10 O28'
_cell_volume   585.19811238
_cell_formula_units_Z   2
loop_
 _symmetry_equiv_pos_site_id
 _symmetry_equiv_pos_as_xyz
  1  'x, y, z'
loop_
 _atom_site_type_symbol
 _atom_site_label
 _atom_site_symmetry_multiplicity
 _atom_site_fract_x
 _atom_site_fract_y
 _atom_site_fract_z
 _atom_site_occupancy
  Ca  Ca0  1  0.00000000  0.26823600  0.00000000  1
  Ca  Ca1  1  0.79414350  0.89230250  0.99992000  1
  Ca  Ca2  1  0.70585650  0.39230250  0.00008000  1
  Ca  Ca3  1  0.50000000  0.76823600  0.00000000  1
  Ca  Ca4  1  0.29414350  0.39230250  0.99992000  1
  Ca  Ca5  1  0.20585650  0.89230250  0.00008000  1
  Zn  Zn6  1  0.00000000  0.68347600  0.00000000  1
  Zn  Zn7  1  0.50000000  0.18347600  0.00000000  1
  Ge  Ge8  1  0.62130400  0.06711500  0.49406800  1
  Ge  Ge9  1  0.87869600  0.56711500  0.50593200  1
  Ge  Ge10  1  0.83370300  0.18616700  0.47798300  1
  Ge  Ge11  1  0.66629700  0.68616700  0.52201700  1
  Ge  Ge12  1  0.00000000  0.92153900  0.50000000  1
  Ge  Ge13  1  0.12130400  0.56711500  0.49406800  1
  Ge  Ge14  1  0.37869600  0.06711500  0.50593200  1
  Ge  Ge15  1  0.33370300  0.68616700  0.47798300  1
  Ge  Ge16  1  0.16629700  0.18616700  0.52201700  1
  Ge  Ge17  1  0.50000000  0.42153900  0.50000000  1
  O  O18  1  0.61357350  0.22101250  0.73245500  1
  O  O19  1  0.88642650  0.72101250  0.26754500  1
  O  O20  1  0.66161650  0.88448050  0.68321900  1
  O  O21  1  0.83838350  0.38448050  0.31678100  1
  O  O22  1  0.92814650  0.07821050  0.31707100  1
  O  O23  1  0.57185350  0.57821050  0.68292900  1
  O  O24  1  0.92694650  0.84558850  0.74714000  1
  O  O25  1  0.57305350  0.34558850  0.25286000  1
  O  O26  1  0.83176750  0.18464950  0.81280600  1
  O  O27  1  0.66823250  0.68464950  0.18719400  1
  O  O28  1  0.54354550  0.99353050  0.25547400  1
  O  O29  1  0.95645450  0.49353050  0.74452600  1
  O  O30  1  0.73231950  0.09937350  0.31050400  1
  O  O31  1  0.76768050  0.59937350  0.68949600  1
  O  O32  1  0.11357350  0.72101250  0.73245500  1
  O  O33  1  0.38642650  0.22101250  0.26754500  1
  O  O34  1  0.16161650  0.38448050  0.68321900  1
  O  O35  1  0.33838350  0.88448050  0.31678100  1
  O  O36  1  0.42814650  0.57821050  0.31707100  1
  O  O37  1  0.07185350  0.07821050  0.68292900  1
  O  O38  1  0.42694650  0.34558850  0.74714000  1
  O  O39  1  0.07305350  0.84558850  0.25286000  1
  O  O40  1  0.33176750  0.68464950  0.81280600  1
  O  O41  1  0.16823250  0.18464950  0.18719400  1
  O  O42  1  0.04354550  0.49353050  0.25547400  1
  O  O43  1  0.45645450  0.99353050  0.74452600  1
  O  O44  1  0.23231950  0.59937350  0.31050400  1
  O  O45  1  0.26768050  0.09937350  0.68949600  1
