# generated using pymatgen
data_Y4Si2S3O7
_symmetry_space_group_name_H-M   'P 1'
_cell_length_a   11.76758000
_cell_length_b   11.76758000
_cell_length_c   13.73436200
_cell_angle_alpha   90.00000000
_cell_angle_beta   90.00000000
_cell_angle_gamma   90.00000000
_symmetry_Int_Tables_number   1
_chemical_formula_structural   Y4Si2S3O7
_chemical_formula_sum   'Y32 Si16 S24 O56'
_cell_volume   1901.87867529
_cell_formula_units_Z   8
loop_
 _symmetry_equiv_pos_site_id
 _symmetry_equiv_pos_as_xyz
  1  'x, y, z'
loop_
 _atom_site_type_symbol
 _atom_site_label
 _atom_site_symmetry_multiplicity
 _atom_site_fract_x
 _atom_site_fract_y
 _atom_site_fract_z
 _atom_site_occupancy
  Y  Y0  1  0.76488100  0.00000000  0.03344100  1
  Y  Y1  1  0.00000000  0.26488100  0.28344100  1
  Y  Y2  1  0.50000000  0.23511900  0.78344100  1
  Y  Y3  1  0.23511900  0.00000000  0.03344100  1
  Y  Y4  1  0.23511900  0.50000000  0.21655900  1
  Y  Y5  1  0.50000000  0.73511900  0.46655900  1
  Y  Y6  1  0.50000000  0.26488100  0.46655900  1
  Y  Y7  1  0.26488100  0.00000000  0.71655900  1
  Y  Y8  1  0.17208300  0.17208300  0.50000000  1
  Y  Y9  1  0.17208300  0.82791700  0.50000000  1
  Y  Y10  1  0.67208300  0.17208300  0.25000000  1
  Y  Y11  1  0.67208300  0.82791700  0.25000000  1
  Y  Y12  1  0.82791700  0.17208300  0.50000000  1
  Y  Y13  1  0.32791700  0.32791700  0.00000000  1
  Y  Y14  1  0.32791700  0.17208300  0.25000000  1
  Y  Y15  1  0.32791700  0.82791700  0.25000000  1
  Y  Y16  1  0.26488100  0.50000000  0.53344100  1
  Y  Y17  1  0.50000000  0.76488100  0.78344100  1
  Y  Y18  1  0.00000000  0.73511900  0.28344100  1
  Y  Y19  1  0.73511900  0.50000000  0.53344100  1
  Y  Y20  1  0.73511900  0.00000000  0.71655900  1
  Y  Y21  1  0.00000000  0.23511900  0.96655900  1
  Y  Y22  1  0.00000000  0.76488100  0.96655900  1
  Y  Y23  1  0.76488100  0.50000000  0.21655900  1
  Y  Y24  1  0.67208300  0.67208300  0.00000000  1
  Y  Y25  1  0.67208300  0.32791700  0.00000000  1
  Y  Y26  1  0.17208300  0.67208300  0.75000000  1
  Y  Y27  1  0.17208300  0.32791700  0.75000000  1
  Y  Y28  1  0.32791700  0.67208300  0.00000000  1
  Y  Y29  1  0.82791700  0.82791700  0.50000000  1
  Y  Y30  1  0.82791700  0.67208300  0.75000000  1
  Y  Y31  1  0.82791700  0.32791700  0.75000000  1
  Si  Si32  1  0.37523800  0.50000000  0.77941400  1
  Si  Si33  1  0.00000000  0.37523800  0.52941400  1
  Si  Si34  1  0.50000000  0.12476200  0.02941400  1
  Si  Si35  1  0.12476200  0.00000000  0.27941400  1
  Si  Si36  1  0.12476200  0.50000000  0.97058600  1
  Si  Si37  1  0.00000000  0.12476200  0.72058600  1
  Si  Si38  1  0.50000000  0.37523800  0.22058600  1
  Si  Si39  1  0.37523800  0.00000000  0.47058600  1
  Si  Si40  1  0.87523800  0.00000000  0.27941400  1
  Si  Si41  1  0.50000000  0.87523800  0.02941400  1
  Si  Si42  1  0.00000000  0.62476200  0.52941400  1
  Si  Si43  1  0.62476200  0.50000000  0.77941400  1
  Si  Si44  1  0.62476200  0.00000000  0.47058600  1
  Si  Si45  1  0.50000000  0.62476200  0.22058600  1
  Si  Si46  1  0.00000000  0.87523800  0.72058600  1
  Si  Si47  1  0.87523800  0.50000000  0.97058600  1
  S  S48  1  0.75000000  0.35398800  0.37500000  1
  S  S49  1  0.25000000  0.14601200  0.87500000  1
  S  S50  1  0.35398800  0.25000000  0.62500000  1
  S  S51  1  0.35398800  0.75000000  0.62500000  1
  S  S52  1  0.25000000  0.35398800  0.37500000  1
  S  S53  1  0.75000000  0.14601200  0.87500000  1
  S  S54  1  0.14601200  0.75000000  0.12500000  1
  S  S55  1  0.14601200  0.25000000  0.12500000  1
  S  S56  1  0.00000000  0.00000000  0.00000000  1
  S  S57  1  0.00000000  0.50000000  0.25000000  1
  S  S58  1  0.50000000  0.00000000  0.25000000  1
  S  S59  1  0.00000000  0.00000000  0.50000000  1
  S  S60  1  0.25000000  0.85398800  0.87500000  1
  S  S61  1  0.75000000  0.64601200  0.37500000  1
  S  S62  1  0.85398800  0.75000000  0.12500000  1
  S  S63  1  0.85398800  0.25000000  0.12500000  1
  S  S64  1  0.75000000  0.85398800  0.87500000  1
  S  S65  1  0.25000000  0.64601200  0.37500000  1
  S  S66  1  0.64601200  0.25000000  0.62500000  1
  S  S67  1  0.64601200  0.75000000  0.62500000  1
  S  S68  1  0.50000000  0.50000000  0.50000000  1
  S  S69  1  0.50000000  0.00000000  0.75000000  1
  S  S70  1  0.00000000  0.50000000  0.75000000  1
  S  S71  1  0.50000000  0.50000000  0.00000000  1
  O  O72  1  0.35896700  0.62310200  0.83366100  1
  O  O73  1  0.35896700  0.37689800  0.83366100  1
  O  O74  1  0.12310200  0.35896700  0.58366100  1
  O  O75  1  0.62310200  0.14103300  0.08366100  1
  O  O76  1  0.14103300  0.12310200  0.33366100  1
  O  O77  1  0.14103300  0.87689800  0.33366100  1
  O  O78  1  0.87689800  0.35896700  0.58366100  1
  O  O79  1  0.37689800  0.14103300  0.08366100  1
  O  O80  1  0.14103300  0.37689800  0.91633900  1
  O  O81  1  0.14103300  0.62310200  0.91633900  1
  O  O82  1  0.87689800  0.14103300  0.66633900  1
  O  O83  1  0.37689800  0.35896700  0.16633900  1
  O  O84  1  0.35896700  0.87689800  0.41633900  1
  O  O85  1  0.35896700  0.12310200  0.41633900  1
  O  O86  1  0.12310200  0.14103300  0.66633900  1
  O  O87  1  0.62310200  0.35896700  0.16633900  1
  O  O88  1  0.76814750  0.00000000  0.20129650  1
  O  O89  1  0.00000000  0.26814750  0.45129650  1
  O  O90  1  0.50000000  0.23185250  0.95129650  1
  O  O91  1  0.23185250  0.00000000  0.20129650  1
  O  O92  1  0.23185250  0.50000000  0.04870350  1
  O  O93  1  0.50000000  0.73185250  0.29870350  1
  O  O94  1  0.50000000  0.26814750  0.29870350  1
  O  O95  1  0.26814750  0.00000000  0.54870350  1
  O  O96  1  0.00000000  0.00000000  0.22622500  1
  O  O97  1  0.00000000  0.50000000  0.47622500  1
  O  O98  1  0.00000000  0.50000000  0.02377500  1
  O  O99  1  0.00000000  0.00000000  0.77377500  1
  O  O100  1  0.85896700  0.12310200  0.33366100  1
  O  O101  1  0.85896700  0.87689800  0.33366100  1
  O  O102  1  0.62310200  0.85896700  0.08366100  1
  O  O103  1  0.12310200  0.64103300  0.58366100  1
  O  O104  1  0.64103300  0.62310200  0.83366100  1
  O  O105  1  0.64103300  0.37689800  0.83366100  1
  O  O106  1  0.37689800  0.85896700  0.08366100  1
  O  O107  1  0.87689800  0.64103300  0.58366100  1
  O  O108  1  0.64103300  0.87689800  0.41633900  1
  O  O109  1  0.64103300  0.12310200  0.41633900  1
  O  O110  1  0.37689800  0.64103300  0.16633900  1
  O  O111  1  0.87689800  0.85896700  0.66633900  1
  O  O112  1  0.85896700  0.37689800  0.91633900  1
  O  O113  1  0.85896700  0.62310200  0.91633900  1
  O  O114  1  0.62310200  0.64103300  0.16633900  1
  O  O115  1  0.12310200  0.85896700  0.66633900  1
  O  O116  1  0.26814750  0.50000000  0.70129650  1
  O  O117  1  0.50000000  0.76814750  0.95129650  1
  O  O118  1  0.00000000  0.73185250  0.45129650  1
  O  O119  1  0.73185250  0.50000000  0.70129650  1
  O  O120  1  0.73185250  0.00000000  0.54870350  1
  O  O121  1  0.00000000  0.23185250  0.79870350  1
  O  O122  1  0.00000000  0.76814750  0.79870350  1
  O  O123  1  0.76814750  0.50000000  0.04870350  1
  O  O124  1  0.50000000  0.50000000  0.72622500  1
  O  O125  1  0.50000000  0.00000000  0.97622500  1
  O  O126  1  0.50000000  0.00000000  0.52377500  1
  O  O127  1  0.50000000  0.50000000  0.27377500  1
