# generated using pymatgen
data_Rb9Fe2Se7
_symmetry_space_group_name_H-M   'P 1'
_cell_length_a   13.76815800
_cell_length_b   13.76815800
_cell_length_c   13.76815800
_cell_angle_alpha   90.00000000
_cell_angle_beta   90.00000000
_cell_angle_gamma   90.00000000
_symmetry_Int_Tables_number   1
_chemical_formula_structural   Rb9Fe2Se7
_chemical_formula_sum   'Rb36 Fe8 Se28'
_cell_volume   2609.92197227
_cell_formula_units_Z   4
loop_
 _symmetry_equiv_pos_site_id
 _symmetry_equiv_pos_as_xyz
  1  'x, y, z'
loop_
 _atom_site_type_symbol
 _atom_site_label
 _atom_site_symmetry_multiplicity
 _atom_site_fract_x
 _atom_site_fract_y
 _atom_site_fract_z
 _atom_site_occupancy
  Rb  Rb0  1  0.95672700  0.29297800  0.32153800  1
  Rb  Rb1  1  0.55683900  0.44316100  0.94316100  1
  Rb  Rb2  1  0.44316100  0.94316100  0.55683900  1
  Rb  Rb3  1  0.05683900  0.05683900  0.05683900  1
  Rb  Rb4  1  0.76166800  0.73833200  0.26166800  1
  Rb  Rb5  1  0.73833200  0.26166800  0.76166800  1
  Rb  Rb6  1  0.26166800  0.76166800  0.73833200  1
  Rb  Rb7  1  0.23833200  0.23833200  0.23833200  1
  Rb  Rb8  1  0.58240300  0.91759700  0.08240300  1
  Rb  Rb9  1  0.91759700  0.08240300  0.58240300  1
  Rb  Rb10  1  0.08240300  0.58240300  0.91759700  1
  Rb  Rb11  1  0.41759700  0.41759700  0.41759700  1
  Rb  Rb12  1  0.32153800  0.95672700  0.29297800  1
  Rb  Rb13  1  0.82153800  0.54327300  0.70702200  1
  Rb  Rb14  1  0.67846200  0.45672700  0.20702200  1
  Rb  Rb15  1  0.54327300  0.70702200  0.82153800  1
  Rb  Rb16  1  0.20702200  0.67846200  0.45672700  1
  Rb  Rb17  1  0.70702200  0.82153800  0.54327300  1
  Rb  Rb18  1  0.94316100  0.55683900  0.44316100  1
  Rb  Rb19  1  0.29297800  0.32153800  0.95672700  1
  Rb  Rb20  1  0.45672700  0.20702200  0.67846200  1
  Rb  Rb21  1  0.04327300  0.79297800  0.17846200  1
  Rb  Rb22  1  0.79297800  0.17846200  0.04327300  1
  Rb  Rb23  1  0.17846200  0.04327300  0.79297800  1
  Rb  Rb24  1  0.66801300  0.99911900  0.80052000  1
  Rb  Rb25  1  0.16801300  0.50088100  0.19948000  1
  Rb  Rb26  1  0.33198700  0.49911900  0.69948000  1
  Rb  Rb27  1  0.50088100  0.19948000  0.16801300  1
  Rb  Rb28  1  0.69948000  0.33198700  0.49911900  1
  Rb  Rb29  1  0.19948000  0.16801300  0.50088100  1
  Rb  Rb30  1  0.99911900  0.80052000  0.66801300  1
  Rb  Rb31  1  0.80052000  0.66801300  0.99911900  1
  Rb  Rb32  1  0.49911900  0.69948000  0.33198700  1
  Rb  Rb33  1  0.00088100  0.30052000  0.83198700  1
  Rb  Rb34  1  0.30052000  0.83198700  0.00088100  1
  Rb  Rb35  1  0.83198700  0.00088100  0.30052000  1
  Fe  Fe36  1  0.92839000  0.42839000  0.07161000  1
  Fe  Fe37  1  0.07161000  0.92839000  0.42839000  1
  Fe  Fe38  1  0.42839000  0.07161000  0.92839000  1
  Fe  Fe39  1  0.90019900  0.90019900  0.90019900  1
  Fe  Fe40  1  0.59980100  0.09980100  0.40019900  1
  Fe  Fe41  1  0.40019900  0.59980100  0.09980100  1
  Fe  Fe42  1  0.09980100  0.40019900  0.59980100  1
  Fe  Fe43  1  0.57161000  0.57161000  0.57161000  1
  Se  Se44  1  0.41396500  0.43546400  0.16587400  1
  Se  Se45  1  0.18826400  0.92330300  0.55516700  1
  Se  Se46  1  0.94483300  0.81173600  0.42330300  1
  Se  Se47  1  0.81173600  0.42330300  0.94483300  1
  Se  Se48  1  0.44483300  0.68826400  0.57669700  1
  Se  Se49  1  0.05516700  0.31173600  0.07669700  1
  Se  Se50  1  0.31173600  0.07669700  0.05516700  1
  Se  Se51  1  0.07669700  0.05516700  0.31173600  1
  Se  Se52  1  0.58603500  0.93546400  0.33412600  1
  Se  Se53  1  0.55516700  0.18826400  0.92330300  1
  Se  Se54  1  0.68826400  0.57669700  0.44483300  1
  Se  Se55  1  0.56453600  0.66587400  0.08603500  1
  Se  Se56  1  0.16587400  0.41396500  0.43546400  1
  Se  Se57  1  0.66587400  0.08603500  0.56453600  1
  Se  Se58  1  0.93546400  0.33412600  0.58603500  1
  Se  Se59  1  0.33412600  0.58603500  0.93546400  1
  Se  Se60  1  0.43546400  0.16587400  0.41396500  1
  Se  Se61  1  0.06453600  0.83412600  0.91396500  1
  Se  Se62  1  0.83412600  0.91396500  0.06453600  1
  Se  Se63  1  0.91396500  0.06453600  0.83412600  1
  Se  Se64  1  0.57669700  0.44483300  0.68826400  1
  Se  Se65  1  0.92330300  0.55516700  0.18826400  1
  Se  Se66  1  0.42330300  0.94483300  0.81173600  1
  Se  Se67  1  0.79556300  0.79556300  0.79556300  1
  Se  Se68  1  0.70443700  0.20443700  0.29556300  1
  Se  Se69  1  0.29556300  0.70443700  0.20443700  1
  Se  Se70  1  0.20443700  0.29556300  0.70443700  1
  Se  Se71  1  0.08603500  0.56453600  0.66587400  1
