# generated using pymatgen
data_Li3AuS2
_symmetry_space_group_name_H-M   'P 1'
_cell_length_a   5.80823400
_cell_length_b   6.35996400
_cell_length_c   11.32768000
_cell_angle_alpha   90.00000000
_cell_angle_beta   90.00000000
_cell_angle_gamma   90.00000000
_symmetry_Int_Tables_number   1
_chemical_formula_structural   Li3AuS2
_chemical_formula_sum   'Li12 Au4 S8'
_cell_volume   418.44630193
_cell_formula_units_Z   4
loop_
 _symmetry_equiv_pos_site_id
 _symmetry_equiv_pos_as_xyz
  1  'x, y, z'
loop_
 _atom_site_type_symbol
 _atom_site_label
 _atom_site_symmetry_multiplicity
 _atom_site_fract_x
 _atom_site_fract_y
 _atom_site_fract_z
 _atom_site_occupancy
  Li  Li0  1  0.00000000  0.75000000  0.22636900  1
  Li  Li1  1  0.50000000  0.25000000  0.27363100  1
  Li  Li2  1  0.50000000  0.75000000  0.27363100  1
  Li  Li3  1  0.00000000  0.25000000  0.22636900  1
  Li  Li4  1  0.50000000  0.75000000  0.00000000  1
  Li  Li5  1  0.50000000  0.25000000  0.00000000  1
  Li  Li6  1  0.50000000  0.25000000  0.72636900  1
  Li  Li7  1  0.00000000  0.75000000  0.77363100  1
  Li  Li8  1  0.00000000  0.25000000  0.77363100  1
  Li  Li9  1  0.50000000  0.75000000  0.72636900  1
  Li  Li10  1  0.00000000  0.25000000  0.50000000  1
  Li  Li11  1  0.00000000  0.75000000  0.50000000  1
  Au  Au12  1  0.00000000  0.50000000  0.00000000  1
  Au  Au13  1  0.00000000  0.00000000  0.00000000  1
  Au  Au14  1  0.50000000  0.00000000  0.50000000  1
  Au  Au15  1  0.50000000  0.50000000  0.50000000  1
  S  S16  1  0.70523300  0.50000000  0.14152900  1
  S  S17  1  0.20523300  0.50000000  0.35847100  1
  S  S18  1  0.29476700  0.00000000  0.14152900  1
  S  S19  1  0.79476700  0.00000000  0.35847100  1
  S  S20  1  0.20523300  0.00000000  0.64152900  1
  S  S21  1  0.70523300  0.00000000  0.85847100  1
  S  S22  1  0.79476700  0.50000000  0.64152900  1
  S  S23  1  0.29476700  0.50000000  0.85847100  1
