# generated using pymatgen
data_TiFeO3
_symmetry_space_group_name_H-M   'P 1'
_cell_length_a   5.19764880
_cell_length_b   5.19764880
_cell_length_c   13.91263960
_cell_angle_alpha   90.00000000
_cell_angle_beta   90.00000000
_cell_angle_gamma   120.00000000
_symmetry_Int_Tables_number   1
_chemical_formula_structural   TiFeO3
_chemical_formula_sum   'Ti6 Fe6 O18'
_cell_volume   325.50227558
_cell_formula_units_Z   6
loop_
 _symmetry_equiv_pos_site_id
 _symmetry_equiv_pos_as_xyz
  1  'x, y, z'
loop_
 _atom_site_type_symbol
 _atom_site_label
 _atom_site_symmetry_multiplicity
 _atom_site_fract_x
 _atom_site_fract_y
 _atom_site_fract_z
 _atom_site_occupancy
  Ti  Ti0  1  0.00000000  0.00000000  0.99739300  1
  Ti  Ti1  1  0.66666667  0.33333333  0.83072633  1
  Ti  Ti2  1  0.66666667  0.33333333  0.33072633  1
  Ti  Ti3  1  0.33333333  0.66666667  0.16405967  1
  Ti  Ti4  1  0.33333333  0.66666667  0.66405967  1
  Ti  Ti5  1  0.00000000  0.00000000  0.49739300  1
  Fe  Fe6  1  0.00000000  0.00000000  0.71107533  1
  Fe  Fe7  1  0.33333333  0.66666667  0.87774200  1
  Fe  Fe8  1  0.66666667  0.33333333  0.04440867  1
  Fe  Fe9  1  1.00000000  0.00000000  0.21107533  1
  Fe  Fe10  1  0.33333333  0.66666667  0.37774200  1
  Fe  Fe11  1  0.66666667  0.33333333  0.54440867  1
  O  O12  1  0.37189967  0.37806233  0.77026133  1
  O  O13  1  0.95527100  0.29476700  0.93692800  1
  O  O14  1  0.70523300  0.66050400  0.93692800  1
  O  O15  1  0.62193767  0.99383733  0.77026133  1
  O  O16  1  0.00616267  0.62810033  0.77026133  1
  O  O17  1  0.33949600  0.04472900  0.93692800  1
  O  O18  1  0.03856633  0.71139567  0.10359467  1
  O  O19  1  0.62193767  0.62810033  0.27026133  1
  O  O20  1  0.37189967  0.99383733  0.27026133  1
  O  O21  1  0.28860433  0.32717067  0.10359467  1
  O  O22  1  0.67282933  0.96143367  0.10359467  1
  O  O23  1  0.00616267  0.37806233  0.27026133  1
  O  O24  1  0.70523300  0.04472900  0.43692800  1
  O  O25  1  0.28860433  0.96143367  0.60359467  1
  O  O26  1  0.03856633  0.32717067  0.60359467  1
  O  O27  1  0.95527100  0.66050400  0.43692800  1
  O  O28  1  0.33949600  0.29476700  0.43692800  1
  O  O29  1  0.67282933  0.71139567  0.60359467  1
