# generated using pymatgen
data_SrMgF4
_symmetry_space_group_name_H-M   'P 1'
_cell_length_a   4.07702200
_cell_length_b   15.02741600
_cell_length_c   5.60093100
_cell_angle_alpha   90.00000000
_cell_angle_beta   90.00000000
_cell_angle_gamma   90.00000000
_symmetry_Int_Tables_number   1
_chemical_formula_structural   SrMgF4
_chemical_formula_sum   'Sr4 Mg4 F16'
_cell_volume   343.15283123
_cell_formula_units_Z   4
loop_
 _symmetry_equiv_pos_site_id
 _symmetry_equiv_pos_as_xyz
  1  'x, y, z'
loop_
 _atom_site_type_symbol
 _atom_site_label
 _atom_site_symmetry_multiplicity
 _atom_site_fract_x
 _atom_site_fract_y
 _atom_site_fract_z
 _atom_site_occupancy
  Sr  Sr0  1  0.50000000  0.83099600  0.75000000  1
  Sr  Sr1  1  0.00000000  0.66900400  0.25000000  1
  Sr  Sr2  1  0.00000000  0.33099600  0.75000000  1
  Sr  Sr3  1  0.50000000  0.16900400  0.25000000  1
  Mg  Mg4  1  0.00000000  0.91159300  0.25000000  1
  Mg  Mg5  1  0.50000000  0.58840700  0.75000000  1
  Mg  Mg6  1  0.50000000  0.41159300  0.25000000  1
  Mg  Mg7  1  0.00000000  0.08840700  0.75000000  1
  F  F8  1  0.00000000  0.00000000  0.00000000  1
  F  F9  1  0.00000000  0.00000000  0.50000000  1
  F  F10  1  0.00000000  0.81398700  0.49801200  1
  F  F11  1  0.50000000  0.68601300  0.50198800  1
  F  F12  1  0.00000000  0.60111300  0.75000000  1
  F  F13  1  0.50000000  0.89888700  0.25000000  1
  F  F14  1  0.00000000  0.81398700  0.00198800  1
  F  F15  1  0.50000000  0.68601300  0.99801200  1
  F  F16  1  0.50000000  0.50000000  0.00000000  1
  F  F17  1  0.50000000  0.50000000  0.50000000  1
  F  F18  1  0.50000000  0.31398700  0.49801200  1
  F  F19  1  0.00000000  0.18601300  0.50198800  1
  F  F20  1  0.50000000  0.10111300  0.75000000  1
  F  F21  1  0.00000000  0.39888700  0.25000000  1
  F  F22  1  0.50000000  0.31398700  0.00198800  1
  F  F23  1  0.00000000  0.18601300  0.99801200  1
