# generated using pymatgen
data_Na2MoO4
_symmetry_space_group_name_H-M   'P 1'
_cell_length_a   9.24462600
_cell_length_b   9.24462600
_cell_length_c   9.24462600
_cell_angle_alpha   90.00000000
_cell_angle_beta   90.00000000
_cell_angle_gamma   90.00000000
_symmetry_Int_Tables_number   1
_chemical_formula_structural   Na2MoO4
_chemical_formula_sum   'Na16 Mo8 O32'
_cell_volume   790.07448764
_cell_formula_units_Z   8
loop_
 _symmetry_equiv_pos_site_id
 _symmetry_equiv_pos_as_xyz
  1  'x, y, z'
loop_
 _atom_site_type_symbol
 _atom_site_label
 _atom_site_symmetry_multiplicity
 _atom_site_fract_x
 _atom_site_fract_y
 _atom_site_fract_z
 _atom_site_occupancy
  Na  Na0  1  0.12500000  0.12500000  0.12500000  1
  Na  Na1  1  0.62500000  0.87500000  0.37500000  1
  Na  Na2  1  0.87500000  0.87500000  0.12500000  1
  Na  Na3  1  0.37500000  0.12500000  0.37500000  1
  Na  Na4  1  0.12500000  0.62500000  0.62500000  1
  Na  Na5  1  0.62500000  0.37500000  0.87500000  1
  Na  Na6  1  0.87500000  0.37500000  0.62500000  1
  Na  Na7  1  0.37500000  0.62500000  0.87500000  1
  Na  Na8  1  0.62500000  0.12500000  0.62500000  1
  Na  Na9  1  0.12500000  0.87500000  0.87500000  1
  Na  Na10  1  0.37500000  0.87500000  0.62500000  1
  Na  Na11  1  0.87500000  0.12500000  0.87500000  1
  Na  Na12  1  0.62500000  0.62500000  0.12500000  1
  Na  Na13  1  0.12500000  0.37500000  0.37500000  1
  Na  Na14  1  0.37500000  0.37500000  0.12500000  1
  Na  Na15  1  0.87500000  0.62500000  0.37500000  1
  Mo  Mo16  1  0.00000000  0.00000000  0.50000000  1
  Mo  Mo17  1  0.25000000  0.75000000  0.25000000  1
  Mo  Mo18  1  0.00000000  0.50000000  0.00000000  1
  Mo  Mo19  1  0.25000000  0.25000000  0.75000000  1
  Mo  Mo20  1  0.50000000  0.00000000  0.00000000  1
  Mo  Mo21  1  0.75000000  0.75000000  0.75000000  1
  Mo  Mo22  1  0.50000000  0.50000000  0.50000000  1
  Mo  Mo23  1  0.75000000  0.25000000  0.25000000  1
  O  O24  1  0.36271400  0.86271400  0.36271400  1
  O  O25  1  0.38728600  0.11271400  0.11271400  1
  O  O26  1  0.11271400  0.11271400  0.38728600  1
  O  O27  1  0.11271400  0.38728600  0.11271400  1
  O  O28  1  0.63728600  0.13728600  0.36271400  1
  O  O29  1  0.13728600  0.86271400  0.13728600  1
  O  O30  1  0.38728600  0.38728600  0.38728600  1
  O  O31  1  0.86271400  0.13728600  0.13728600  1
  O  O32  1  0.36271400  0.36271400  0.86271400  1
  O  O33  1  0.38728600  0.61271400  0.61271400  1
  O  O34  1  0.11271400  0.61271400  0.88728600  1
  O  O35  1  0.11271400  0.88728600  0.61271400  1
  O  O36  1  0.63728600  0.63728600  0.86271400  1
  O  O37  1  0.13728600  0.36271400  0.63728600  1
  O  O38  1  0.38728600  0.88728600  0.88728600  1
  O  O39  1  0.86271400  0.63728600  0.63728600  1
  O  O40  1  0.86271400  0.86271400  0.86271400  1
  O  O41  1  0.88728600  0.11271400  0.61271400  1
  O  O42  1  0.61271400  0.11271400  0.88728600  1
  O  O43  1  0.61271400  0.38728600  0.61271400  1
  O  O44  1  0.13728600  0.13728600  0.86271400  1
  O  O45  1  0.63728600  0.86271400  0.63728600  1
  O  O46  1  0.88728600  0.38728600  0.88728600  1
  O  O47  1  0.36271400  0.13728600  0.63728600  1
  O  O48  1  0.86271400  0.36271400  0.36271400  1
  O  O49  1  0.88728600  0.61271400  0.11271400  1
  O  O50  1  0.61271400  0.61271400  0.38728600  1
  O  O51  1  0.61271400  0.88728600  0.11271400  1
  O  O52  1  0.13728600  0.63728600  0.36271400  1
  O  O53  1  0.63728600  0.36271400  0.13728600  1
  O  O54  1  0.88728600  0.88728600  0.38728600  1
  O  O55  1  0.36271400  0.63728600  0.13728600  1
