# generated using pymatgen
data_Sr3Sc(BO3)3
_symmetry_space_group_name_H-M   'P 1'
_cell_length_a   12.28103249
_cell_length_b   12.28103249
_cell_length_c   9.28825634
_cell_angle_alpha   90.00000000
_cell_angle_beta   90.00000000
_cell_angle_gamma   120.00000000
_symmetry_Int_Tables_number   1
_chemical_formula_structural   Sr3Sc(BO3)3
_chemical_formula_sum   'Sr18 Sc6 B18 O54'
_cell_volume   1213.20610064
_cell_formula_units_Z   6
loop_
 _symmetry_equiv_pos_site_id
 _symmetry_equiv_pos_as_xyz
  1  'x, y, z'
loop_
 _atom_site_type_symbol
 _atom_site_label
 _atom_site_symmetry_multiplicity
 _atom_site_fract_x
 _atom_site_fract_y
 _atom_site_fract_z
 _atom_site_occupancy
  Sr  Sr0  1  0.90488600  0.19778300  0.35762400  1
  Sr  Sr1  1  0.80221700  0.70710300  0.35762400  1
  Sr  Sr2  1  0.29289700  0.09511400  0.35762400  1
  Sr  Sr3  1  0.09511400  0.80221700  0.64237600  1
  Sr  Sr4  1  0.19778300  0.29289700  0.64237600  1
  Sr  Sr5  1  0.70710300  0.90488600  0.64237600  1
  Sr  Sr6  1  0.57155267  0.53111633  0.69095733  1
  Sr  Sr7  1  0.46888367  0.04043633  0.69095733  1
  Sr  Sr8  1  0.95956367  0.42844733  0.69095733  1
  Sr  Sr9  1  0.76178067  0.13555033  0.97570933  1
  Sr  Sr10  1  0.86444967  0.62623033  0.97570933  1
  Sr  Sr11  1  0.37376967  0.23821933  0.97570933  1
  Sr  Sr12  1  0.23821933  0.86444967  0.02429067  1
  Sr  Sr13  1  0.13555033  0.37376967  0.02429067  1
  Sr  Sr14  1  0.62623033  0.76178067  0.02429067  1
  Sr  Sr15  1  0.42844733  0.46888367  0.30904267  1
  Sr  Sr16  1  0.53111633  0.95956367  0.30904267  1
  Sr  Sr17  1  0.04043633  0.57155267  0.30904267  1
  Sc  Sc18  1  0.00000000  0.00000000  0.00000000  1
  Sc  Sc19  1  0.00000000  0.00000000  0.50000000  1
  Sc  Sc20  1  0.66666667  0.33333333  0.33333333  1
  Sc  Sc21  1  0.66666667  0.33333333  0.83333333  1
  Sc  Sc22  1  0.33333333  0.66666667  0.66666667  1
  Sc  Sc23  1  0.33333333  0.66666667  0.16666667  1
  B  B24  1  0.80727967  0.94583433  0.23403533  1
  B  B25  1  0.05416567  0.86144533  0.23403533  1
  B  B26  1  0.13855467  0.19272033  0.23403533  1
  B  B27  1  0.94583433  0.13855467  0.76596467  1
  B  B28  1  0.86144533  0.80727967  0.76596467  1
  B  B29  1  0.19272033  0.05416567  0.76596467  1
  B  B30  1  0.47394633  0.27916767  0.56736867  1
  B  B31  1  0.72083233  0.19477867  0.56736867  1
  B  B32  1  0.80522133  0.52605367  0.56736867  1
  B  B33  1  0.61250100  0.47188800  0.09929800  1
  B  B34  1  0.52811200  0.14061300  0.09929800  1
  B  B35  1  0.85938700  0.38749900  0.09929800  1
  B  B36  1  0.14061300  0.61250100  0.90070200  1
  B  B37  1  0.38749900  0.52811200  0.90070200  1
  B  B38  1  0.47188800  0.85938700  0.90070200  1
  B  B39  1  0.27916767  0.80522133  0.43263133  1
  B  B40  1  0.19477867  0.47394633  0.43263133  1
  B  B41  1  0.52605367  0.72083233  0.43263133  1
  O  O42  1  0.78458800  0.29478600  0.47162600  1
  O  O43  1  0.70521400  0.48980200  0.47162600  1
  O  O44  1  0.66788533  0.07193967  0.52269367  1
  O  O45  1  0.40405433  0.33211467  0.52269367  1
  O  O46  1  0.92806033  0.59594567  0.52269367  1
  O  O47  1  0.07193967  0.40405433  0.47730633  1
  O  O48  1  0.33211467  0.92806033  0.47730633  1
  O  O49  1  0.59594567  0.66788533  0.47730633  1
  O  O50  1  0.05173500  0.88805500  0.37992800  1
  O  O51  1  0.83632000  0.94826500  0.37992800  1
  O  O52  1  0.11194500  0.16368000  0.37992800  1
  O  O53  1  0.94826500  0.11194500  0.62007200  1
  O  O54  1  0.16368000  0.05173500  0.62007200  1
  O  O55  1  0.88805500  0.83632000  0.62007200  1
  O  O56  1  0.48980200  0.78458800  0.52837400  1
  O  O57  1  0.29478600  0.51019800  0.52837400  1
  O  O58  1  0.21541200  0.70521400  0.52837400  1
  O  O59  1  0.51019800  0.21541200  0.47162600  1
  O  O60  1  0.45125467  0.62811933  0.80495933  1
  O  O61  1  0.37188067  0.82313533  0.80495933  1
  O  O62  1  0.33455200  0.40527300  0.85602700  1
  O  O63  1  0.07072100  0.66544800  0.85602700  1
  O  O64  1  0.59472700  0.92927900  0.85602700  1
  O  O65  1  0.73860633  0.73738767  0.81063967  1
  O  O66  1  0.99878133  0.26139367  0.81063967  1
  O  O67  1  0.26261233  0.00121867  0.81063967  1
  O  O68  1  0.71840167  0.22138833  0.71326133  1
  O  O69  1  0.50298667  0.28159833  0.71326133  1
  O  O70  1  0.77861167  0.49701333  0.71326133  1
  O  O71  1  0.61493167  0.44527833  0.95340533  1
  O  O72  1  0.83034667  0.38506833  0.95340533  1
  O  O73  1  0.55472167  0.16965333  0.95340533  1
  O  O74  1  0.15646867  0.11792133  0.86170733  1
  O  O75  1  0.96145267  0.84353133  0.86170733  1
  O  O76  1  0.88207867  0.03854733  0.86170733  1
  O  O77  1  0.17686467  0.54874533  0.80495933  1
  O  O78  1  0.11792133  0.96145267  0.13829267  1
  O  O79  1  0.03854733  0.15646867  0.13829267  1
  O  O80  1  0.00121867  0.73860633  0.18936033  1
  O  O81  1  0.73738767  0.99878133  0.18936033  1
  O  O82  1  0.26139367  0.26261233  0.18936033  1
  O  O83  1  0.40527300  0.07072100  0.14397300  1
  O  O84  1  0.66544800  0.59472700  0.14397300  1
  O  O85  1  0.92927900  0.33455200  0.14397300  1
  O  O86  1  0.38506833  0.55472167  0.04659467  1
  O  O87  1  0.16965333  0.61493167  0.04659467  1
  O  O88  1  0.44527833  0.83034667  0.04659467  1
  O  O89  1  0.28159833  0.77861167  0.28673867  1
  O  O90  1  0.49701333  0.71840167  0.28673867  1
  O  O91  1  0.22138833  0.50298667  0.28673867  1
  O  O92  1  0.82313533  0.45125467  0.19504067  1
  O  O93  1  0.62811933  0.17686467  0.19504067  1
  O  O94  1  0.54874533  0.37188067  0.19504067  1
  O  O95  1  0.84353133  0.88207867  0.13829267  1
