# generated using pymatgen
data_NaCaVO4
_symmetry_space_group_name_H-M   'P 1'
_cell_length_a   5.97753000
_cell_length_b   9.41861800
_cell_length_c   7.20486900
_cell_angle_alpha   90.00000000
_cell_angle_beta   90.00000000
_cell_angle_gamma   90.00000000
_symmetry_Int_Tables_number   1
_chemical_formula_structural   NaCaVO4
_chemical_formula_sum   'Na4 Ca4 V4 O16'
_cell_volume   405.63464095
_cell_formula_units_Z   4
loop_
 _symmetry_equiv_pos_site_id
 _symmetry_equiv_pos_as_xyz
  1  'x, y, z'
loop_
 _atom_site_type_symbol
 _atom_site_label
 _atom_site_symmetry_multiplicity
 _atom_site_fract_x
 _atom_site_fract_y
 _atom_site_fract_z
 _atom_site_occupancy
  Na  Na0  1  0.50000000  0.32138700  0.75000000  1
  Na  Na1  1  0.50000000  0.67861300  0.25000000  1
  Na  Na2  1  0.00000000  0.82138700  0.75000000  1
  Na  Na3  1  0.00000000  0.17861300  0.25000000  1
  Ca  Ca4  1  0.50000000  0.00000000  0.50000000  1
  Ca  Ca5  1  0.50000000  0.00000000  0.00000000  1
  Ca  Ca6  1  0.00000000  0.50000000  0.50000000  1
  Ca  Ca7  1  0.00000000  0.50000000  0.00000000  1
  V  V8  1  0.50000000  0.64800400  0.75000000  1
  V  V9  1  0.50000000  0.35199600  0.25000000  1
  V  V10  1  0.00000000  0.14800400  0.75000000  1
  V  V11  1  0.00000000  0.85199600  0.25000000  1
  O  O12  1  0.50000000  0.24515700  0.05659000  1
  O  O13  1  0.50000000  0.75484300  0.55659000  1
  O  O14  1  0.50000000  0.75484300  0.94341000  1
  O  O15  1  0.50000000  0.24515700  0.44341000  1
  O  O16  1  0.24038200  0.03729000  0.75000000  1
  O  O17  1  0.75961800  0.96271000  0.25000000  1
  O  O18  1  0.75961800  0.03729000  0.75000000  1
  O  O19  1  0.24038200  0.96271000  0.25000000  1
  O  O20  1  0.00000000  0.74515700  0.05659000  1
  O  O21  1  0.00000000  0.25484300  0.55659000  1
  O  O22  1  0.00000000  0.25484300  0.94341000  1
  O  O23  1  0.00000000  0.74515700  0.44341000  1
  O  O24  1  0.74038200  0.53729000  0.75000000  1
  O  O25  1  0.25961800  0.46271000  0.25000000  1
  O  O26  1  0.25961800  0.53729000  0.75000000  1
  O  O27  1  0.74038200  0.46271000  0.25000000  1
