# generated using pymatgen
data_Hf3N4
_symmetry_space_group_name_H-M   'P 1'
_cell_length_a   6.71510200
_cell_length_b   6.71510200
_cell_length_c   6.71510200
_cell_angle_alpha   90.00000000
_cell_angle_beta   90.00000000
_cell_angle_gamma   90.00000000
_symmetry_Int_Tables_number   1
_chemical_formula_structural   Hf3N4
_chemical_formula_sum   'Hf12 N16'
_cell_volume   302.80137400
_cell_formula_units_Z   4
loop_
 _symmetry_equiv_pos_site_id
 _symmetry_equiv_pos_as_xyz
  1  'x, y, z'
loop_
 _atom_site_type_symbol
 _atom_site_label
 _atom_site_symmetry_multiplicity
 _atom_site_fract_x
 _atom_site_fract_y
 _atom_site_fract_z
 _atom_site_occupancy
  Hf  Hf0  1  0.75000000  0.37500000  0.50000000  1
  Hf  Hf1  1  0.50000000  0.75000000  0.37500000  1
  Hf  Hf2  1  0.50000000  0.25000000  0.12500000  1
  Hf  Hf3  1  0.37500000  0.50000000  0.75000000  1
  Hf  Hf4  1  0.12500000  0.50000000  0.25000000  1
  Hf  Hf5  1  0.25000000  0.12500000  0.50000000  1
  Hf  Hf6  1  0.25000000  0.87500000  0.00000000  1
  Hf  Hf7  1  0.00000000  0.25000000  0.87500000  1
  Hf  Hf8  1  0.00000000  0.75000000  0.62500000  1
  Hf  Hf9  1  0.87500000  0.00000000  0.25000000  1
  Hf  Hf10  1  0.62500000  0.00000000  0.75000000  1
  Hf  Hf11  1  0.75000000  0.62500000  0.00000000  1
  N  N12  1  0.06683300  0.56683300  0.93316700  1
  N  N13  1  0.18316700  0.81683300  0.31683300  1
  N  N14  1  0.18316700  0.18316700  0.18316700  1
  N  N15  1  0.31683300  0.18316700  0.81683300  1
  N  N16  1  0.43316700  0.43316700  0.43316700  1
  N  N17  1  0.56683300  0.93316700  0.06683300  1
  N  N18  1  0.81683300  0.31683300  0.18316700  1
  N  N19  1  0.93316700  0.06683300  0.56683300  1
  N  N20  1  0.56683300  0.06683300  0.43316700  1
  N  N21  1  0.68316700  0.31683300  0.81683300  1
  N  N22  1  0.68316700  0.68316700  0.68316700  1
  N  N23  1  0.81683300  0.68316700  0.31683300  1
  N  N24  1  0.93316700  0.93316700  0.93316700  1
  N  N25  1  0.06683300  0.43316700  0.56683300  1
  N  N26  1  0.31683300  0.81683300  0.68316700  1
  N  N27  1  0.43316700  0.56683300  0.06683300  1
