# generated using pymatgen
data_Mn3WO6
_symmetry_space_group_name_H-M   'P 1'
_cell_length_a   9.02297813
_cell_length_b   9.02297813
_cell_length_c   10.69094829
_cell_angle_alpha   90.00000000
_cell_angle_beta   90.00000000
_cell_angle_gamma   120.00000000
_symmetry_Int_Tables_number   1
_chemical_formula_structural   Mn3WO6
_chemical_formula_sum   'Mn18 W6 O36'
_cell_volume   753.78357589
_cell_formula_units_Z   6
loop_
 _symmetry_equiv_pos_site_id
 _symmetry_equiv_pos_as_xyz
  1  'x, y, z'
loop_
 _atom_site_type_symbol
 _atom_site_label
 _atom_site_symmetry_multiplicity
 _atom_site_fract_x
 _atom_site_fract_y
 _atom_site_fract_z
 _atom_site_occupancy
  Mn  Mn0  1  0.96062767  0.73193533  0.28920233  1
  Mn  Mn1  1  0.26806467  0.22869233  0.28920233  1
  Mn  Mn2  1  0.03937233  0.26806467  0.71079767  1
  Mn  Mn3  1  0.22869233  0.96062767  0.71079767  1
  Mn  Mn4  1  0.73193533  0.77130767  0.71079767  1
  Mn  Mn5  1  0.77130767  0.03937233  0.28920233  1
  Mn  Mn6  1  0.62729433  0.06526867  0.62253567  1
  Mn  Mn7  1  0.93473133  0.56202567  0.62253567  1
  Mn  Mn8  1  0.70603900  0.60139800  0.04413100  1
  Mn  Mn9  1  0.89535900  0.29396100  0.04413100  1
  Mn  Mn10  1  0.39860200  0.10464100  0.04413100  1
  Mn  Mn11  1  0.43797433  0.37270567  0.62253567  1
  Mn  Mn12  1  0.29396100  0.39860200  0.95586900  1
  Mn  Mn13  1  0.60139800  0.89535900  0.95586900  1
  Mn  Mn14  1  0.37270567  0.93473133  0.37746433  1
  Mn  Mn15  1  0.56202567  0.62729433  0.37746433  1
  Mn  Mn16  1  0.06526867  0.43797433  0.37746433  1
  Mn  Mn17  1  0.10464100  0.70603900  0.95586900  1
  W  W18  1  0.00000000  0.00000000  0.00000000  1
  W  W19  1  0.00000000  0.00000000  0.50000000  1
  W  W20  1  0.66666667  0.33333333  0.33333333  1
  W  W21  1  0.66666667  0.33333333  0.83333333  1
  W  W22  1  0.33333333  0.66666667  0.66666667  1
  W  W23  1  0.33333333  0.66666667  0.16666667  1
  O  O24  1  0.63847900  0.13892500  0.43336500  1
  O  O25  1  0.86107500  0.49955400  0.43336500  1
  O  O26  1  0.50044600  0.36152100  0.43336500  1
  O  O27  1  0.36152100  0.86107500  0.56663500  1
  O  O28  1  0.13892500  0.50044600  0.56663500  1
  O  O29  1  0.49955400  0.63847900  0.56663500  1
  O  O30  1  0.16186833  0.97934967  0.38951467  1
  O  O31  1  0.02065033  0.18251867  0.38951467  1
  O  O32  1  0.18251867  0.16186833  0.61048533  1
  O  O33  1  0.97934967  0.81748133  0.61048533  1
  O  O34  1  0.83813167  0.02065033  0.61048533  1
  O  O35  1  0.81748133  0.83813167  0.38951467  1
  O  O36  1  0.30514567  0.47225833  0.76669833  1
  O  O37  1  0.52774167  0.83288733  0.76669833  1
  O  O38  1  0.16711267  0.69485433  0.76669833  1
  O  O39  1  0.02818767  0.19440833  0.89996833  1
  O  O40  1  0.80559167  0.83377933  0.89996833  1
  O  O41  1  0.16622067  0.97181233  0.89996833  1
  O  O42  1  0.82853500  0.31268300  0.72284800  1
  O  O43  1  0.68731700  0.51585200  0.72284800  1
  O  O44  1  0.84918533  0.49520167  0.94381867  1
  O  O45  1  0.64601633  0.15081467  0.94381867  1
  O  O46  1  0.50479833  0.35398367  0.94381867  1
  O  O47  1  0.48414800  0.17146500  0.72284800  1
  O  O48  1  0.97181233  0.80559167  0.10003167  1
  O  O49  1  0.19440833  0.16622067  0.10003167  1
  O  O50  1  0.83377933  0.02818767  0.10003167  1
  O  O51  1  0.69485433  0.52774167  0.23330167  1
  O  O52  1  0.47225833  0.16711267  0.23330167  1
  O  O53  1  0.83288733  0.30514567  0.23330167  1
  O  O54  1  0.49520167  0.64601633  0.05618133  1
  O  O55  1  0.35398367  0.84918533  0.05618133  1
  O  O56  1  0.51585200  0.82853500  0.27715200  1
  O  O57  1  0.31268300  0.48414800  0.27715200  1
  O  O58  1  0.17146500  0.68731700  0.27715200  1
  O  O59  1  0.15081467  0.50479833  0.05618133  1
