# generated using pymatgen
data_Ca3FeRhO6
_symmetry_space_group_name_H-M   'P 1'
_cell_length_a   9.24580097
_cell_length_b   9.24580097
_cell_length_c   10.93381581
_cell_angle_alpha   90.00000000
_cell_angle_beta   90.00000000
_cell_angle_gamma   120.00000000
_symmetry_Int_Tables_number   1
_chemical_formula_structural   Ca3FeRhO6
_chemical_formula_sum   'Ca18 Fe6 Rh6 O36'
_cell_volume   809.45268153
_cell_formula_units_Z   6
loop_
 _symmetry_equiv_pos_site_id
 _symmetry_equiv_pos_as_xyz
  1  'x, y, z'
loop_
 _atom_site_type_symbol
 _atom_site_label
 _atom_site_symmetry_multiplicity
 _atom_site_fract_x
 _atom_site_fract_y
 _atom_site_fract_z
 _atom_site_occupancy
  Ca  Ca0  1  0.03405067  0.33333333  0.58333333  1
  Ca  Ca1  1  0.66666667  0.70071733  0.58333333  1
  Ca  Ca2  1  0.29928267  0.96594933  0.58333333  1
  Ca  Ca3  1  0.96594933  0.66666667  0.41666667  1
  Ca  Ca4  1  0.70071733  0.03405067  0.41666667  1
  Ca  Ca5  1  0.33333333  0.29928267  0.41666667  1
  Ca  Ca6  1  0.70071733  0.66666667  0.91666667  1
  Ca  Ca7  1  0.33333333  0.03405067  0.91666667  1
  Ca  Ca8  1  0.96594933  0.29928267  0.91666667  1
  Ca  Ca9  1  0.63261600  0.00000000  0.75000000  1
  Ca  Ca10  1  0.36738400  0.36738400  0.75000000  1
  Ca  Ca11  1  0.00000000  0.63261600  0.75000000  1
  Ca  Ca12  1  0.36738400  0.00000000  0.25000000  1
  Ca  Ca13  1  0.00000000  0.36738400  0.25000000  1
  Ca  Ca14  1  0.63261600  0.63261600  0.25000000  1
  Ca  Ca15  1  0.29928267  0.33333333  0.08333333  1
  Ca  Ca16  1  0.03405067  0.70071733  0.08333333  1
  Ca  Ca17  1  0.66666667  0.96594933  0.08333333  1
  Fe  Fe18  1  0.00000000  0.00000000  0.25000000  1
  Fe  Fe19  1  0.00000000  0.00000000  0.75000000  1
  Fe  Fe20  1  0.66666667  0.33333333  0.58333333  1
  Fe  Fe21  1  0.66666667  0.33333333  0.08333333  1
  Fe  Fe22  1  0.33333333  0.66666667  0.91666667  1
  Fe  Fe23  1  0.33333333  0.66666667  0.41666667  1
  Rh  Rh24  1  0.00000000  0.00000000  0.00000000  1
  Rh  Rh25  1  0.00000000  0.00000000  0.50000000  1
  Rh  Rh26  1  0.66666667  0.33333333  0.33333333  1
  Rh  Rh27  1  0.66666667  0.33333333  0.83333333  1
  Rh  Rh28  1  0.33333333  0.66666667  0.66666667  1
  Rh  Rh29  1  0.33333333  0.66666667  0.16666667  1
  O  O30  1  0.17833200  0.15811100  0.62135600  1
  O  O31  1  0.97977900  0.82166800  0.62135600  1
  O  O32  1  0.84188900  0.02022100  0.62135600  1
  O  O33  1  0.49144433  0.84499867  0.54531067  1
  O  O34  1  0.35355433  0.50855567  0.54531067  1
  O  O35  1  0.15500133  0.64644567  0.54531067  1
  O  O36  1  0.82166800  0.84188900  0.37864400  1
  O  O37  1  0.02022100  0.17833200  0.37864400  1
  O  O38  1  0.15811100  0.97977900  0.37864400  1
  O  O39  1  0.50855567  0.15500133  0.45468933  1
  O  O40  1  0.84499867  0.35355433  0.45468933  1
  O  O41  1  0.64644567  0.49144433  0.45468933  1
  O  O42  1  0.84499867  0.49144433  0.95468933  1
  O  O43  1  0.64644567  0.15500133  0.95468933  1
  O  O44  1  0.50855567  0.35355433  0.95468933  1
  O  O45  1  0.15811100  0.17833200  0.87864400  1
  O  O46  1  0.02022100  0.84188900  0.87864400  1
  O  O47  1  0.82166800  0.97977900  0.87864400  1
  O  O48  1  0.48833467  0.17522233  0.71197733  1
  O  O49  1  0.68688767  0.51166533  0.71197733  1
  O  O50  1  0.82477767  0.31311233  0.71197733  1
  O  O51  1  0.17522233  0.48833467  0.78802267  1
  O  O52  1  0.51166533  0.68688767  0.78802267  1
  O  O53  1  0.31311233  0.82477767  0.78802267  1
  O  O54  1  0.51166533  0.82477767  0.28802267  1
  O  O55  1  0.31311233  0.48833467  0.28802267  1
  O  O56  1  0.17522233  0.68688767  0.28802267  1
  O  O57  1  0.82477767  0.51166533  0.21197733  1
  O  O58  1  0.68688767  0.17522233  0.21197733  1
  O  O59  1  0.48833467  0.31311233  0.21197733  1
  O  O60  1  0.15500133  0.50855567  0.04531067  1
  O  O61  1  0.35355433  0.84499867  0.04531067  1
  O  O62  1  0.49144433  0.64644567  0.04531067  1
  O  O63  1  0.84188900  0.82166800  0.12135600  1
  O  O64  1  0.17833200  0.02022100  0.12135600  1
  O  O65  1  0.97977900  0.15811100  0.12135600  1
