# generated using pymatgen
data_Fe2O3
_symmetry_space_group_name_H-M   'P 1'
_cell_length_a   5.10485225
_cell_length_b   5.10485225
_cell_length_c   13.91329700
_cell_angle_alpha   90.00000000
_cell_angle_beta   90.00000000
_cell_angle_gamma   120.00000000
_symmetry_Int_Tables_number   1
_chemical_formula_structural   Fe2O3
_chemical_formula_sum   'Fe12 O18'
_cell_volume   313.99811467
_cell_formula_units_Z   6
loop_
 _symmetry_equiv_pos_site_id
 _symmetry_equiv_pos_as_xyz
  1  'x, y, z'
loop_
 _atom_site_type_symbol
 _atom_site_label
 _atom_site_symmetry_multiplicity
 _atom_site_fract_x
 _atom_site_fract_y
 _atom_site_fract_z
 _atom_site_occupancy
  Fe  Fe0  1  0.00000000  0.00000000  0.85417500  1
  Fe  Fe1  1  0.00000000  0.00000000  0.14582500  1
  Fe  Fe2  1  0.66666667  0.33333333  0.97915833  1
  Fe  Fe3  1  0.33333333  0.66666667  0.02084167  1
  Fe  Fe4  1  0.66666667  0.33333333  0.18750833  1
  Fe  Fe5  1  0.66666667  0.33333333  0.47915833  1
  Fe  Fe6  1  0.33333333  0.66666667  0.31249167  1
  Fe  Fe7  1  0.00000000  0.00000000  0.35417500  1
  Fe  Fe8  1  0.33333333  0.66666667  0.52084167  1
  Fe  Fe9  1  0.33333333  0.66666667  0.81249167  1
  Fe  Fe10  1  0.00000000  0.00000000  0.64582500  1
  Fe  Fe11  1  0.66666667  0.33333333  0.68750833  1
  O  O12  1  0.97154417  0.33333333  0.08333333  1
  O  O13  1  0.02845583  0.66666667  0.91666667  1
  O  O14  1  0.66666667  0.63821083  0.08333333  1
  O  O15  1  0.33333333  0.36178917  0.91666667  1
  O  O16  1  0.36178917  0.02845583  0.08333333  1
  O  O17  1  0.63821083  0.97154417  0.91666667  1
  O  O18  1  0.63821083  0.66666667  0.41666667  1
  O  O19  1  0.69512250  0.00000000  0.25000000  1
  O  O20  1  0.33333333  0.97154417  0.41666667  1
  O  O21  1  0.00000000  0.69512250  0.25000000  1
  O  O22  1  0.02845583  0.36178917  0.41666667  1
  O  O23  1  0.30487750  0.30487750  0.25000000  1
  O  O24  1  0.30487750  0.00000000  0.75000000  1
  O  O25  1  0.36178917  0.33333333  0.58333333  1
  O  O26  1  0.00000000  0.30487750  0.75000000  1
  O  O27  1  0.66666667  0.02845583  0.58333333  1
  O  O28  1  0.69512250  0.69512250  0.75000000  1
  O  O29  1  0.97154417  0.63821083  0.58333333  1
