# generated using pymatgen
data_Na3In2(PO4)3
_symmetry_space_group_name_H-M   'P 1'
_cell_length_a   12.62564000
_cell_length_b   12.97919000
_cell_length_c   6.70580566
_cell_angle_alpha   90.00000000
_cell_angle_beta   114.35948461
_cell_angle_gamma   90.00000000
_symmetry_Int_Tables_number   1
_chemical_formula_structural   Na3In2(PO4)3
_chemical_formula_sum   'Na12 In8 P12 O48'
_cell_volume   1001.05669851
_cell_formula_units_Z   4
loop_
 _symmetry_equiv_pos_site_id
 _symmetry_equiv_pos_as_xyz
  1  'x, y, z'
loop_
 _atom_site_type_symbol
 _atom_site_label
 _atom_site_symmetry_multiplicity
 _atom_site_fract_x
 _atom_site_fract_y
 _atom_site_fract_z
 _atom_site_occupancy
  Na  Na0  1  0.50000000  0.77524700  0.25000000  1
  Na  Na1  1  0.50000000  0.48322000  0.25000000  1
  Na  Na2  1  0.50000000  0.00000000  0.50000000  1
  Na  Na3  1  0.50000000  0.51678000  0.75000000  1
  Na  Na4  1  0.50000000  0.22475300  0.75000000  1
  Na  Na5  1  0.50000000  0.00000000  0.00000000  1
  Na  Na6  1  0.00000000  0.27524700  0.25000000  1
  Na  Na7  1  0.00000000  0.98322000  0.25000000  1
  Na  Na8  1  0.00000000  0.50000000  0.50000000  1
  Na  Na9  1  0.00000000  0.01678000  0.75000000  1
  Na  Na10  1  0.00000000  0.72475300  0.75000000  1
  Na  Na11  1  0.00000000  0.50000000  0.00000000  1
  In  In12  1  0.22747100  0.15638900  0.15420300  1
  In  In13  1  0.77252900  0.84361100  0.84579700  1
  In  In14  1  0.22747100  0.84361100  0.65420300  1
  In  In15  1  0.77252900  0.15638900  0.34579700  1
  In  In16  1  0.72747100  0.65638900  0.15420300  1
  In  In17  1  0.27252900  0.34361100  0.84579700  1
  In  In18  1  0.72747100  0.34361100  0.65420300  1
  In  In19  1  0.27252900  0.65638900  0.34579700  1
  P  P20  1  0.76048300  0.89839700  0.36664600  1
  P  P21  1  0.76048300  0.10160300  0.86664600  1
  P  P22  1  0.50000000  0.22546600  0.25000000  1
  P  P23  1  0.50000000  0.77453400  0.75000000  1
  P  P24  1  0.23951700  0.89839700  0.13335400  1
  P  P25  1  0.23951700  0.10160300  0.63335400  1
  P  P26  1  0.26048300  0.39839700  0.36664600  1
  P  P27  1  0.26048300  0.60160300  0.86664600  1
  P  P28  1  0.00000000  0.72546600  0.25000000  1
  P  P29  1  0.00000000  0.27453400  0.75000000  1
  P  P30  1  0.73951700  0.39839700  0.13335400  1
  P  P31  1  0.73951700  0.60160300  0.63335400  1
  O  O32  1  0.58878100  0.15116600  0.21837000  1
  O  O33  1  0.41121900  0.15116600  0.28163000  1
  O  O34  1  0.41121900  0.84883400  0.78163000  1
  O  O35  1  0.58878100  0.84883400  0.71837000  1
  O  O36  1  0.55082300  0.29574000  0.45569200  1
  O  O37  1  0.44917700  0.29574000  0.04430800  1
  O  O38  1  0.44917700  0.70426000  0.54430800  1
  O  O39  1  0.55082300  0.70426000  0.95569200  1
  O  O40  1  0.17197450  0.16183650  0.41577300  1
  O  O41  1  0.82802550  0.16183650  0.08422700  1
  O  O42  1  0.82802550  0.83816350  0.58422700  1
  O  O43  1  0.17197450  0.83816350  0.91577300  1
  O  O44  1  0.16586600  0.00171600  0.62018300  1
  O  O45  1  0.83413400  0.00171600  0.87981700  1
  O  O46  1  0.83413400  0.99828400  0.37981700  1
  O  O47  1  0.16586600  0.99828400  0.12018300  1
  O  O48  1  0.36442350  0.92248850  0.17235600  1
  O  O49  1  0.63557650  0.92248850  0.32764400  1
  O  O50  1  0.63557650  0.07751150  0.82764400  1
  O  O51  1  0.36442350  0.07751150  0.67235600  1
  O  O52  1  0.23556250  0.82928350  0.32445700  1
  O  O53  1  0.76443750  0.82928350  0.17554300  1
  O  O54  1  0.76443750  0.17071650  0.67554300  1
  O  O55  1  0.23556250  0.17071650  0.82445700  1
  O  O56  1  0.08878100  0.65116600  0.21837000  1
  O  O57  1  0.91121900  0.65116600  0.28163000  1
  O  O58  1  0.91121900  0.34883400  0.78163000  1
  O  O59  1  0.08878100  0.34883400  0.71837000  1
  O  O60  1  0.05082300  0.79574000  0.45569200  1
  O  O61  1  0.94917700  0.79574000  0.04430800  1
  O  O62  1  0.94917700  0.20426000  0.54430800  1
  O  O63  1  0.05082300  0.20426000  0.95569200  1
  O  O64  1  0.67197450  0.66183650  0.41577300  1
  O  O65  1  0.32802550  0.66183650  0.08422700  1
  O  O66  1  0.32802550  0.33816350  0.58422700  1
  O  O67  1  0.67197450  0.33816350  0.91577300  1
  O  O68  1  0.66586600  0.50171600  0.62018300  1
  O  O69  1  0.33413400  0.50171600  0.87981700  1
  O  O70  1  0.33413400  0.49828400  0.37981700  1
  O  O71  1  0.66586600  0.49828400  0.12018300  1
  O  O72  1  0.86442350  0.42248850  0.17235600  1
  O  O73  1  0.13557650  0.42248850  0.32764400  1
  O  O74  1  0.13557650  0.57751150  0.82764400  1
  O  O75  1  0.86442350  0.57751150  0.67235600  1
  O  O76  1  0.73556250  0.32928350  0.32445700  1
  O  O77  1  0.26443750  0.32928350  0.17554300  1
  O  O78  1  0.26443750  0.67071650  0.67554300  1
  O  O79  1  0.73556250  0.67071650  0.82445700  1
