# generated using pymatgen
data_Lu2Cu2O5
_symmetry_space_group_name_H-M   'P 1'
_cell_length_a   3.41841200
_cell_length_b   10.76567900
_cell_length_c   12.36820300
_cell_angle_alpha   90.00000000
_cell_angle_beta   90.00000000
_cell_angle_gamma   90.00000000
_symmetry_Int_Tables_number   1
_chemical_formula_structural   Lu2Cu2O5
_chemical_formula_sum   'Lu8 Cu8 O20'
_cell_volume   455.16874776
_cell_formula_units_Z   4
loop_
 _symmetry_equiv_pos_site_id
 _symmetry_equiv_pos_as_xyz
  1  'x, y, z'
loop_
 _atom_site_type_symbol
 _atom_site_label
 _atom_site_symmetry_multiplicity
 _atom_site_fract_x
 _atom_site_fract_y
 _atom_site_fract_z
 _atom_site_occupancy
  Lu  Lu0  1  0.27626500  0.54222400  0.83047100  1
  Lu  Lu1  1  0.72373500  0.45777600  0.33047100  1
  Lu  Lu2  1  0.22373500  0.04222400  0.83047100  1
  Lu  Lu3  1  0.77626500  0.95777600  0.33047100  1
  Lu  Lu4  1  0.27679700  0.70802200  0.50247300  1
  Lu  Lu5  1  0.72320300  0.29197800  0.00247300  1
  Lu  Lu6  1  0.22320300  0.20802200  0.50247300  1
  Lu  Lu7  1  0.77679700  0.79197800  0.00247300  1
  Cu  Cu8  1  0.84565500  0.76160500  0.72015800  1
  Cu  Cu9  1  0.15434500  0.23839500  0.22015800  1
  Cu  Cu10  1  0.65434500  0.26160500  0.72015800  1
  Cu  Cu11  1  0.34565500  0.73839500  0.22015800  1
  Cu  Cu12  1  0.84069900  0.48904900  0.61234100  1
  Cu  Cu13  1  0.15930100  0.51095100  0.11234100  1
  Cu  Cu14  1  0.65930100  0.98904900  0.61234100  1
  Cu  Cu15  1  0.34069900  0.01095100  0.11234100  1
  O  O16  1  0.27146100  0.92158400  0.97158600  1
  O  O17  1  0.72853900  0.07841600  0.47158600  1
  O  O18  1  0.22853900  0.42158400  0.97158600  1
  O  O19  1  0.77146100  0.57841600  0.47158600  1
  O  O20  1  0.72371600  0.93013900  0.76529500  1
  O  O21  1  0.27628400  0.06986100  0.26529500  1
  O  O22  1  0.77628400  0.43013900  0.76529500  1
  O  O23  1  0.22371600  0.56986100  0.26529500  1
  O  O24  1  0.17425000  0.62482000  0.66638200  1
  O  O25  1  0.82575000  0.37518000  0.16638200  1
  O  O26  1  0.32575000  0.12482000  0.66638200  1
  O  O27  1  0.67425000  0.87518000  0.16638200  1
  O  O28  1  0.78089700  0.82051800  0.56679400  1
  O  O29  1  0.21910300  0.17948200  0.06679400  1
  O  O30  1  0.71910300  0.32051800  0.56679400  1
  O  O31  1  0.28089700  0.67948200  0.06679400  1
  O  O32  1  0.27650000  0.82810500  0.36079900  1
  O  O33  1  0.72350000  0.17189500  0.86079900  1
  O  O34  1  0.22350000  0.32810500  0.36079900  1
  O  O35  1  0.77650000  0.67189500  0.86079900  1
