# generated using pymatgen
data_KAl(PO3)4
_symmetry_space_group_name_H-M   'P 1'
_cell_length_a   16.85159200
_cell_length_b   12.39009400
_cell_length_c   5.14431566
_cell_angle_alpha   90.00000000
_cell_angle_beta   100.45913281
_cell_angle_gamma   90.00000000
_symmetry_Int_Tables_number   1
_chemical_formula_structural   KAl(PO3)4
_chemical_formula_sum   'K4 Al4 P16 O48'
_cell_volume   1056.24962232
_cell_formula_units_Z   4
loop_
 _symmetry_equiv_pos_site_id
 _symmetry_equiv_pos_as_xyz
  1  'x, y, z'
loop_
 _atom_site_type_symbol
 _atom_site_label
 _atom_site_symmetry_multiplicity
 _atom_site_fract_x
 _atom_site_fract_y
 _atom_site_fract_z
 _atom_site_occupancy
  K  K0  1  0.40670300  0.00000000  0.25332200  1
  K  K1  1  0.59329700  0.00000000  0.74667800  1
  K  K2  1  0.90670300  0.50000000  0.25332200  1
  K  K3  1  0.09329700  0.50000000  0.74667800  1
  Al  Al4  1  0.25000000  0.25000000  0.00000000  1
  Al  Al5  1  0.25000000  0.75000000  0.00000000  1
  Al  Al6  1  0.75000000  0.75000000  0.00000000  1
  Al  Al7  1  0.75000000  0.25000000  0.00000000  1
  P  P8  1  0.19044600  0.12143500  0.46823300  1
  P  P9  1  0.19044600  0.87856500  0.46823300  1
  P  P10  1  0.80955400  0.87856500  0.53176700  1
  P  P11  1  0.80955400  0.12143500  0.53176700  1
  P  P12  1  0.57818100  0.77612700  0.16385400  1
  P  P13  1  0.57818100  0.22387300  0.16385400  1
  P  P14  1  0.42181900  0.22387300  0.83614600  1
  P  P15  1  0.42181900  0.77612700  0.83614600  1
  P  P16  1  0.69044600  0.62143500  0.46823300  1
  P  P17  1  0.69044600  0.37856500  0.46823300  1
  P  P18  1  0.30955400  0.37856500  0.53176700  1
  P  P19  1  0.30955400  0.62143500  0.53176700  1
  P  P20  1  0.07818100  0.27612700  0.16385400  1
  P  P21  1  0.07818100  0.72387300  0.16385400  1
  P  P22  1  0.92181900  0.72387300  0.83614600  1
  P  P23  1  0.92181900  0.27612700  0.83614600  1
  O  O24  1  0.78097350  0.86841050  0.23936500  1
  O  O25  1  0.78097350  0.13158950  0.23936500  1
  O  O26  1  0.21902650  0.13158950  0.76063500  1
  O  O27  1  0.21902650  0.86841050  0.76063500  1
  O  O28  1  0.64099400  0.78343700  0.98790800  1
  O  O29  1  0.64099400  0.21656300  0.98790800  1
  O  O30  1  0.35900600  0.21656300  0.01209200  1
  O  O31  1  0.35900600  0.78343700  0.01209200  1
  O  O32  1  0.24901300  0.15328700  0.29184800  1
  O  O33  1  0.24901300  0.84671300  0.29184800  1
  O  O34  1  0.75098700  0.84671300  0.70815200  1
  O  O35  1  0.75098700  0.15328700  0.70815200  1
  O  O36  1  0.60679150  0.68345350  0.38496400  1
  O  O37  1  0.60679150  0.31654650  0.38496400  1
  O  O38  1  0.39320850  0.31654650  0.61503600  1
  O  O39  1  0.39320850  0.68345350  0.61503600  1
  O  O40  1  0.55506750  0.87653450  0.28672500  1
  O  O41  1  0.55506750  0.12346550  0.28672500  1
  O  O42  1  0.44493250  0.12346550  0.71327500  1
  O  O43  1  0.44493250  0.87653450  0.71327500  1
  O  O44  1  0.50000000  0.71434200  0.00000000  1
  O  O45  1  0.50000000  0.28565800  0.00000000  1
  O  O46  1  0.16093900  0.00000000  0.40190200  1
  O  O47  1  0.83906100  0.00000000  0.59809800  1
  O  O48  1  0.28097350  0.36841050  0.23936500  1
  O  O49  1  0.28097350  0.63158950  0.23936500  1
  O  O50  1  0.71902650  0.63158950  0.76063500  1
  O  O51  1  0.71902650  0.36841050  0.76063500  1
  O  O52  1  0.14099400  0.28343700  0.98790800  1
  O  O53  1  0.14099400  0.71656300  0.98790800  1
  O  O54  1  0.85900600  0.71656300  0.01209200  1
  O  O55  1  0.85900600  0.28343700  0.01209200  1
  O  O56  1  0.74901300  0.65328700  0.29184800  1
  O  O57  1  0.74901300  0.34671300  0.29184800  1
  O  O58  1  0.25098700  0.34671300  0.70815200  1
  O  O59  1  0.25098700  0.65328700  0.70815200  1
  O  O60  1  0.10679150  0.18345350  0.38496400  1
  O  O61  1  0.10679150  0.81654650  0.38496400  1
  O  O62  1  0.89320850  0.81654650  0.61503600  1
  O  O63  1  0.89320850  0.18345350  0.61503600  1
  O  O64  1  0.05506750  0.37653450  0.28672500  1
  O  O65  1  0.05506750  0.62346550  0.28672500  1
  O  O66  1  0.94493250  0.62346550  0.71327500  1
  O  O67  1  0.94493250  0.37653450  0.71327500  1
  O  O68  1  0.00000000  0.21434200  0.00000000  1
  O  O69  1  0.00000000  0.78565800  0.00000000  1
  O  O70  1  0.66093900  0.50000000  0.40190200  1
  O  O71  1  0.33906100  0.50000000  0.59809800  1
