# generated using pymatgen
data_Y2Si2O7
_symmetry_space_group_name_H-M   'P 1'
_cell_length_a   5.09591200
_cell_length_b   8.22332200
_cell_length_c   13.84074400
_cell_angle_alpha   90.00000000
_cell_angle_beta   90.00000000
_cell_angle_gamma   90.00000000
_symmetry_Int_Tables_number   1
_chemical_formula_structural   Y2Si2O7
_chemical_formula_sum   'Y8 Si8 O28'
_cell_volume   580.00087916
_cell_formula_units_Z   4
loop_
 _symmetry_equiv_pos_site_id
 _symmetry_equiv_pos_as_xyz
  1  'x, y, z'
loop_
 _atom_site_type_symbol
 _atom_site_label
 _atom_site_symmetry_multiplicity
 _atom_site_fract_x
 _atom_site_fract_y
 _atom_site_fract_z
 _atom_site_occupancy
  Y  Y0  1  0.84194800  0.50940400  0.37431100  1
  Y  Y1  1  0.15805200  0.00940400  0.62568900  1
  Y  Y2  1  0.65805200  0.50940400  0.87431100  1
  Y  Y3  1  0.34194800  0.00940400  0.12568900  1
  Y  Y4  1  0.84194800  0.99059600  0.37431100  1
  Y  Y5  1  0.15805200  0.49059600  0.62568900  1
  Y  Y6  1  0.65805200  0.99059600  0.87431100  1
  Y  Y7  1  0.34194800  0.49059600  0.12568900  1
  Si  Si8  1  0.12562400  0.25000000  0.95994300  1
  Si  Si9  1  0.87437600  0.75000000  0.04005700  1
  Si  Si10  1  0.37437600  0.25000000  0.45994300  1
  Si  Si11  1  0.62562400  0.75000000  0.54005700  1
  Si  Si12  1  0.87937100  0.25000000  0.18111800  1
  Si  Si13  1  0.12062900  0.75000000  0.81888200  1
  Si  Si14  1  0.62062900  0.25000000  0.68111800  1
  Si  Si15  1  0.37937100  0.75000000  0.31888200  1
  O  O16  1  0.84961600  0.25000000  0.90032900  1
  O  O17  1  0.15038400  0.75000000  0.09967100  1
  O  O18  1  0.65038400  0.25000000  0.40032900  1
  O  O19  1  0.34961600  0.75000000  0.59967100  1
  O  O20  1  0.29317200  0.41840400  0.95291500  1
  O  O21  1  0.70682800  0.91840400  0.04708500  1
  O  O22  1  0.20682800  0.41840400  0.45291500  1
  O  O23  1  0.79317200  0.91840400  0.54708500  1
  O  O24  1  0.29317200  0.08159600  0.95291500  1
  O  O25  1  0.70682800  0.58159600  0.04708500  1
  O  O26  1  0.20682800  0.08159600  0.45291500  1
  O  O27  1  0.79317200  0.58159600  0.54708500  1
  O  O28  1  0.06445500  0.25000000  0.08032900  1
  O  O29  1  0.93554500  0.75000000  0.91967100  1
  O  O30  1  0.43554500  0.25000000  0.58032900  1
  O  O31  1  0.56445500  0.75000000  0.41967100  1
  O  O32  1  0.48935000  0.58558900  0.26727200  1
  O  O33  1  0.51065000  0.08558900  0.73272800  1
  O  O34  1  0.01065000  0.58558900  0.76727200  1
  O  O35  1  0.98935000  0.08558900  0.23272800  1
  O  O36  1  0.48935000  0.91441100  0.26727200  1
  O  O37  1  0.51065000  0.41441100  0.73272800  1
  O  O38  1  0.01065000  0.91441100  0.76727200  1
  O  O39  1  0.98935000  0.41441100  0.23272800  1
  O  O40  1  0.06891700  0.75000000  0.34509900  1
  O  O41  1  0.93108300  0.25000000  0.65490100  1
  O  O42  1  0.43108300  0.75000000  0.84509900  1
  O  O43  1  0.56891700  0.25000000  0.15490100  1
