# generated using pymatgen
data_CrCdO4
_symmetry_space_group_name_H-M   'P 1'
_cell_length_a   5.75113800
_cell_length_b   8.95016000
_cell_length_c   7.11341600
_cell_angle_alpha   90.00000000
_cell_angle_beta   90.00000000
_cell_angle_gamma   90.00000000
_symmetry_Int_Tables_number   1
_chemical_formula_structural   CrCdO4
_chemical_formula_sum   'Cr4 Cd4 O16'
_cell_volume   366.15316739
_cell_formula_units_Z   4
loop_
 _symmetry_equiv_pos_site_id
 _symmetry_equiv_pos_as_xyz
  1  'x, y, z'
loop_
 _atom_site_type_symbol
 _atom_site_label
 _atom_site_symmetry_multiplicity
 _atom_site_fract_x
 _atom_site_fract_y
 _atom_site_fract_z
 _atom_site_occupancy
  Cr  Cr0  1  0.50000000  0.85709300  0.25000000  1
  Cr  Cr1  1  0.50000000  0.14290700  0.75000000  1
  Cr  Cr2  1  0.00000000  0.35709300  0.25000000  1
  Cr  Cr3  1  0.00000000  0.64290700  0.75000000  1
  Cd  Cd4  1  0.00000000  0.00000000  0.50000000  1
  Cd  Cd5  1  0.00000000  0.00000000  0.00000000  1
  Cd  Cd6  1  0.50000000  0.50000000  0.50000000  1
  Cd  Cd7  1  0.50000000  0.50000000  0.00000000  1
  O  O8  1  0.74358800  0.03448200  0.75000000  1
  O  O9  1  0.25641200  0.96551800  0.25000000  1
  O  O10  1  0.74358800  0.96551800  0.25000000  1
  O  O11  1  0.25641200  0.03448200  0.75000000  1
  O  O12  1  0.50000000  0.24793200  0.93858800  1
  O  O13  1  0.50000000  0.75206800  0.43858800  1
  O  O14  1  0.50000000  0.75206800  0.06141200  1
  O  O15  1  0.50000000  0.24793200  0.56141200  1
  O  O16  1  0.24358800  0.53448200  0.75000000  1
  O  O17  1  0.75641200  0.46551800  0.25000000  1
  O  O18  1  0.24358800  0.46551800  0.25000000  1
  O  O19  1  0.75641200  0.53448200  0.75000000  1
  O  O20  1  0.00000000  0.74793200  0.93858800  1
  O  O21  1  0.00000000  0.25206800  0.43858800  1
  O  O22  1  0.00000000  0.25206800  0.06141200  1
  O  O23  1  0.00000000  0.74793200  0.56141200  1
