# generated using pymatgen
data_VP2O7
_symmetry_space_group_name_H-M   'P 1'
_cell_length_a   15.57577228
_cell_length_b   4.32741229
_cell_length_c   9.88247383
_cell_angle_alpha   90.00000000
_cell_angle_beta   127.49463379
_cell_angle_gamma   90.00000000
_symmetry_Int_Tables_number   1
_chemical_formula_structural   VP2O7
_chemical_formula_sum   'V4 P8 O28'
_cell_volume   528.49562832
_cell_formula_units_Z   4
loop_
 _symmetry_equiv_pos_site_id
 _symmetry_equiv_pos_as_xyz
  1  'x, y, z'
loop_
 _atom_site_type_symbol
 _atom_site_label
 _atom_site_symmetry_multiplicity
 _atom_site_fract_x
 _atom_site_fract_y
 _atom_site_fract_z
 _atom_site_occupancy
  V  V0  1  0.00000000  0.26516431  0.25000000  1
  V  V1  1  0.00000000  0.73483569  0.75000000  1
  V  V2  1  0.50000000  0.76516431  0.25000000  1
  V  V3  1  0.50000000  0.23483569  0.75000000  1
  P  P4  1  0.82893705  0.50428815  0.84381971  1
  P  P5  1  0.67106295  0.00428815  0.65618029  1
  P  P6  1  0.17106295  0.49571185  0.15618029  1
  P  P7  1  0.32893705  0.99571185  0.34381971  1
  P  P8  1  0.32893705  0.00428815  0.84381971  1
  P  P9  1  0.17106295  0.50428815  0.65618029  1
  P  P10  1  0.67106295  0.99571185  0.15618029  1
  P  P11  1  0.82893705  0.49571185  0.34381971  1
  O  O12  1  0.00000000  0.88811706  0.25000000  1
  O  O13  1  0.00000000  0.11188294  0.75000000  1
  O  O14  1  0.86961227  0.36024708  0.01105648  1
  O  O15  1  0.13038773  0.36024708  0.48894352  1
  O  O16  1  0.13038773  0.63975292  0.98894352  1
  O  O17  1  0.86961227  0.63975292  0.51105648  1
  O  O18  1  0.40714530  0.85148814  0.32291214  1
  O  O19  1  0.09285470  0.35148814  0.17708786  1
  O  O20  1  0.59285470  0.14851186  0.67708786  1
  O  O21  1  0.90714530  0.64851186  0.82291214  1
  O  O22  1  0.74062356  0.75506925  0.80644233  1
  O  O23  1  0.25937644  0.24493075  0.19355767  1
  O  O24  1  0.75937644  0.25506925  0.69355767  1
  O  O25  1  0.24062356  0.74493075  0.30644233  1
  O  O26  1  0.50000000  0.38811706  0.25000000  1
  O  O27  1  0.50000000  0.61188294  0.75000000  1
  O  O28  1  0.36961227  0.86024708  0.01105648  1
  O  O29  1  0.63038773  0.86024708  0.48894352  1
  O  O30  1  0.63038773  0.13975292  0.98894352  1
  O  O31  1  0.36961227  0.13975292  0.51105648  1
  O  O32  1  0.90714530  0.35148814  0.32291214  1
  O  O33  1  0.59285470  0.85148814  0.17708786  1
  O  O34  1  0.09285470  0.64851186  0.67708786  1
  O  O35  1  0.40714530  0.14851186  0.82291214  1
  O  O36  1  0.24062356  0.25506925  0.80644233  1
  O  O37  1  0.75937644  0.74493075  0.19355767  1
  O  O38  1  0.25937644  0.75506925  0.69355767  1
  O  O39  1  0.74062356  0.24493075  0.30644233  1
