# generated using pymatgen
data_Ca(ScS2)2
_symmetry_space_group_name_H-M   'P 1'
_cell_length_a   3.74398800
_cell_length_b   11.56776300
_cell_length_c   13.53231500
_cell_angle_alpha   90.00000000
_cell_angle_beta   90.00000000
_cell_angle_gamma   90.00000000
_symmetry_Int_Tables_number   1
_chemical_formula_structural   Ca(ScS2)2
_chemical_formula_sum   'Ca4 Sc8 S16'
_cell_volume   586.07868772
_cell_formula_units_Z   4
loop_
 _symmetry_equiv_pos_site_id
 _symmetry_equiv_pos_as_xyz
  1  'x, y, z'
loop_
 _atom_site_type_symbol
 _atom_site_label
 _atom_site_symmetry_multiplicity
 _atom_site_fract_x
 _atom_site_fract_y
 _atom_site_fract_z
 _atom_site_occupancy
  Ca  Ca0  1  0.75000000  0.76019000  0.33296300  1
  Ca  Ca1  1  0.25000000  0.23981000  0.66703700  1
  Ca  Ca2  1  0.75000000  0.26019000  0.16703700  1
  Ca  Ca3  1  0.25000000  0.73981000  0.83296300  1
  Sc  Sc4  1  0.25000000  0.08531400  0.40331200  1
  Sc  Sc5  1  0.75000000  0.91468600  0.59668800  1
  Sc  Sc6  1  0.25000000  0.58531400  0.09668800  1
  Sc  Sc7  1  0.75000000  0.41468600  0.90331200  1
  Sc  Sc8  1  0.75000000  0.44234000  0.38805700  1
  Sc  Sc9  1  0.25000000  0.55766000  0.61194300  1
  Sc  Sc10  1  0.75000000  0.94234000  0.11194300  1
  Sc  Sc11  1  0.25000000  0.05766000  0.88805700  1
  S  S12  1  0.25000000  0.09141200  0.07500200  1
  S  S13  1  0.75000000  0.90858800  0.92499800  1
  S  S14  1  0.25000000  0.59141200  0.42499800  1
  S  S15  1  0.75000000  0.40858800  0.57500200  1
  S  S16  1  0.25000000  0.96706800  0.71504000  1
  S  S17  1  0.75000000  0.03293200  0.28496000  1
  S  S18  1  0.25000000  0.46706800  0.78496000  1
  S  S19  1  0.75000000  0.53293200  0.21504000  1
  S  S20  1  0.25000000  0.37424500  0.03288000  1
  S  S21  1  0.75000000  0.62575500  0.96712000  1
  S  S22  1  0.25000000  0.87424500  0.46712000  1
  S  S23  1  0.75000000  0.12575500  0.53288000  1
  S  S24  1  0.75000000  0.20218100  0.83071200  1
  S  S25  1  0.25000000  0.79781900  0.16928800  1
  S  S26  1  0.75000000  0.70218100  0.66928800  1
  S  S27  1  0.25000000  0.29781900  0.33071200  1
