# generated using pymatgen
data_K3UF7
_symmetry_space_group_name_H-M   'P 1'
_cell_length_a   9.38505000
_cell_length_b   9.38505000
_cell_length_c   18.46445600
_cell_angle_alpha   90.00000000
_cell_angle_beta   90.00000000
_cell_angle_gamma   90.00000000
_symmetry_Int_Tables_number   1
_chemical_formula_structural   K3UF7
_chemical_formula_sum   'K24 U8 F56'
_cell_volume   1626.33383901
_cell_formula_units_Z   8
loop_
 _symmetry_equiv_pos_site_id
 _symmetry_equiv_pos_as_xyz
  1  'x, y, z'
loop_
 _atom_site_type_symbol
 _atom_site_label
 _atom_site_symmetry_multiplicity
 _atom_site_fract_x
 _atom_site_fract_y
 _atom_site_fract_z
 _atom_site_occupancy
  K  K0  1  0.00000000  0.50000000  0.25000000  1
  K  K1  1  0.00000000  0.00000000  0.00000000  1
  K  K2  1  0.50000000  0.00000000  0.25000000  1
  K  K3  1  0.50000000  0.50000000  0.00000000  1
  K  K4  1  0.76199800  0.28141000  0.38580100  1
  K  K5  1  0.78141000  0.23800200  0.13580100  1
  K  K6  1  0.21859000  0.76199800  0.13580100  1
  K  K7  1  0.23800200  0.71859000  0.38580100  1
  K  K8  1  0.73800200  0.71859000  0.36419900  1
  K  K9  1  0.21859000  0.26199800  0.11419900  1
  K  K10  1  0.78141000  0.73800200  0.11419900  1
  K  K11  1  0.26199800  0.28141000  0.36419900  1
  K  K12  1  0.50000000  0.00000000  0.75000000  1
  K  K13  1  0.50000000  0.50000000  0.50000000  1
  K  K14  1  0.00000000  0.50000000  0.75000000  1
  K  K15  1  0.00000000  0.00000000  0.50000000  1
  K  K16  1  0.26199800  0.78141000  0.88580100  1
  K  K17  1  0.28141000  0.73800200  0.63580100  1
  K  K18  1  0.71859000  0.26199800  0.63580100  1
  K  K19  1  0.73800200  0.21859000  0.88580100  1
  K  K20  1  0.23800200  0.21859000  0.86419900  1
  K  K21  1  0.71859000  0.76199800  0.61419900  1
  K  K22  1  0.28141000  0.23800200  0.61419900  1
  K  K23  1  0.76199800  0.78141000  0.86419900  1
  U  U24  1  0.50000000  0.00000000  0.48157000  1
  U  U25  1  0.50000000  0.50000000  0.23157000  1
  U  U26  1  0.00000000  0.00000000  0.26843000  1
  U  U27  1  0.50000000  0.00000000  0.01843000  1
  U  U28  1  0.00000000  0.50000000  0.98157000  1
  U  U29  1  0.00000000  0.00000000  0.73157000  1
  U  U30  1  0.50000000  0.50000000  0.76843000  1
  U  U31  1  0.00000000  0.50000000  0.51843000  1
  F  F32  1  0.22206050  0.93244950  0.26979150  1
  F  F33  1  0.43244950  0.77793950  0.01979150  1
  F  F34  1  0.56755050  0.22206050  0.01979150  1
  F  F35  1  0.77793950  0.06755050  0.26979150  1
  F  F36  1  0.27793950  0.06755050  0.48020850  1
  F  F37  1  0.56755050  0.72206050  0.23020850  1
  F  F38  1  0.43244950  0.27793950  0.23020850  1
  F  F39  1  0.72206050  0.93244950  0.48020850  1
  F  F40  1  0.06235500  0.72542900  0.01888600  1
  F  F41  1  0.72542900  0.43764500  0.26888600  1
  F  F42  1  0.27457100  0.56235500  0.26888600  1
  F  F43  1  0.93764500  0.27457100  0.01888600  1
  F  F44  1  0.93764500  0.77457100  0.23111400  1
  F  F45  1  0.77457100  0.56235500  0.48111400  1
  F  F46  1  0.22542900  0.43764500  0.48111400  1
  F  F47  1  0.06235500  0.22542900  0.23111400  1
  F  F48  1  0.00000000  0.50000000  0.10521900  1
  F  F49  1  0.50000000  0.50000000  0.35521900  1
  F  F50  1  0.00000000  0.00000000  0.14478100  1
  F  F51  1  0.00000000  0.50000000  0.39478100  1
  F  F52  1  0.01559850  0.14140350  0.36725050  1
  F  F53  1  0.64140350  0.98440150  0.11725050  1
  F  F54  1  0.35859650  0.01559850  0.11725050  1
  F  F55  1  0.98440150  0.85859650  0.36725050  1
  F  F56  1  0.48440150  0.85859650  0.38274950  1
  F  F57  1  0.35859650  0.51559850  0.13274950  1
  F  F58  1  0.64140350  0.48440150  0.13274950  1
  F  F59  1  0.51559850  0.14140350  0.38274950  1
  F  F60  1  0.72206050  0.43244950  0.76979150  1
  F  F61  1  0.93244950  0.27793950  0.51979150  1
  F  F62  1  0.06755050  0.72206050  0.51979150  1
  F  F63  1  0.27793950  0.56755050  0.76979150  1
  F  F64  1  0.77793950  0.56755050  0.98020850  1
  F  F65  1  0.06755050  0.22206050  0.73020850  1
  F  F66  1  0.93244950  0.77793950  0.73020850  1
  F  F67  1  0.22206050  0.43244950  0.98020850  1
  F  F68  1  0.56235500  0.22542900  0.51888600  1
  F  F69  1  0.22542900  0.93764500  0.76888600  1
  F  F70  1  0.77457100  0.06235500  0.76888600  1
  F  F71  1  0.43764500  0.77457100  0.51888600  1
  F  F72  1  0.43764500  0.27457100  0.73111400  1
  F  F73  1  0.27457100  0.06235500  0.98111400  1
  F  F74  1  0.72542900  0.93764500  0.98111400  1
  F  F75  1  0.56235500  0.72542900  0.73111400  1
  F  F76  1  0.50000000  0.00000000  0.60521900  1
  F  F77  1  0.00000000  0.00000000  0.85521900  1
  F  F78  1  0.50000000  0.50000000  0.64478100  1
  F  F79  1  0.50000000  0.00000000  0.89478100  1
  F  F80  1  0.51559850  0.64140350  0.86725050  1
  F  F81  1  0.14140350  0.48440150  0.61725050  1
  F  F82  1  0.85859650  0.51559850  0.61725050  1
  F  F83  1  0.48440150  0.35859650  0.86725050  1
  F  F84  1  0.98440150  0.35859650  0.88274950  1
  F  F85  1  0.85859650  0.01559850  0.63274950  1
  F  F86  1  0.14140350  0.98440150  0.63274950  1
  F  F87  1  0.01559850  0.64140350  0.88274950  1
