# generated using pymatgen
data_Ti4Mn(PO4)6
_symmetry_space_group_name_H-M   'P 1'
_cell_length_a   8.64966447
_cell_length_b   8.64966447
_cell_length_c   21.32374786
_cell_angle_alpha   90.00000000
_cell_angle_beta   90.00000000
_cell_angle_gamma   120.00000000
_symmetry_Int_Tables_number   1
_chemical_formula_structural   Ti4Mn(PO4)6
_chemical_formula_sum   'Ti12 Mn3 P18 O72'
_cell_volume   1381.63298451
_cell_formula_units_Z   3
loop_
 _symmetry_equiv_pos_site_id
 _symmetry_equiv_pos_as_xyz
  1  'x, y, z'
loop_
 _atom_site_type_symbol
 _atom_site_label
 _atom_site_symmetry_multiplicity
 _atom_site_fract_x
 _atom_site_fract_y
 _atom_site_fract_z
 _atom_site_occupancy
  Ti  Ti0  1  0.00000000  0.00000000  0.14761400  1
  Ti  Ti1  1  0.66666667  0.33333333  0.18571933  1
  Ti  Ti2  1  0.33333333  0.66666667  0.03228967  1
  Ti  Ti3  1  0.33333333  0.66666667  0.30104367  1
  Ti  Ti4  1  0.66666667  0.33333333  0.48094733  1
  Ti  Ti5  1  0.33333333  0.66666667  0.51905267  1
  Ti  Ti6  1  0.00000000  0.00000000  0.36562300  1
  Ti  Ti7  1  0.00000000  0.00000000  0.63437700  1
  Ti  Ti8  1  0.33333333  0.66666667  0.81428067  1
  Ti  Ti9  1  0.00000000  0.00000000  0.85238600  1
  Ti  Ti10  1  0.66666667  0.33333333  0.69895633  1
  Ti  Ti11  1  0.66666667  0.33333333  0.96771033  1
  Mn  Mn12  1  0.00000000  0.00000000  0.00000000  1
  Mn  Mn13  1  0.66666667  0.33333333  0.33333333  1
  Mn  Mn14  1  0.33333333  0.66666667  0.66666667  1
  P  P15  1  0.29039400  0.28239400  0.25359200  1
  P  P16  1  0.99200000  0.70960600  0.25359200  1
  P  P17  1  0.71760600  0.00800000  0.25359200  1
  P  P18  1  0.37627267  0.05093933  0.07974133  1
  P  P19  1  0.67466667  0.62372733  0.07974133  1
  P  P20  1  0.94906067  0.32533333  0.07974133  1
  P  P21  1  0.95706067  0.61572733  0.58692533  1
  P  P22  1  0.65866667  0.04293933  0.58692533  1
  P  P23  1  0.38427267  0.34133333  0.58692533  1
  P  P24  1  0.04293933  0.38427267  0.41307467  1
  P  P25  1  0.34133333  0.95706067  0.41307467  1
  P  P26  1  0.61572733  0.65866667  0.41307467  1
  P  P27  1  0.62372733  0.94906067  0.92025867  1
  P  P28  1  0.32533333  0.37627267  0.92025867  1
  P  P29  1  0.05093933  0.67466667  0.92025867  1
  P  P30  1  0.70960600  0.71760600  0.74640800  1
  P  P31  1  0.00800000  0.29039400  0.74640800  1
  P  P32  1  0.28239400  0.99200000  0.74640800  1
  O  O33  1  0.97500000  0.80347800  0.31130100  1
  O  O34  1  0.82847800  0.02500000  0.31130100  1
  O  O35  1  0.19652200  0.17152200  0.31130100  1
  O  O36  1  0.69166667  0.52985533  0.02203233  1
  O  O37  1  0.83818867  0.30833333  0.02203233  1
  O  O38  1  0.47014467  0.16181133  0.02203233  1
  O  O39  1  0.18838067  0.18354533  0.19289433  1
  O  O40  1  0.99516467  0.81161933  0.19289433  1
  O  O41  1  0.81645467  0.00483533  0.19289433  1
  O  O42  1  0.47828600  0.14978800  0.14043900  1
  O  O43  1  0.67150200  0.52171400  0.14043900  1
  O  O44  1  0.85021200  0.32849800  0.14043900  1
  O  O45  1  0.50332333  0.63524567  0.08069067  1
  O  O46  1  0.13192233  0.49667667  0.08069067  1
  O  O47  1  0.36475433  0.86807767  0.08069067  1
  O  O48  1  0.16334333  0.69808767  0.25264267  1
  O  O49  1  0.53474433  0.83665667  0.25264267  1
  O  O50  1  0.30191233  0.46525567  0.25264267  1
  O  O51  1  0.18405733  0.02385867  0.08041367  1
  O  O52  1  0.83980133  0.81594267  0.08041367  1
  O  O53  1  0.97614133  0.16019867  0.08041367  1
  O  O54  1  0.48260933  0.30947467  0.25291967  1
  O  O55  1  0.82686533  0.51739067  0.25291967  1
  O  O56  1  0.69052533  0.17313467  0.25291967  1
  O  O57  1  0.64166667  0.13681133  0.64463433  1
  O  O58  1  0.49514467  0.35833333  0.64463433  1
  O  O59  1  0.86318867  0.50485533  0.64463433  1
  O  O60  1  0.35833333  0.86318867  0.35536567  1
  O  O61  1  0.50485533  0.64166667  0.35536567  1
  O  O62  1  0.13681133  0.49514467  0.35536567  1
  O  O63  1  0.85504733  0.51687867  0.52622767  1
  O  O64  1  0.66183133  0.14495267  0.52622767  1
  O  O65  1  0.48312133  0.33816867  0.52622767  1
  O  O66  1  0.14495267  0.48312133  0.47377233  1
  O  O67  1  0.33816867  0.85504733  0.47377233  1
  O  O68  1  0.51687867  0.66183133  0.47377233  1
  O  O69  1  0.16999000  0.96857900  0.41402400  1
  O  O70  1  0.79858900  0.83001000  0.41402400  1
  O  O71  1  0.03142100  0.20141100  0.41402400  1
  O  O72  1  0.83001000  0.03142100  0.58597600  1
  O  O73  1  0.20141100  0.16999000  0.58597600  1
  O  O74  1  0.96857900  0.79858900  0.58597600  1
  O  O75  1  0.85072400  0.35719200  0.41374700  1
  O  O76  1  0.50646800  0.14927600  0.41374700  1
  O  O77  1  0.64280800  0.49353200  0.41374700  1
  O  O78  1  0.14927600  0.64280800  0.58625300  1
  O  O79  1  0.49353200  0.85072400  0.58625300  1
  O  O80  1  0.35719200  0.50646800  0.58625300  1
  O  O81  1  0.30833333  0.47014467  0.97796767  1
  O  O82  1  0.16181133  0.69166667  0.97796767  1
  O  O83  1  0.52985533  0.83818867  0.97796767  1
  O  O84  1  0.02500000  0.19652200  0.68869900  1
  O  O85  1  0.17152200  0.97500000  0.68869900  1
  O  O86  1  0.80347800  0.82847800  0.68869900  1
  O  O87  1  0.52171400  0.85021200  0.85956100  1
  O  O88  1  0.32849800  0.47828600  0.85956100  1
  O  O89  1  0.14978800  0.67150200  0.85956100  1
  O  O90  1  0.81161933  0.81645467  0.80710567  1
  O  O91  1  0.00483533  0.18838067  0.80710567  1
  O  O92  1  0.18354533  0.99516467  0.80710567  1
  O  O93  1  0.83665667  0.30191233  0.74735733  1
  O  O94  1  0.46525567  0.16334333  0.74735733  1
  O  O95  1  0.69808767  0.53474433  0.74735733  1
  O  O96  1  0.49667667  0.36475433  0.91930933  1
  O  O97  1  0.86807767  0.50332333  0.91930933  1
  O  O98  1  0.63524567  0.13192233  0.91930933  1
  O  O99  1  0.51739067  0.69052533  0.74708033  1
  O  O100  1  0.17313467  0.48260933  0.74708033  1
  O  O101  1  0.30947467  0.82686533  0.74708033  1
  O  O102  1  0.81594267  0.97614133  0.91958633  1
  O  O103  1  0.16019867  0.18405733  0.91958633  1
  O  O104  1  0.02385867  0.83980133  0.91958633  1
