# generated using pymatgen
data_Mn2V2O7
_symmetry_space_group_name_H-M   'P 1'
_cell_length_a   6.53905524
_cell_length_b   8.98513131
_cell_length_c   5.10109225
_cell_angle_alpha   90.00000000
_cell_angle_beta   102.11559268
_cell_angle_gamma   90.00000000
_symmetry_Int_Tables_number   1
_chemical_formula_structural   Mn2V2O7
_chemical_formula_sum   'Mn4 V4 O14'
_cell_volume   293.03523530
_cell_formula_units_Z   2
loop_
 _symmetry_equiv_pos_site_id
 _symmetry_equiv_pos_as_xyz
  1  'x, y, z'
loop_
 _atom_site_type_symbol
 _atom_site_label
 _atom_site_symmetry_multiplicity
 _atom_site_fract_x
 _atom_site_fract_y
 _atom_site_fract_z
 _atom_site_occupancy
  Mn  Mn0  1  0.50000000  0.31271300  0.00000000  1
  Mn  Mn1  1  0.50000000  0.68728700  0.00000000  1
  Mn  Mn2  1  0.00000000  0.81271300  0.00000000  1
  Mn  Mn3  1  0.00000000  0.18728700  0.00000000  1
  V  V4  1  0.74489000  0.00000000  0.39628200  1
  V  V5  1  0.25511000  0.00000000  0.60371800  1
  V  V6  1  0.24489000  0.50000000  0.39628200  1
  V  V7  1  0.75511000  0.50000000  0.60371800  1
  O  O8  1  0.50000000  0.00000000  0.50000000  1
  O  O9  1  0.91952800  0.00000000  0.71693800  1
  O  O10  1  0.08047200  0.00000000  0.28306200  1
  O  O11  1  0.72971700  0.16207700  0.20651300  1
  O  O12  1  0.27028300  0.16207700  0.79348700  1
  O  O13  1  0.27028300  0.83792300  0.79348700  1
  O  O14  1  0.72971700  0.83792300  0.20651300  1
  O  O15  1  0.00000000  0.50000000  0.50000000  1
  O  O16  1  0.41952800  0.50000000  0.71693800  1
  O  O17  1  0.58047200  0.50000000  0.28306200  1
  O  O18  1  0.22971700  0.66207700  0.20651300  1
  O  O19  1  0.77028300  0.66207700  0.79348700  1
  O  O20  1  0.77028300  0.33792300  0.79348700  1
  O  O21  1  0.22971700  0.33792300  0.20651300  1
