# generated using pymatgen
data_MnTeMoO6
_symmetry_space_group_name_H-M   'P 1'
_cell_length_a   5.18147400
_cell_length_b   5.40478400
_cell_length_c   9.35468200
_cell_angle_alpha   90.00000000
_cell_angle_beta   90.00000000
_cell_angle_gamma   90.00000000
_symmetry_Int_Tables_number   1
_chemical_formula_structural   MnTeMoO6
_chemical_formula_sum   'Mn2 Te2 Mo2 O12'
_cell_volume   261.97550989
_cell_formula_units_Z   2
loop_
 _symmetry_equiv_pos_site_id
 _symmetry_equiv_pos_as_xyz
  1  'x, y, z'
loop_
 _atom_site_type_symbol
 _atom_site_label
 _atom_site_symmetry_multiplicity
 _atom_site_fract_x
 _atom_site_fract_y
 _atom_site_fract_z
 _atom_site_occupancy
  Mn  Mn0  1  0.50000000  0.50000000  0.52658800  1
  Mn  Mn1  1  0.00000000  0.00000000  0.47341200  1
  Te  Te2  1  0.00000000  0.50000000  0.25689600  1
  Te  Te3  1  0.50000000  0.00000000  0.74310400  1
  Mo  Mo4  1  0.50000000  0.00000000  0.19394100  1
  Mo  Mo5  1  0.00000000  0.50000000  0.80605900  1
  O  O6  1  0.71335400  0.17219800  0.60867400  1
  O  O7  1  0.21335400  0.32780200  0.39132600  1
  O  O8  1  0.78664600  0.67219800  0.39132600  1
  O  O9  1  0.28664600  0.82780200  0.60867400  1
  O  O10  1  0.75467700  0.18425500  0.29366700  1
  O  O11  1  0.25467700  0.31574500  0.70633300  1
  O  O12  1  0.24532300  0.81574500  0.29366700  1
  O  O13  1  0.74532300  0.68425500  0.70633300  1
  O  O14  1  0.16022100  0.70596900  0.91779600  1
  O  O15  1  0.66022100  0.79403100  0.08220400  1
  O  O16  1  0.33977900  0.20596900  0.08220400  1
  O  O17  1  0.83977900  0.29403100  0.91779600  1
