# generated using pymatgen
data_NiSeO4
_symmetry_space_group_name_H-M   'P 1'
_cell_length_a   5.47570200
_cell_length_b   8.27419800
_cell_length_c   6.37780900
_cell_angle_alpha   90.00000000
_cell_angle_beta   90.00000000
_cell_angle_gamma   90.00000000
_symmetry_Int_Tables_number   1
_chemical_formula_structural   NiSeO4
_chemical_formula_sum   'Ni4 Se4 O16'
_cell_volume   288.95966366
_cell_formula_units_Z   4
loop_
 _symmetry_equiv_pos_site_id
 _symmetry_equiv_pos_as_xyz
  1  'x, y, z'
loop_
 _atom_site_type_symbol
 _atom_site_label
 _atom_site_symmetry_multiplicity
 _atom_site_fract_x
 _atom_site_fract_y
 _atom_site_fract_z
 _atom_site_occupancy
  Ni  Ni0  1  0.00000000  0.00000000  0.00000000  1
  Ni  Ni1  1  0.00000000  0.00000000  0.50000000  1
  Ni  Ni2  1  0.50000000  0.50000000  0.00000000  1
  Ni  Ni3  1  0.50000000  0.50000000  0.50000000  1
  Se  Se4  1  0.50000000  0.15161300  0.75000000  1
  Se  Se5  1  0.50000000  0.84838700  0.25000000  1
  Se  Se6  1  0.00000000  0.65161300  0.75000000  1
  Se  Se7  1  0.00000000  0.34838700  0.25000000  1
  O  O8  1  0.24985550  0.02441950  0.75000000  1
  O  O9  1  0.75014450  0.97558050  0.25000000  1
  O  O10  1  0.24985550  0.97558050  0.25000000  1
  O  O11  1  0.75014450  0.02441950  0.75000000  1
  O  O12  1  0.50000000  0.25804900  0.97076800  1
  O  O13  1  0.50000000  0.74195100  0.47076800  1
  O  O14  1  0.50000000  0.74195100  0.02923200  1
  O  O15  1  0.50000000  0.25804900  0.52923200  1
  O  O16  1  0.74985550  0.52441950  0.75000000  1
  O  O17  1  0.25014450  0.47558050  0.25000000  1
  O  O18  1  0.74985550  0.47558050  0.25000000  1
  O  O19  1  0.25014450  0.52441950  0.75000000  1
  O  O20  1  0.00000000  0.75804900  0.97076800  1
  O  O21  1  0.00000000  0.24195100  0.47076800  1
  O  O22  1  0.00000000  0.24195100  0.02923200  1
  O  O23  1  0.00000000  0.75804900  0.52923200  1
