# generated using pymatgen
data_FeAsO4
_symmetry_space_group_name_H-M   'P 1'
_cell_length_a   6.63167400
_cell_length_b   10.98226800
_cell_length_c   13.73853200
_cell_angle_alpha   90.00000000
_cell_angle_beta   90.00000000
_cell_angle_gamma   90.00000000
_symmetry_Int_Tables_number   1
_chemical_formula_structural   FeAsO4
_chemical_formula_sum   'Fe12 As12 O48'
_cell_volume   1000.58856705
_cell_formula_units_Z   12
loop_
 _symmetry_equiv_pos_site_id
 _symmetry_equiv_pos_as_xyz
  1  'x, y, z'
loop_
 _atom_site_type_symbol
 _atom_site_label
 _atom_site_symmetry_multiplicity
 _atom_site_fract_x
 _atom_site_fract_y
 _atom_site_fract_z
 _atom_site_occupancy
  Fe  Fe0  1  0.50000000  0.00000000  0.00000000  1
  Fe  Fe1  1  0.00000000  0.50000000  0.00000000  1
  Fe  Fe2  1  0.75000000  0.25000000  0.86403900  1
  Fe  Fe3  1  0.25000000  0.25000000  0.13596100  1
  Fe  Fe4  1  0.25000000  0.75000000  0.13596100  1
  Fe  Fe5  1  0.75000000  0.75000000  0.86403900  1
  Fe  Fe6  1  0.00000000  0.50000000  0.50000000  1
  Fe  Fe7  1  0.50000000  0.00000000  0.50000000  1
  Fe  Fe8  1  0.25000000  0.75000000  0.36403900  1
  Fe  Fe9  1  0.75000000  0.75000000  0.63596100  1
  Fe  Fe10  1  0.75000000  0.25000000  0.63596100  1
  Fe  Fe11  1  0.25000000  0.25000000  0.36403900  1
  As  As12  1  0.07079200  0.50000000  0.25000000  1
  As  As13  1  0.92920800  0.50000000  0.75000000  1
  As  As14  1  0.25000000  0.25000000  0.92673800  1
  As  As15  1  0.75000000  0.25000000  0.07326200  1
  As  As16  1  0.75000000  0.75000000  0.07326200  1
  As  As17  1  0.25000000  0.75000000  0.92673800  1
  As  As18  1  0.57079200  0.00000000  0.75000000  1
  As  As19  1  0.42920800  0.00000000  0.25000000  1
  As  As20  1  0.75000000  0.75000000  0.42673800  1
  As  As21  1  0.25000000  0.75000000  0.57326200  1
  As  As22  1  0.25000000  0.25000000  0.57326200  1
  As  As23  1  0.75000000  0.25000000  0.42673800  1
  O  O24  1  0.22670450  0.62829350  0.25000000  1
  O  O25  1  0.22670450  0.37170650  0.25000000  1
  O  O26  1  0.77329550  0.62829350  0.75000000  1
  O  O27  1  0.77329550  0.37170650  0.75000000  1
  O  O28  1  0.93802300  0.50000000  0.35587300  1
  O  O29  1  0.93802300  0.50000000  0.14412700  1
  O  O30  1  0.06197700  0.50000000  0.64412700  1
  O  O31  1  0.06197700  0.50000000  0.85587300  1
  O  O32  1  0.54414550  0.71797450  0.14053750  1
  O  O33  1  0.04414550  0.78202550  0.85946250  1
  O  O34  1  0.45585450  0.71797450  0.85946250  1
  O  O35  1  0.95585450  0.78202550  0.14053750  1
  O  O36  1  0.79017150  0.36419150  0.98403950  1
  O  O37  1  0.29017150  0.13580850  0.01596050  1
  O  O38  1  0.20982850  0.36419150  0.01596050  1
  O  O39  1  0.70982850  0.13580850  0.98403950  1
  O  O40  1  0.20982850  0.63580850  0.01596050  1
  O  O41  1  0.70982850  0.86419150  0.98403950  1
  O  O42  1  0.79017150  0.63580850  0.98403950  1
  O  O43  1  0.29017150  0.86419150  0.01596050  1
  O  O44  1  0.04414550  0.21797450  0.85946250  1
  O  O45  1  0.54414550  0.28202550  0.14053750  1
  O  O46  1  0.95585450  0.21797450  0.14053750  1
  O  O47  1  0.45585450  0.28202550  0.85946250  1
  O  O48  1  0.72670450  0.12829350  0.75000000  1
  O  O49  1  0.72670450  0.87170650  0.75000000  1
  O  O50  1  0.27329550  0.12829350  0.25000000  1
  O  O51  1  0.27329550  0.87170650  0.25000000  1
  O  O52  1  0.43802300  0.00000000  0.85587300  1
  O  O53  1  0.43802300  0.00000000  0.64412700  1
  O  O54  1  0.56197700  0.00000000  0.14412700  1
  O  O55  1  0.56197700  0.00000000  0.35587300  1
  O  O56  1  0.04414550  0.21797450  0.64053750  1
  O  O57  1  0.54414550  0.28202550  0.35946250  1
  O  O58  1  0.95585450  0.21797450  0.35946250  1
  O  O59  1  0.45585450  0.28202550  0.64053750  1
  O  O60  1  0.29017150  0.86419150  0.48403950  1
  O  O61  1  0.79017150  0.63580850  0.51596050  1
  O  O62  1  0.70982850  0.86419150  0.51596050  1
  O  O63  1  0.20982850  0.63580850  0.48403950  1
  O  O64  1  0.70982850  0.13580850  0.51596050  1
  O  O65  1  0.20982850  0.36419150  0.48403950  1
  O  O66  1  0.29017150  0.13580850  0.48403950  1
  O  O67  1  0.79017150  0.36419150  0.51596050  1
  O  O68  1  0.54414550  0.71797450  0.35946250  1
  O  O69  1  0.04414550  0.78202550  0.64053750  1
  O  O70  1  0.45585450  0.71797450  0.64053750  1
  O  O71  1  0.95585450  0.78202550  0.35946250  1
