# generated using pymatgen
data_ZrC
_symmetry_space_group_name_H-M   'P 1'
_cell_length_a   5.10615200
_cell_length_b   5.10615200
_cell_length_c   5.10615200
_cell_angle_alpha   90.00000000
_cell_angle_beta   90.00000000
_cell_angle_gamma   90.00000000
_symmetry_Int_Tables_number   1
_chemical_formula_structural   ZrC
_chemical_formula_sum   'Zr4 C4'
_cell_volume   133.13161985
_cell_formula_units_Z   4
loop_
 _symmetry_equiv_pos_site_id
 _symmetry_equiv_pos_as_xyz
  1  'x, y, z'
loop_
 _atom_site_type_symbol
 _atom_site_label
 _atom_site_symmetry_multiplicity
 _atom_site_fract_x
 _atom_site_fract_y
 _atom_site_fract_z
 _atom_site_occupancy
  Zr  Zr0  1  0.00000000  0.00000000  0.00000000  1
  Zr  Zr1  1  0.00000000  0.50000000  0.50000000  1
  Zr  Zr2  1  0.50000000  0.00000000  0.50000000  1
  Zr  Zr3  1  0.50000000  0.50000000  0.00000000  1
  C  C4  1  0.25000000  0.25000000  0.75000000  1
  C  C5  1  0.25000000  0.75000000  0.25000000  1
  C  C6  1  0.75000000  0.25000000  0.25000000  1
  C  C7  1  0.75000000  0.75000000  0.75000000  1
