# generated using pymatgen
data_Cu8SiSe6
_symmetry_space_group_name_H-M   'P 1'
_cell_length_a   7.20177500
_cell_length_b   7.30674500
_cell_length_c   10.21774400
_cell_angle_alpha   90.00000000
_cell_angle_beta   90.00000000
_cell_angle_gamma   90.00000000
_symmetry_Int_Tables_number   1
_chemical_formula_structural   Cu8SiSe6
_chemical_formula_sum   'Cu16 Si2 Se12'
_cell_volume   537.67335791
_cell_formula_units_Z   2
loop_
 _symmetry_equiv_pos_site_id
 _symmetry_equiv_pos_as_xyz
  1  'x, y, z'
loop_
 _atom_site_type_symbol
 _atom_site_label
 _atom_site_symmetry_multiplicity
 _atom_site_fract_x
 _atom_site_fract_y
 _atom_site_fract_z
 _atom_site_occupancy
  Cu  Cu0  1  0.15855100  0.30628600  0.34412200  1
  Cu  Cu1  1  0.73212600  0.50000000  0.03491100  1
  Cu  Cu2  1  0.26787400  0.00000000  0.53491100  1
  Cu  Cu3  1  0.59365600  0.50000000  0.46544100  1
  Cu  Cu4  1  0.40634400  0.00000000  0.96544100  1
  Cu  Cu5  1  0.84144900  0.19371400  0.84412200  1
  Cu  Cu6  1  0.51788500  0.68772400  0.25149000  1
  Cu  Cu7  1  0.15855100  0.69371400  0.34412200  1
  Cu  Cu8  1  0.84144900  0.80628600  0.84412200  1
  Cu  Cu9  1  0.89444600  0.21462000  0.15616500  1
  Cu  Cu10  1  0.10555400  0.28538000  0.65616500  1
  Cu  Cu11  1  0.10555400  0.71462000  0.65616500  1
  Cu  Cu12  1  0.48211500  0.81227600  0.75149000  1
  Cu  Cu13  1  0.51788500  0.31227600  0.25149000  1
  Cu  Cu14  1  0.48211500  0.18772400  0.75149000  1
  Cu  Cu15  1  0.89444600  0.78538000  0.15616500  1
  Si  Si16  1  0.74822800  0.00000000  0.49203500  1
  Si  Si17  1  0.25177200  0.50000000  0.99203500  1
  Se  Se18  1  0.24852000  0.76114700  0.11250300  1
  Se  Se19  1  0.26600500  0.50000000  0.51409800  1
  Se  Se20  1  0.73399500  0.00000000  0.01409800  1
  Se  Se21  1  0.79942000  0.50000000  0.26816400  1
  Se  Se22  1  0.20058000  0.00000000  0.76816400  1
  Se  Se23  1  0.50375600  0.50000000  0.86102800  1
  Se  Se24  1  0.49624400  0.00000000  0.36102800  1
  Se  Se25  1  0.99531200  0.50000000  0.86076400  1
  Se  Se26  1  0.00468800  0.00000000  0.36076400  1
  Se  Se27  1  0.24852000  0.23885300  0.11250300  1
  Se  Se28  1  0.75148000  0.26114700  0.61250300  1
  Se  Se29  1  0.75148000  0.73885300  0.61250300  1
