# generated using pymatgen
data_Ca2MnO4
_symmetry_space_group_name_H-M   'P 1'
_cell_length_a   5.25116500
_cell_length_b   5.25116500
_cell_length_c   24.40634803
_cell_angle_alpha   90.00000000
_cell_angle_beta   90.00000000
_cell_angle_gamma   90.00000000
_symmetry_Int_Tables_number   1
_chemical_formula_structural   Ca2MnO4
_chemical_formula_sum   'Ca16 Mn8 O32'
_cell_volume   672.99855251
_cell_formula_units_Z   8
loop_
 _symmetry_equiv_pos_site_id
 _symmetry_equiv_pos_as_xyz
  1  'x, y, z'
loop_
 _atom_site_type_symbol
 _atom_site_label
 _atom_site_symmetry_multiplicity
 _atom_site_fract_x
 _atom_site_fract_y
 _atom_site_fract_z
 _atom_site_occupancy
  Ca  Ca0  1  0.50000000  0.50000000  0.17548400  1
  Ca  Ca1  1  0.50000000  0.50000000  0.32451600  1
  Ca  Ca2  1  0.00000000  0.00000000  0.32451600  1
  Ca  Ca3  1  0.00000000  0.00000000  0.17548400  1
  Ca  Ca4  1  0.50000000  0.00000000  0.42548400  1
  Ca  Ca5  1  0.50000000  0.00000000  0.57451600  1
  Ca  Ca6  1  0.00000000  0.50000000  0.57451600  1
  Ca  Ca7  1  0.00000000  0.50000000  0.42548400  1
  Ca  Ca8  1  0.00000000  0.00000000  0.67548400  1
  Ca  Ca9  1  0.00000000  0.00000000  0.82451600  1
  Ca  Ca10  1  0.50000000  0.50000000  0.82451600  1
  Ca  Ca11  1  0.50000000  0.50000000  0.67548400  1
  Ca  Ca12  1  0.00000000  0.50000000  0.92548400  1
  Ca  Ca13  1  0.00000000  0.50000000  0.07451600  1
  Ca  Ca14  1  0.50000000  0.00000000  0.07451600  1
  Ca  Ca15  1  0.50000000  0.00000000  0.92548400  1
  Mn  Mn16  1  0.50000000  0.50000000  0.50000000  1
  Mn  Mn17  1  0.00000000  0.50000000  0.25000000  1
  Mn  Mn18  1  0.00000000  0.00000000  0.50000000  1
  Mn  Mn19  1  0.50000000  0.00000000  0.25000000  1
  Mn  Mn20  1  0.00000000  0.00000000  0.00000000  1
  Mn  Mn21  1  0.50000000  0.00000000  0.75000000  1
  Mn  Mn22  1  0.50000000  0.50000000  0.00000000  1
  Mn  Mn23  1  0.00000000  0.50000000  0.75000000  1
  O  O24  1  0.00000000  0.00000000  0.58079750  1
  O  O25  1  0.50000000  0.50000000  0.41920250  1
  O  O26  1  0.00000000  0.00000000  0.41920250  1
  O  O27  1  0.50000000  0.50000000  0.58079750  1
  O  O28  1  0.50000000  0.00000000  0.33079750  1
  O  O29  1  0.00000000  0.50000000  0.16920250  1
  O  O30  1  0.50000000  0.00000000  0.16920250  1
  O  O31  1  0.00000000  0.50000000  0.33079750  1
  O  O32  1  0.20203750  0.20203750  0.25000000  1
  O  O33  1  0.79796250  0.79796250  0.25000000  1
  O  O34  1  0.70203750  0.29796250  0.25000000  1
  O  O35  1  0.29796250  0.70203750  0.25000000  1
  O  O36  1  0.79796250  0.70203750  0.50000000  1
  O  O37  1  0.20203750  0.29796250  0.50000000  1
  O  O38  1  0.29796250  0.79796250  0.50000000  1
  O  O39  1  0.70203750  0.20203750  0.50000000  1
  O  O40  1  0.50000000  0.50000000  0.08079750  1
  O  O41  1  0.00000000  0.00000000  0.91920250  1
  O  O42  1  0.50000000  0.50000000  0.91920250  1
  O  O43  1  0.00000000  0.00000000  0.08079750  1
  O  O44  1  0.00000000  0.50000000  0.83079750  1
  O  O45  1  0.50000000  0.00000000  0.66920250  1
  O  O46  1  0.00000000  0.50000000  0.66920250  1
  O  O47  1  0.50000000  0.00000000  0.83079750  1
  O  O48  1  0.70203750  0.70203750  0.75000000  1
  O  O49  1  0.29796250  0.29796250  0.75000000  1
  O  O50  1  0.20203750  0.79796250  0.75000000  1
  O  O51  1  0.79796250  0.20203750  0.75000000  1
  O  O52  1  0.29796250  0.20203750  0.00000000  1
  O  O53  1  0.70203750  0.79796250  0.00000000  1
  O  O54  1  0.79796250  0.29796250  0.00000000  1
  O  O55  1  0.20203750  0.70203750  0.00000000  1
