# generated using pymatgen
data_Na5Y(WO4)4
_symmetry_space_group_name_H-M   'P 1'
_cell_length_a   11.67154200
_cell_length_b   11.67154200
_cell_length_c   11.41897400
_cell_angle_alpha   90.00000000
_cell_angle_beta   90.00000000
_cell_angle_gamma   90.00000000
_symmetry_Int_Tables_number   1
_chemical_formula_structural   Na5Y(WO4)4
_chemical_formula_sum   'Na20 Y4 W16 O64'
_cell_volume   1555.54850741
_cell_formula_units_Z   4
loop_
 _symmetry_equiv_pos_site_id
 _symmetry_equiv_pos_as_xyz
  1  'x, y, z'
loop_
 _atom_site_type_symbol
 _atom_site_label
 _atom_site_symmetry_multiplicity
 _atom_site_fract_x
 _atom_site_fract_y
 _atom_site_fract_z
 _atom_site_occupancy
  Na  Na0  1  0.79446350  0.38058950  0.96986350  1
  Na  Na1  1  0.88058950  0.20553650  0.21986350  1
  Na  Na2  1  0.61941050  0.29446350  0.71986350  1
  Na  Na3  1  0.70553650  0.11941050  0.46986350  1
  Na  Na4  1  0.70553650  0.61941050  0.28013650  1
  Na  Na5  1  0.50000000  0.00000000  0.75000000  1
  Na  Na6  1  0.38058950  0.20553650  0.03013650  1
  Na  Na7  1  0.79446350  0.88058950  0.78013650  1
  Na  Na8  1  0.00000000  0.00000000  0.50000000  1
  Na  Na9  1  0.11941050  0.29446350  0.53013650  1
  Na  Na10  1  0.29446350  0.88058950  0.46986350  1
  Na  Na11  1  0.38058950  0.70553650  0.71986350  1
  Na  Na12  1  0.11941050  0.79446350  0.21986350  1
  Na  Na13  1  0.20553650  0.61941050  0.96986350  1
  Na  Na14  1  0.20553650  0.11941050  0.78013650  1
  Na  Na15  1  0.00000000  0.50000000  0.25000000  1
  Na  Na16  1  0.88058950  0.70553650  0.53013650  1
  Na  Na17  1  0.29446350  0.38058950  0.28013650  1
  Na  Na18  1  0.50000000  0.50000000  0.00000000  1
  Na  Na19  1  0.61941050  0.79446350  0.03013650  1
  Y  Y20  1  0.50000000  0.00000000  0.25000000  1
  Y  Y21  1  0.50000000  0.50000000  0.50000000  1
  Y  Y22  1  0.00000000  0.50000000  0.75000000  1
  Y  Y23  1  0.00000000  0.00000000  0.00000000  1
  W  W24  1  0.59245150  0.31624950  0.23959850  1
  W  W25  1  0.68375050  0.09245150  0.98959850  1
  W  W26  1  0.81624950  0.40754850  0.48959850  1
  W  W27  1  0.90754850  0.18375050  0.73959850  1
  W  W28  1  0.09245150  0.31624950  0.01040150  1
  W  W29  1  0.31624950  0.40754850  0.76040150  1
  W  W30  1  0.18375050  0.09245150  0.26040150  1
  W  W31  1  0.40754850  0.18375050  0.51040150  1
  W  W32  1  0.09245150  0.81624950  0.73959850  1
  W  W33  1  0.18375050  0.59245150  0.48959850  1
  W  W34  1  0.31624950  0.90754850  0.98959850  1
  W  W35  1  0.40754850  0.68375050  0.23959850  1
  W  W36  1  0.59245150  0.81624950  0.51040150  1
  W  W37  1  0.81624950  0.90754850  0.26040150  1
  W  W38  1  0.68375050  0.59245150  0.76040150  1
  W  W39  1  0.90754850  0.68375050  0.01040150  1
  O  O40  1  0.52977850  0.14801250  0.60174450  1
  O  O41  1  0.14801250  0.97022150  0.35174450  1
  O  O42  1  0.85198750  0.02977850  0.35174450  1
  O  O43  1  0.97022150  0.35198750  0.10174450  1
  O  O44  1  0.97022150  0.85198750  0.64825550  1
  O  O45  1  0.85198750  0.52977850  0.39825550  1
  O  O46  1  0.64801250  0.97022150  0.89825550  1
  O  O47  1  0.02977850  0.14801250  0.64825550  1
  O  O48  1  0.57963600  0.17706700  0.31710900  1
  O  O49  1  0.67706700  0.42036400  0.56710900  1
  O  O50  1  0.32293300  0.57963600  0.56710900  1
  O  O51  1  0.92036400  0.32293300  0.81710900  1
  O  O52  1  0.42036400  0.32293300  0.43289100  1
  O  O53  1  0.32293300  0.07963600  0.18289100  1
  O  O54  1  0.17706700  0.42036400  0.68289100  1
  O  O55  1  0.57963600  0.67706700  0.43289100  1
  O  O56  1  0.88632350  0.56080050  0.91279150  1
  O  O57  1  0.06080050  0.11367650  0.16279150  1
  O  O58  1  0.43919950  0.38632350  0.66279150  1
  O  O59  1  0.61367650  0.93919950  0.41279150  1
  O  O60  1  0.78459400  0.18383600  0.64487900  1
  O  O61  1  0.68383600  0.21540600  0.89487900  1
  O  O62  1  0.81616400  0.28459400  0.39487900  1
  O  O63  1  0.71540600  0.31616400  0.14487900  1
  O  O64  1  0.71540600  0.81616400  0.60512100  1
  O  O65  1  0.31616400  0.28459400  0.85512100  1
  O  O66  1  0.18383600  0.21540600  0.35512100  1
  O  O67  1  0.78459400  0.68383600  0.10512100  1
  O  O68  1  0.88632350  0.06080050  0.83720850  1
  O  O69  1  0.56080050  0.11367650  0.08720850  1
  O  O70  1  0.93919950  0.38632350  0.58720850  1
  O  O71  1  0.61367650  0.43919950  0.33720850  1
  O  O72  1  0.02977850  0.64801250  0.10174450  1
  O  O73  1  0.64801250  0.47022150  0.85174450  1
  O  O74  1  0.35198750  0.52977850  0.85174450  1
  O  O75  1  0.47022150  0.85198750  0.60174450  1
  O  O76  1  0.47022150  0.35198750  0.14825550  1
  O  O77  1  0.35198750  0.02977850  0.89825550  1
  O  O78  1  0.14801250  0.47022150  0.39825550  1
  O  O79  1  0.52977850  0.64801250  0.14825550  1
  O  O80  1  0.07963600  0.67706700  0.81710900  1
  O  O81  1  0.17706700  0.92036400  0.06710900  1
  O  O82  1  0.82293300  0.07963600  0.06710900  1
  O  O83  1  0.42036400  0.82293300  0.31710900  1
  O  O84  1  0.92036400  0.82293300  0.93289100  1
  O  O85  1  0.82293300  0.57963600  0.68289100  1
  O  O86  1  0.67706700  0.92036400  0.18289100  1
  O  O87  1  0.07963600  0.17706700  0.93289100  1
  O  O88  1  0.38632350  0.06080050  0.41279150  1
  O  O89  1  0.56080050  0.61367650  0.66279150  1
  O  O90  1  0.93919950  0.88632350  0.16279150  1
  O  O91  1  0.11367650  0.43919950  0.91279150  1
  O  O92  1  0.28459400  0.68383600  0.14487900  1
  O  O93  1  0.18383600  0.71540600  0.39487900  1
  O  O94  1  0.31616400  0.78459400  0.89487900  1
  O  O95  1  0.21540600  0.81616400  0.64487900  1
  O  O96  1  0.21540600  0.31616400  0.10512100  1
  O  O97  1  0.81616400  0.78459400  0.35512100  1
  O  O98  1  0.68383600  0.71540600  0.85512100  1
  O  O99  1  0.28459400  0.18383600  0.60512100  1
  O  O100  1  0.38632350  0.56080050  0.33720850  1
  O  O101  1  0.06080050  0.61367650  0.58720850  1
  O  O102  1  0.43919950  0.88632350  0.08720850  1
  O  O103  1  0.11367650  0.93919950  0.83720850  1
