# generated using pymatgen
data_CaAl2O4
_symmetry_space_group_name_H-M   'P 1'
_cell_length_a   2.89957600
_cell_length_b   9.00017900
_cell_length_c   10.41070200
_cell_angle_alpha   90.00000000
_cell_angle_beta   90.00000000
_cell_angle_gamma   90.00000000
_symmetry_Int_Tables_number   1
_chemical_formula_structural   CaAl2O4
_chemical_formula_sum   'Ca4 Al8 O16'
_cell_volume   271.68499837
_cell_formula_units_Z   4
loop_
 _symmetry_equiv_pos_site_id
 _symmetry_equiv_pos_as_xyz
  1  'x, y, z'
loop_
 _atom_site_type_symbol
 _atom_site_label
 _atom_site_symmetry_multiplicity
 _atom_site_fract_x
 _atom_site_fract_y
 _atom_site_fract_z
 _atom_site_occupancy
  Ca  Ca0  1  0.25000000  0.74224400  0.84458600  1
  Ca  Ca1  1  0.75000000  0.25775600  0.15541400  1
  Ca  Ca2  1  0.25000000  0.24224400  0.65541400  1
  Ca  Ca3  1  0.75000000  0.75775600  0.34458600  1
  Al  Al4  1  0.25000000  0.08127800  0.39706700  1
  Al  Al5  1  0.75000000  0.91872200  0.60293300  1
  Al  Al6  1  0.25000000  0.58127800  0.10293300  1
  Al  Al7  1  0.75000000  0.41872200  0.89706700  1
  Al  Al8  1  0.25000000  0.06181200  0.88900700  1
  Al  Al9  1  0.75000000  0.93818800  0.11099300  1
  Al  Al10  1  0.25000000  0.56181200  0.61099300  1
  Al  Al11  1  0.75000000  0.43818800  0.38900700  1
  O  O12  1  0.25000000  0.07734500  0.07186600  1
  O  O13  1  0.75000000  0.92265500  0.92813400  1
  O  O14  1  0.25000000  0.57734500  0.42813400  1
  O  O15  1  0.75000000  0.42265500  0.57186600  1
  O  O16  1  0.25000000  0.97360100  0.71546800  1
  O  O17  1  0.75000000  0.02639900  0.28453200  1
  O  O18  1  0.25000000  0.47360100  0.78453200  1
  O  O19  1  0.75000000  0.52639900  0.21546800  1
  O  O20  1  0.25000000  0.38573000  0.01963300  1
  O  O21  1  0.75000000  0.61427000  0.98036700  1
  O  O22  1  0.25000000  0.88573000  0.48036700  1
  O  O23  1  0.75000000  0.11427000  0.51963300  1
  O  O24  1  0.75000000  0.20319100  0.84621000  1
  O  O25  1  0.25000000  0.79680900  0.15379000  1
  O  O26  1  0.75000000  0.70319100  0.65379000  1
  O  O27  1  0.25000000  0.29680900  0.34621000  1
