# generated using pymatgen
data_Ba3P4
_symmetry_space_group_name_H-M   'P 1'
_cell_length_a   6.23987200
_cell_length_b   15.01977200
_cell_length_c   18.42477000
_cell_angle_alpha   90.00000000
_cell_angle_beta   90.00000000
_cell_angle_gamma   90.00000000
_symmetry_Int_Tables_number   1
_chemical_formula_structural   Ba3P4
_chemical_formula_sum   'Ba24 P32'
_cell_volume   1726.79624782
_cell_formula_units_Z   8
loop_
 _symmetry_equiv_pos_site_id
 _symmetry_equiv_pos_as_xyz
  1  'x, y, z'
loop_
 _atom_site_type_symbol
 _atom_site_label
 _atom_site_symmetry_multiplicity
 _atom_site_fract_x
 _atom_site_fract_y
 _atom_site_fract_z
 _atom_site_occupancy
  Ba  Ba0  1  0.75555850  0.49543950  0.66858700  1
  Ba  Ba1  1  0.75555850  0.00456050  0.83141300  1
  Ba  Ba2  1  0.50555850  0.25456050  0.91858700  1
  Ba  Ba3  1  0.50555850  0.24543950  0.58141300  1
  Ba  Ba4  1  0.00361900  0.25000000  0.75000000  1
  Ba  Ba5  1  0.75361900  0.00000000  0.50000000  1
  Ba  Ba6  1  0.25555850  0.49543950  0.16858700  1
  Ba  Ba7  1  0.25555850  0.00456050  0.33141300  1
  Ba  Ba8  1  0.00555850  0.25456050  0.41858700  1
  Ba  Ba9  1  0.00555850  0.24543950  0.08141300  1
  Ba  Ba10  1  0.50361900  0.25000000  0.25000000  1
  Ba  Ba11  1  0.25361900  0.00000000  0.00000000  1
  Ba  Ba12  1  0.25555850  0.99543950  0.66858700  1
  Ba  Ba13  1  0.25555850  0.50456050  0.83141300  1
  Ba  Ba14  1  0.00555850  0.75456050  0.91858700  1
  Ba  Ba15  1  0.00555850  0.74543950  0.58141300  1
  Ba  Ba16  1  0.50361900  0.75000000  0.75000000  1
  Ba  Ba17  1  0.25361900  0.50000000  0.50000000  1
  Ba  Ba18  1  0.75555850  0.99543950  0.16858700  1
  Ba  Ba19  1  0.75555850  0.50456050  0.33141300  1
  Ba  Ba20  1  0.50555850  0.75456050  0.41858700  1
  Ba  Ba21  1  0.50555850  0.74543950  0.08141300  1
  Ba  Ba22  1  0.00361900  0.75000000  0.25000000  1
  Ba  Ba23  1  0.75361900  0.50000000  0.00000000  1
  P  P24  1  0.49482250  0.32775000  0.74695750  1
  P  P25  1  0.49482250  0.17225000  0.75304250  1
  P  P26  1  0.24482250  0.42225000  0.99695750  1
  P  P27  1  0.24482250  0.07775000  0.50304250  1
  P  P28  1  0.27149000  0.09683000  0.82582700  1
  P  P29  1  0.27149000  0.40317000  0.67417300  1
  P  P30  1  0.02149000  0.34683000  0.92417300  1
  P  P31  1  0.02149000  0.15317000  0.57582700  1
  P  P32  1  0.99482250  0.32775000  0.24695750  1
  P  P33  1  0.99482250  0.17225000  0.25304250  1
  P  P34  1  0.74482250  0.42225000  0.49695750  1
  P  P35  1  0.74482250  0.07775000  0.00304250  1
  P  P36  1  0.77149000  0.09683000  0.32582700  1
  P  P37  1  0.77149000  0.40317000  0.17417300  1
  P  P38  1  0.52149000  0.34683000  0.42417300  1
  P  P39  1  0.52149000  0.15317000  0.07582700  1
  P  P40  1  0.99482250  0.82775000  0.74695750  1
  P  P41  1  0.99482250  0.67225000  0.75304250  1
  P  P42  1  0.74482250  0.92225000  0.99695750  1
  P  P43  1  0.74482250  0.57775000  0.50304250  1
  P  P44  1  0.77149000  0.59683000  0.82582700  1
  P  P45  1  0.77149000  0.90317000  0.67417300  1
  P  P46  1  0.52149000  0.84683000  0.92417300  1
  P  P47  1  0.52149000  0.65317000  0.57582700  1
  P  P48  1  0.49482250  0.82775000  0.24695750  1
  P  P49  1  0.49482250  0.67225000  0.25304250  1
  P  P50  1  0.24482250  0.92225000  0.49695750  1
  P  P51  1  0.24482250  0.57775000  0.00304250  1
  P  P52  1  0.27149000  0.59683000  0.32582700  1
  P  P53  1  0.27149000  0.90317000  0.17417300  1
  P  P54  1  0.02149000  0.84683000  0.42417300  1
  P  P55  1  0.02149000  0.65317000  0.07582700  1
