# generated using pymatgen
data_LaVO4
_symmetry_space_group_name_H-M   'P 1'
_cell_length_a   7.53603600
_cell_length_b   7.53603600
_cell_length_c   6.59947000
_cell_angle_alpha   90.00000000
_cell_angle_beta   90.00000000
_cell_angle_gamma   90.00000000
_symmetry_Int_Tables_number   1
_chemical_formula_structural   LaVO4
_chemical_formula_sum   'La4 V4 O16'
_cell_volume   374.79603504
_cell_formula_units_Z   4
loop_
 _symmetry_equiv_pos_site_id
 _symmetry_equiv_pos_as_xyz
  1  'x, y, z'
loop_
 _atom_site_type_symbol
 _atom_site_label
 _atom_site_symmetry_multiplicity
 _atom_site_fract_x
 _atom_site_fract_y
 _atom_site_fract_z
 _atom_site_occupancy
  La  La0  1  0.50000000  0.00000000  0.25000000  1
  La  La1  1  0.50000000  0.50000000  0.50000000  1
  La  La2  1  0.00000000  0.50000000  0.75000000  1
  La  La3  1  0.00000000  0.00000000  0.00000000  1
  V  V4  1  0.00000000  0.00000000  0.50000000  1
  V  V5  1  0.50000000  0.00000000  0.75000000  1
  V  V6  1  0.50000000  0.50000000  0.00000000  1
  V  V7  1  0.00000000  0.50000000  0.25000000  1
  O  O8  1  0.50000000  0.17800800  0.58098100  1
  O  O9  1  0.82199200  0.00000000  0.33098100  1
  O  O10  1  0.17800800  0.00000000  0.33098100  1
  O  O11  1  0.00000000  0.32199200  0.08098100  1
  O  O12  1  0.67800800  0.00000000  0.91901900  1
  O  O13  1  0.00000000  0.82199200  0.66901900  1
  O  O14  1  0.00000000  0.17800800  0.66901900  1
  O  O15  1  0.82199200  0.50000000  0.41901900  1
  O  O16  1  0.00000000  0.67800800  0.08098100  1
  O  O17  1  0.32199200  0.50000000  0.83098100  1
  O  O18  1  0.67800800  0.50000000  0.83098100  1
  O  O19  1  0.50000000  0.82199200  0.58098100  1
  O  O20  1  0.17800800  0.50000000  0.41901900  1
  O  O21  1  0.50000000  0.32199200  0.16901900  1
  O  O22  1  0.50000000  0.67800800  0.16901900  1
  O  O23  1  0.32199200  0.00000000  0.91901900  1
