# generated using pymatgen
data_Cd4SiSe6
_symmetry_space_group_name_H-M   'P 1'
_cell_length_a   13.14231000
_cell_length_b   7.54078400
_cell_length_c   13.13906206
_cell_angle_alpha   90.00000000
_cell_angle_beta   110.25725807
_cell_angle_gamma   90.00000000
_symmetry_Int_Tables_number   1
_chemical_formula_structural   Cd4SiSe6
_chemical_formula_sum   'Cd16 Si4 Se24'
_cell_volume   1221.58499534
_cell_formula_units_Z   4
loop_
 _symmetry_equiv_pos_site_id
 _symmetry_equiv_pos_as_xyz
  1  'x, y, z'
loop_
 _atom_site_type_symbol
 _atom_site_label
 _atom_site_symmetry_multiplicity
 _atom_site_fract_x
 _atom_site_fract_y
 _atom_site_fract_z
 _atom_site_occupancy
  Cd  Cd0  1  0.52461900  0.20155500  0.30916700  1
  Cd  Cd1  1  0.52461900  0.79844500  0.80916700  1
  Cd  Cd2  1  0.15790450  0.06975050  0.15277900  1
  Cd  Cd3  1  0.65790450  0.43024950  0.65277900  1
  Cd  Cd4  1  0.83828600  0.60645700  0.95816200  1
  Cd  Cd5  1  0.33828600  0.89354300  0.45816200  1
  Cd  Cd6  1  0.31557350  0.60475250  0.14607600  1
  Cd  Cd7  1  0.81557350  0.89524750  0.64607600  1
  Cd  Cd8  1  0.02461900  0.70155500  0.30916700  1
  Cd  Cd9  1  0.02461900  0.29844500  0.80916700  1
  Cd  Cd10  1  0.65790450  0.56975050  0.15277900  1
  Cd  Cd11  1  0.15790450  0.93024950  0.65277900  1
  Cd  Cd12  1  0.33828600  0.10645700  0.95816200  1
  Cd  Cd13  1  0.83828600  0.39354300  0.45816200  1
  Cd  Cd14  1  0.81557350  0.10475250  0.14607600  1
  Cd  Cd15  1  0.31557350  0.39524750  0.64607600  1
  Si  Si16  1  0.58889100  0.72921600  0.39576500  1
  Si  Si17  1  0.58889100  0.27078400  0.89576500  1
  Si  Si18  1  0.08889100  0.22921600  0.39576500  1
  Si  Si19  1  0.08889100  0.77078400  0.89576500  1
  Se  Se20  1  0.70922050  0.73323050  0.76617100  1
  Se  Se21  1  0.20922050  0.76676950  0.26617100  1
  Se  Se22  1  0.51728100  0.48420100  0.44672700  1
  Se  Se23  1  0.51728100  0.51579900  0.94672700  1
  Se  Se24  1  0.77354400  0.25657000  0.94699000  1
  Se  Se25  1  0.27354400  0.24343000  0.44699000  1
  Se  Se26  1  0.51629500  0.77036700  0.21177800  1
  Se  Se27  1  0.51629500  0.22963300  0.71177800  1
  Se  Se28  1  0.33444600  0.24988100  0.14486900  1
  Se  Se29  1  0.33444600  0.75011900  0.64486900  1
  Se  Se30  1  0.54414050  0.97499850  0.47571600  1
  Se  Se31  1  0.54414050  0.02500150  0.97571600  1
  Se  Se32  1  0.20922050  0.23323050  0.76617100  1
  Se  Se33  1  0.70922050  0.26676950  0.26617100  1
  Se  Se34  1  0.01728100  0.98420100  0.44672700  1
  Se  Se35  1  0.01728100  0.01579900  0.94672700  1
  Se  Se36  1  0.27354400  0.75657000  0.94699000  1
  Se  Se37  1  0.77354400  0.74343000  0.44699000  1
  Se  Se38  1  0.01629500  0.27036700  0.21177800  1
  Se  Se39  1  0.01629500  0.72963300  0.71177800  1
  Se  Se40  1  0.83444600  0.74988100  0.14486900  1
  Se  Se41  1  0.83444600  0.25011900  0.64486900  1
  Se  Se42  1  0.04414050  0.47499850  0.47571600  1
  Se  Se43  1  0.04414050  0.52500150  0.97571600  1
