# generated using pymatgen
data_SmNbO4
_symmetry_space_group_name_H-M   'P 1'
_cell_length_a   7.29782400
_cell_length_b   11.35528400
_cell_length_c   5.21643713
_cell_angle_alpha   90.00000000
_cell_angle_beta   131.94281601
_cell_angle_gamma   90.00000000
_symmetry_Int_Tables_number   1
_chemical_formula_structural   SmNbO4
_chemical_formula_sum   'Sm4 Nb4 O16'
_cell_volume   321.53533616
_cell_formula_units_Z   4
loop_
 _symmetry_equiv_pos_site_id
 _symmetry_equiv_pos_as_xyz
  1  'x, y, z'
loop_
 _atom_site_type_symbol
 _atom_site_label
 _atom_site_symmetry_multiplicity
 _atom_site_fract_x
 _atom_site_fract_y
 _atom_site_fract_z
 _atom_site_occupancy
  Sm  Sm0  1  0.00000000  0.37203100  0.25000000  1
  Sm  Sm1  1  0.50000000  0.12796900  0.75000000  1
  Sm  Sm2  1  0.50000000  0.87203100  0.25000000  1
  Sm  Sm3  1  0.00000000  0.62796900  0.75000000  1
  Nb  Nb4  1  0.50000000  0.39132600  0.25000000  1
  Nb  Nb5  1  0.00000000  0.10867400  0.75000000  1
  Nb  Nb6  1  0.00000000  0.89132600  0.25000000  1
  Nb  Nb7  1  0.50000000  0.60867400  0.75000000  1
  O  O8  1  0.25274800  0.46673000  0.80714500  1
  O  O9  1  0.74725200  0.46673000  0.69285500  1
  O  O10  1  0.24725200  0.03327000  0.19285500  1
  O  O11  1  0.75274800  0.03327000  0.30714500  1
  O  O12  1  0.65614700  0.29145100  0.15875000  1
  O  O13  1  0.34385300  0.29145100  0.34125000  1
  O  O14  1  0.84385300  0.20854900  0.84125000  1
  O  O15  1  0.15614700  0.20854900  0.65875000  1
  O  O16  1  0.75274800  0.96673000  0.80714500  1
  O  O17  1  0.24725200  0.96673000  0.69285500  1
  O  O18  1  0.74725200  0.53327000  0.19285500  1
  O  O19  1  0.25274800  0.53327000  0.30714500  1
  O  O20  1  0.15614700  0.79145100  0.15875000  1
  O  O21  1  0.84385300  0.79145100  0.34125000  1
  O  O22  1  0.34385300  0.70854900  0.84125000  1
  O  O23  1  0.65614700  0.70854900  0.65875000  1
