# generated using pymatgen
data_Ba3Ho4O9
_symmetry_space_group_name_H-M   'P 1'
_cell_length_a   6.12602206
_cell_length_b   6.12602206
_cell_length_c   25.52264229
_cell_angle_alpha   90.00000000
_cell_angle_beta   90.00000000
_cell_angle_gamma   120.00000000
_symmetry_Int_Tables_number   1
_chemical_formula_structural   Ba3Ho4O9
_chemical_formula_sum   'Ba9 Ho12 O27'
_cell_volume   829.49424667
_cell_formula_units_Z   3
loop_
 _symmetry_equiv_pos_site_id
 _symmetry_equiv_pos_as_xyz
  1  'x, y, z'
loop_
 _atom_site_type_symbol
 _atom_site_label
 _atom_site_symmetry_multiplicity
 _atom_site_fract_x
 _atom_site_fract_y
 _atom_site_fract_z
 _atom_site_occupancy
  Ba  Ba0  1  0.66666667  0.33333333  0.33172633  1
  Ba  Ba1  1  0.00000000  0.00000000  0.16400700  1
  Ba  Ba2  1  0.33333333  0.66666667  0.24277867  1
  Ba  Ba3  1  0.33333333  0.66666667  0.66505967  1
  Ba  Ba4  1  0.66666667  0.33333333  0.49734033  1
  Ba  Ba5  1  0.00000000  0.00000000  0.57611200  1
  Ba  Ba6  1  0.00000000  0.00000000  0.99839300  1
  Ba  Ba7  1  0.33333333  0.66666667  0.83067367  1
  Ba  Ba8  1  0.66666667  0.33333333  0.90944533  1
  Ho  Ho9  1  0.33333333  0.66666667  0.09162367  1
  Ho  Ho10  1  0.66666667  0.33333333  0.19682033  1
  Ho  Ho11  1  0.66666667  0.33333333  0.07108433  1
  Ho  Ho12  1  0.00000000  0.00000000  0.29988600  1
  Ho  Ho13  1  0.00000000  0.00000000  0.42495700  1
  Ho  Ho14  1  0.33333333  0.66666667  0.53015367  1
  Ho  Ho15  1  0.33333333  0.66666667  0.40441767  1
  Ho  Ho16  1  0.66666667  0.33333333  0.63321933  1
  Ho  Ho17  1  0.66666667  0.33333333  0.75829033  1
  Ho  Ho18  1  0.00000000  0.00000000  0.86348700  1
  Ho  Ho19  1  0.00000000  0.00000000  0.73775100  1
  Ho  Ho20  1  0.33333333  0.66666667  0.96655267  1
  O  O21  1  0.55576100  0.98483100  0.02639400  1
  O  O22  1  0.01516900  0.57093000  0.02639400  1
  O  O23  1  0.42907000  0.44423900  0.02639400  1
  O  O24  1  0.55696633  0.01191767  0.13861067  1
  O  O25  1  0.98808233  0.54504867  0.13861067  1
  O  O26  1  0.45495133  0.44303367  0.13861067  1
  O  O27  1  0.33169067  0.10591933  0.24809833  1
  O  O28  1  0.77422867  0.66830933  0.24809833  1
  O  O29  1  0.89408067  0.22577133  0.24809833  1
  O  O30  1  0.22242767  0.31816433  0.35972733  1
  O  O31  1  0.68183567  0.90426333  0.35972733  1
  O  O32  1  0.09573667  0.77757233  0.35972733  1
  O  O33  1  0.22363300  0.34525100  0.47194400  1
  O  O34  1  0.65474900  0.87838200  0.47194400  1
  O  O35  1  0.12161800  0.77636700  0.47194400  1
  O  O36  1  0.99835733  0.43925267  0.58143167  1
  O  O37  1  0.44089533  0.00164267  0.58143167  1
  O  O38  1  0.56074733  0.55910467  0.58143167  1
  O  O39  1  0.88909433  0.65149767  0.69306067  1
  O  O40  1  0.34850233  0.23759667  0.69306067  1
  O  O41  1  0.76240333  0.11090567  0.69306067  1
  O  O42  1  0.89029967  0.67858433  0.80527733  1
  O  O43  1  0.32141567  0.21171533  0.80527733  1
  O  O44  1  0.78828467  0.10970033  0.80527733  1
  O  O45  1  0.66502400  0.77258600  0.91476500  1
  O  O46  1  0.10756200  0.33497600  0.91476500  1
  O  O47  1  0.22741400  0.89243800  0.91476500  1
