# generated using pymatgen
data_Lu2SiO5
_symmetry_space_group_name_H-M   'P 1'
_cell_length_a   6.68238900
_cell_length_b   6.61146000
_cell_length_c   9.12020637
_cell_angle_alpha   90.00000000
_cell_angle_beta   100.32612862
_cell_angle_gamma   90.00000000
_symmetry_Int_Tables_number   1
_chemical_formula_structural   Lu2SiO5
_chemical_formula_sum   'Lu8 Si4 O20'
_cell_volume   396.40772684
_cell_formula_units_Z   4
loop_
 _symmetry_equiv_pos_site_id
 _symmetry_equiv_pos_as_xyz
  1  'x, y, z'
loop_
 _atom_site_type_symbol
 _atom_site_label
 _atom_site_symmetry_multiplicity
 _atom_site_fract_x
 _atom_site_fract_y
 _atom_site_fract_z
 _atom_site_occupancy
  Lu  Lu0  1  0.72407000  0.11738000  0.53674200  1
  Lu  Lu1  1  0.77593000  0.61738000  0.46325800  1
  Lu  Lu2  1  0.27593000  0.88262000  0.46325800  1
  Lu  Lu3  1  0.22407000  0.38262000  0.53674200  1
  Lu  Lu4  1  0.01068400  0.64196400  0.14882400  1
  Lu  Lu5  1  0.48931600  0.14196400  0.85117600  1
  Lu  Lu6  1  0.98931600  0.35803600  0.85117600  1
  Lu  Lu7  1  0.51068400  0.85803600  0.14882400  1
  Si  Si8  1  0.01422700  0.09844700  0.20254700  1
  Si  Si9  1  0.48577300  0.59844700  0.79745300  1
  Si  Si10  1  0.98577300  0.90155300  0.79745300  1
  Si  Si11  1  0.51422700  0.40155300  0.20254700  1
  O  O12  1  0.57892900  0.87706700  0.39395200  1
  O  O13  1  0.92107100  0.37706700  0.60604800  1
  O  O14  1  0.42107100  0.12293300  0.60604800  1
  O  O15  1  0.07892900  0.62293300  0.39395200  1
  O  O16  1  0.00545300  0.29926100  0.09820200  1
  O  O17  1  0.49454700  0.79926100  0.90179800  1
  O  O18  1  0.99454700  0.70073900  0.90179800  1
  O  O19  1  0.50545300  0.20073900  0.09820200  1
  O  O20  1  0.04165500  0.14851300  0.38510000  1
  O  O21  1  0.45834500  0.64851300  0.61490000  1
  O  O22  1  0.95834500  0.85148700  0.61490000  1
  O  O23  1  0.54165500  0.35148700  0.38510000  1
  O  O24  1  0.71085500  0.56119900  0.20896500  1
  O  O25  1  0.78914500  0.06119900  0.79103500  1
  O  O26  1  0.28914500  0.43880100  0.79103500  1
  O  O27  1  0.21085500  0.93880100  0.20896500  1
  O  O28  1  0.33143100  0.56527800  0.15192000  1
  O  O29  1  0.16856900  0.06527800  0.84808000  1
  O  O30  1  0.66856900  0.43472200  0.84808000  1
  O  O31  1  0.83143100  0.93472200  0.15192000  1
