# generated using pymatgen
data_K2CuAs
_symmetry_space_group_name_H-M   'P 1'
_cell_length_a   7.61294800
_cell_length_b   10.11356400
_cell_length_c   5.93140400
_cell_angle_alpha   90.00000000
_cell_angle_beta   90.00000000
_cell_angle_gamma   90.00000000
_symmetry_Int_Tables_number   1
_chemical_formula_structural   K2CuAs
_chemical_formula_sum   'K8 Cu4 As4'
_cell_volume   456.68273801
_cell_formula_units_Z   4
loop_
 _symmetry_equiv_pos_site_id
 _symmetry_equiv_pos_as_xyz
  1  'x, y, z'
loop_
 _atom_site_type_symbol
 _atom_site_label
 _atom_site_symmetry_multiplicity
 _atom_site_fract_x
 _atom_site_fract_y
 _atom_site_fract_z
 _atom_site_occupancy
  K  K0  1  0.64785200  0.33041600  0.75000000  1
  K  K1  1  0.35214800  0.66958400  0.25000000  1
  K  K2  1  0.35214800  0.33041600  0.25000000  1
  K  K3  1  0.64785200  0.66958400  0.75000000  1
  K  K4  1  0.14785200  0.83041600  0.75000000  1
  K  K5  1  0.85214800  0.16958400  0.25000000  1
  K  K6  1  0.85214800  0.83041600  0.25000000  1
  K  K7  1  0.14785200  0.16958400  0.75000000  1
  Cu  Cu8  1  0.50000000  0.00000000  0.50000000  1
  Cu  Cu9  1  0.50000000  0.00000000  0.00000000  1
  Cu  Cu10  1  0.00000000  0.50000000  0.50000000  1
  Cu  Cu11  1  0.00000000  0.50000000  0.00000000  1
  As  As12  1  0.74047800  0.00000000  0.75000000  1
  As  As13  1  0.25952200  0.00000000  0.25000000  1
  As  As14  1  0.24047800  0.50000000  0.75000000  1
  As  As15  1  0.75952200  0.50000000  0.25000000  1
