# generated using pymatgen
data_Sb2O3
_symmetry_space_group_name_H-M   'P 1'
_cell_length_a   11.49111600
_cell_length_b   11.49111600
_cell_length_c   11.49111600
_cell_angle_alpha   90.00000000
_cell_angle_beta   90.00000000
_cell_angle_gamma   90.00000000
_symmetry_Int_Tables_number   1
_chemical_formula_structural   Sb2O3
_chemical_formula_sum   'Sb32 O48'
_cell_volume   1517.35299523
_cell_formula_units_Z   16
loop_
 _symmetry_equiv_pos_site_id
 _symmetry_equiv_pos_as_xyz
  1  'x, y, z'
loop_
 _atom_site_type_symbol
 _atom_site_label
 _atom_site_symmetry_multiplicity
 _atom_site_fract_x
 _atom_site_fract_y
 _atom_site_fract_z
 _atom_site_occupancy
  Sb  Sb0  1  0.86247767  0.13752233  0.13752233  1
  Sb  Sb1  1  0.11247767  0.38752233  0.11247767  1
  Sb  Sb2  1  0.11247767  0.11247767  0.38752233  1
  Sb  Sb3  1  0.38752233  0.38752233  0.38752233  1
  Sb  Sb4  1  0.63752233  0.13752233  0.36247767  1
  Sb  Sb5  1  0.36247767  0.86247767  0.36247767  1
  Sb  Sb6  1  0.13752233  0.86247767  0.13752233  1
  Sb  Sb7  1  0.38752233  0.11247767  0.11247767  1
  Sb  Sb8  1  0.86247767  0.63752233  0.63752233  1
  Sb  Sb9  1  0.11247767  0.88752233  0.61247767  1
  Sb  Sb10  1  0.11247767  0.61247767  0.88752233  1
  Sb  Sb11  1  0.38752233  0.88752233  0.88752233  1
  Sb  Sb12  1  0.63752233  0.63752233  0.86247767  1
  Sb  Sb13  1  0.36247767  0.36247767  0.86247767  1
  Sb  Sb14  1  0.13752233  0.36247767  0.63752233  1
  Sb  Sb15  1  0.38752233  0.61247767  0.61247767  1
  Sb  Sb16  1  0.36247767  0.13752233  0.63752233  1
  Sb  Sb17  1  0.61247767  0.38752233  0.61247767  1
  Sb  Sb18  1  0.61247767  0.11247767  0.88752233  1
  Sb  Sb19  1  0.88752233  0.38752233  0.88752233  1
  Sb  Sb20  1  0.13752233  0.13752233  0.86247767  1
  Sb  Sb21  1  0.86247767  0.86247767  0.86247767  1
  Sb  Sb22  1  0.63752233  0.86247767  0.63752233  1
  Sb  Sb23  1  0.88752233  0.11247767  0.61247767  1
  Sb  Sb24  1  0.36247767  0.63752233  0.13752233  1
  Sb  Sb25  1  0.61247767  0.88752233  0.11247767  1
  Sb  Sb26  1  0.61247767  0.61247767  0.38752233  1
  Sb  Sb27  1  0.88752233  0.88752233  0.38752233  1
  Sb  Sb28  1  0.13752233  0.63752233  0.36247767  1
  Sb  Sb29  1  0.86247767  0.36247767  0.36247767  1
  Sb  Sb30  1  0.63752233  0.36247767  0.13752233  1
  Sb  Sb31  1  0.88752233  0.61247767  0.11247767  1
  O  O32  1  0.00000000  0.00000000  0.31491100  1
  O  O33  1  0.25000000  0.75000000  0.06491100  1
  O  O34  1  0.50000000  0.68508900  0.50000000  1
  O  O35  1  0.81491100  0.00000000  0.50000000  1
  O  O36  1  0.18508900  0.00000000  0.50000000  1
  O  O37  1  0.50000000  0.31491100  0.50000000  1
  O  O38  1  0.25000000  0.56491100  0.25000000  1
  O  O39  1  0.25000000  0.93508900  0.25000000  1
  O  O40  1  0.50000000  0.00000000  0.18508900  1
  O  O41  1  0.06491100  0.75000000  0.25000000  1
  O  O42  1  0.43508900  0.75000000  0.25000000  1
  O  O43  1  0.25000000  0.75000000  0.43508900  1
  O  O44  1  0.00000000  0.50000000  0.81491100  1
  O  O45  1  0.25000000  0.25000000  0.56491100  1
  O  O46  1  0.50000000  0.18508900  0.00000000  1
  O  O47  1  0.81491100  0.50000000  0.00000000  1
  O  O48  1  0.18508900  0.50000000  0.00000000  1
  O  O49  1  0.50000000  0.81491100  0.00000000  1
  O  O50  1  0.25000000  0.06491100  0.75000000  1
  O  O51  1  0.25000000  0.43508900  0.75000000  1
  O  O52  1  0.50000000  0.50000000  0.68508900  1
  O  O53  1  0.06491100  0.25000000  0.75000000  1
  O  O54  1  0.43508900  0.25000000  0.75000000  1
  O  O55  1  0.25000000  0.25000000  0.93508900  1
  O  O56  1  0.50000000  0.00000000  0.81491100  1
  O  O57  1  0.75000000  0.75000000  0.56491100  1
  O  O58  1  0.00000000  0.68508900  0.00000000  1
  O  O59  1  0.31491100  0.00000000  0.00000000  1
  O  O60  1  0.68508900  0.00000000  0.00000000  1
  O  O61  1  0.00000000  0.31491100  0.00000000  1
  O  O62  1  0.75000000  0.56491100  0.75000000  1
  O  O63  1  0.75000000  0.93508900  0.75000000  1
  O  O64  1  0.00000000  0.00000000  0.68508900  1
  O  O65  1  0.56491100  0.75000000  0.75000000  1
  O  O66  1  0.93508900  0.75000000  0.75000000  1
  O  O67  1  0.75000000  0.75000000  0.93508900  1
  O  O68  1  0.50000000  0.50000000  0.31491100  1
  O  O69  1  0.75000000  0.25000000  0.06491100  1
  O  O70  1  0.00000000  0.18508900  0.50000000  1
  O  O71  1  0.31491100  0.50000000  0.50000000  1
  O  O72  1  0.68508900  0.50000000  0.50000000  1
  O  O73  1  0.00000000  0.81491100  0.50000000  1
  O  O74  1  0.75000000  0.06491100  0.25000000  1
  O  O75  1  0.75000000  0.43508900  0.25000000  1
  O  O76  1  0.00000000  0.50000000  0.18508900  1
  O  O77  1  0.56491100  0.25000000  0.25000000  1
  O  O78  1  0.93508900  0.25000000  0.25000000  1
  O  O79  1  0.75000000  0.25000000  0.43508900  1
