# generated using pymatgen
data_Li16Ta2N8O
_symmetry_space_group_name_H-M   'P 1'
_cell_length_a   5.99996418
_cell_length_b   5.99996418
_cell_length_c   25.56589422
_cell_angle_alpha   90.00000000
_cell_angle_beta   90.00000000
_cell_angle_gamma   120.00000000
_symmetry_Int_Tables_number   1
_chemical_formula_structural   Li16Ta2N8O
_chemical_formula_sum   'Li48 Ta6 N24 O3'
_cell_volume   797.05618195
_cell_formula_units_Z   3
loop_
 _symmetry_equiv_pos_site_id
 _symmetry_equiv_pos_as_xyz
  1  'x, y, z'
loop_
 _atom_site_type_symbol
 _atom_site_label
 _atom_site_symmetry_multiplicity
 _atom_site_fract_x
 _atom_site_fract_y
 _atom_site_fract_z
 _atom_site_occupancy
  Li  Li0  1  0.33333333  0.66666667  0.24922167  1
  Li  Li1  1  0.33333333  0.66666667  0.08411167  1
  Li  Li2  1  0.66666667  0.33333333  0.25566133  1
  Li  Li3  1  0.00000000  0.00000000  0.07767200  1
  Li  Li4  1  0.35888567  0.99209433  0.30963333  1
  Li  Li5  1  0.00790567  0.36679133  0.30963333  1
  Li  Li6  1  0.63320867  0.64111433  0.30963333  1
  Li  Li7  1  0.30778100  0.34123900  0.02370000  1
  Li  Li8  1  0.65876100  0.96654200  0.02370000  1
  Li  Li9  1  0.03345800  0.69221900  0.02370000  1
  Li  Li10  1  0.38961700  0.36552200  0.19147400  1
  Li  Li11  1  0.69076167  0.72295033  0.14185933  1
  Li  Li12  1  0.03218867  0.30923833  0.14185933  1
  Li  Li13  1  0.27704967  0.96781133  0.14185933  1
  Li  Li14  1  0.97590500  0.61038300  0.19147400  1
  Li  Li15  1  0.63447800  0.02409500  0.19147400  1
  Li  Li16  1  0.00000000  0.00000000  0.58255500  1
  Li  Li17  1  0.00000000  0.00000000  0.41744500  1
  Li  Li18  1  0.33333333  0.66666667  0.58899467  1
  Li  Li19  1  0.66666667  0.33333333  0.41100533  1
  Li  Li20  1  0.02555233  0.32542767  0.64296667  1
  Li  Li21  1  0.67457233  0.70012467  0.64296667  1
  Li  Li22  1  0.29987533  0.97444767  0.64296667  1
  Li  Li23  1  0.97444767  0.67457233  0.35703333  1
  Li  Li24  1  0.32542767  0.29987533  0.35703333  1
  Li  Li25  1  0.70012467  0.02555233  0.35703333  1
  Li  Li26  1  0.05628367  0.69885533  0.52480733  1
  Li  Li27  1  0.35742833  0.05628367  0.47519267  1
  Li  Li28  1  0.69885533  0.64257167  0.47519267  1
  Li  Li29  1  0.94371633  0.30114467  0.47519267  1
  Li  Li30  1  0.64257167  0.94371633  0.52480733  1
  Li  Li31  1  0.30114467  0.35742833  0.52480733  1
  Li  Li32  1  0.66666667  0.33333333  0.91588833  1
  Li  Li33  1  0.66666667  0.33333333  0.75077833  1
  Li  Li34  1  0.00000000  0.00000000  0.92232800  1
  Li  Li35  1  0.33333333  0.66666667  0.74433867  1
  Li  Li36  1  0.69221900  0.65876100  0.97630000  1
  Li  Li37  1  0.34123900  0.03345800  0.97630000  1
  Li  Li38  1  0.96654200  0.30778100  0.97630000  1
  Li  Li39  1  0.64111433  0.00790567  0.69036667  1
  Li  Li40  1  0.99209433  0.63320867  0.69036667  1
  Li  Li41  1  0.36679133  0.35888567  0.69036667  1
  Li  Li42  1  0.72295033  0.03218867  0.85814067  1
  Li  Li43  1  0.02409500  0.38961700  0.80852600  1
  Li  Li44  1  0.36552200  0.97590500  0.80852600  1
  Li  Li45  1  0.61038300  0.63447800  0.80852600  1
  Li  Li46  1  0.30923833  0.27704967  0.85814067  1
  Li  Li47  1  0.96781133  0.69076167  0.85814067  1
  Ta  Ta48  1  0.66666667  0.33333333  0.08402133  1
  Ta  Ta49  1  0.00000000  0.00000000  0.24931200  1
  Ta  Ta50  1  0.33333333  0.66666667  0.41735467  1
  Ta  Ta51  1  0.66666667  0.33333333  0.58264533  1
  Ta  Ta52  1  0.00000000  0.00000000  0.75068800  1
  Ta  Ta53  1  0.33333333  0.66666667  0.91597867  1
  N  N54  1  0.35641800  0.33473200  0.10875500  1
  N  N55  1  0.66666667  0.33333333  0.00711833  1
  N  N56  1  0.00000000  0.00000000  0.32621500  1
  N  N57  1  0.66526800  0.02168600  0.10875500  1
  N  N58  1  0.97831400  0.64358200  0.10875500  1
  N  N59  1  0.68835267  0.68975133  0.22457833  1
  N  N60  1  0.00139867  0.31164733  0.22457833  1
  N  N61  1  0.31024867  0.99860133  0.22457833  1
  N  N62  1  0.02308467  0.66806533  0.44208833  1
  N  N63  1  0.33333333  0.66666667  0.34045167  1
  N  N64  1  0.66666667  0.33333333  0.65954833  1
  N  N65  1  0.33193467  0.35501933  0.44208833  1
  N  N66  1  0.64498067  0.97691533  0.44208833  1
  N  N67  1  0.35501933  0.02308467  0.55791167  1
  N  N68  1  0.66806533  0.64498067  0.55791167  1
  N  N69  1  0.97691533  0.33193467  0.55791167  1
  N  N70  1  0.68975133  0.00139867  0.77542167  1
  N  N71  1  0.00000000  0.00000000  0.67378500  1
  N  N72  1  0.33333333  0.66666667  0.99288167  1
  N  N73  1  0.99860133  0.68835267  0.77542167  1
  N  N74  1  0.31164733  0.31024867  0.77542167  1
  N  N75  1  0.02168600  0.35641800  0.89124500  1
  N  N76  1  0.33473200  0.97831400  0.89124500  1
  N  N77  1  0.64358200  0.66526800  0.89124500  1
  O  O78  1  0.00000000  0.00000000  0.00000000  1
  O  O79  1  0.66666667  0.33333333  0.33333333  1
  O  O80  1  0.33333333  0.66666667  0.66666667  1
