# generated using pymatgen
data_Ce3Zr5O16
_symmetry_space_group_name_H-M   'P 1'
_cell_length_a   10.55137600
_cell_length_b   10.64775400
_cell_length_c   5.35908100
_cell_angle_alpha   90.00000000
_cell_angle_beta   90.00000000
_cell_angle_gamma   90.00000000
_symmetry_Int_Tables_number   1
_chemical_formula_structural   Ce3Zr5O16
_chemical_formula_sum   'Ce6 Zr10 O32'
_cell_volume   602.08447598
_cell_formula_units_Z   2
loop_
 _symmetry_equiv_pos_site_id
 _symmetry_equiv_pos_as_xyz
  1  'x, y, z'
loop_
 _atom_site_type_symbol
 _atom_site_label
 _atom_site_symmetry_multiplicity
 _atom_site_fract_x
 _atom_site_fract_y
 _atom_site_fract_z
 _atom_site_occupancy
  Ce  Ce0  1  0.50000000  0.24310800  0.00000000  1
  Ce  Ce1  1  0.00000000  0.00000000  0.50000000  1
  Ce  Ce2  1  0.50000000  0.75689200  0.00000000  1
  Ce  Ce3  1  0.00000000  0.74310800  0.00000000  1
  Ce  Ce4  1  0.50000000  0.50000000  0.50000000  1
  Ce  Ce5  1  0.00000000  0.25689200  0.00000000  1
  Zr  Zr6  1  0.25000000  0.75000000  0.50008400  1
  Zr  Zr7  1  0.24717900  0.00000000  0.00000000  1
  Zr  Zr8  1  0.50000000  0.00000000  0.50000000  1
  Zr  Zr9  1  0.75282100  0.00000000  0.00000000  1
  Zr  Zr10  1  0.25000000  0.25000000  0.49991600  1
  Zr  Zr11  1  0.75000000  0.25000000  0.50008400  1
  Zr  Zr12  1  0.74717900  0.50000000  0.00000000  1
  Zr  Zr13  1  0.00000000  0.50000000  0.50000000  1
  Zr  Zr14  1  0.25282100  0.50000000  0.00000000  1
  Zr  Zr15  1  0.75000000  0.75000000  0.49991600  1
  O  O16  1  0.62051800  0.13919900  0.30799300  1
  O  O17  1  0.13184250  0.88756550  0.22203900  1
  O  O18  1  0.62965000  0.35937900  0.72351600  1
  O  O19  1  0.62291550  0.10149750  0.79020700  1
  O  O20  1  0.37948200  0.86080100  0.30799300  1
  O  O21  1  0.37708450  0.10149750  0.20979300  1
  O  O22  1  0.37948200  0.13919900  0.69200700  1
  O  O23  1  0.37708450  0.89850250  0.79020700  1
  O  O24  1  0.37035000  0.35937900  0.27648400  1
  O  O25  1  0.86815750  0.11243450  0.22203900  1
  O  O26  1  0.37035000  0.64062100  0.72351600  1
  O  O27  1  0.86815750  0.88756550  0.77796100  1
  O  O28  1  0.62965000  0.64062100  0.27648400  1
  O  O29  1  0.62291550  0.89850250  0.20979300  1
  O  O30  1  0.62051800  0.86080100  0.69200700  1
  O  O31  1  0.13184250  0.11243450  0.77796100  1
  O  O32  1  0.12051800  0.63919900  0.30799300  1
  O  O33  1  0.63184250  0.38756550  0.22203900  1
  O  O34  1  0.12965000  0.85937900  0.72351600  1
  O  O35  1  0.12291550  0.60149750  0.79020700  1
  O  O36  1  0.87948200  0.36080100  0.30799300  1
  O  O37  1  0.87708450  0.60149750  0.20979300  1
  O  O38  1  0.87948200  0.63919900  0.69200700  1
  O  O39  1  0.87708450  0.39850250  0.79020700  1
  O  O40  1  0.87035000  0.85937900  0.27648400  1
  O  O41  1  0.36815750  0.61243450  0.22203900  1
  O  O42  1  0.87035000  0.14062100  0.72351600  1
  O  O43  1  0.36815750  0.38756550  0.77796100  1
  O  O44  1  0.12965000  0.14062100  0.27648400  1
  O  O45  1  0.12291550  0.39850250  0.20979300  1
  O  O46  1  0.12051800  0.36080100  0.69200700  1
  O  O47  1  0.63184250  0.61243450  0.77796100  1
