# generated using pymatgen
data_B
_symmetry_space_group_name_H-M   'P 1'
_cell_length_a   4.89997770
_cell_length_b   4.89997770
_cell_length_c   12.55098465
_cell_angle_alpha   90.00000000
_cell_angle_beta   90.00000000
_cell_angle_gamma   120.00000000
_symmetry_Int_Tables_number   1
_chemical_formula_structural   B
_chemical_formula_sum   B36
_cell_volume   260.97363625
_cell_formula_units_Z   36
loop_
 _symmetry_equiv_pos_site_id
 _symmetry_equiv_pos_as_xyz
  1  'x, y, z'
loop_
 _atom_site_type_symbol
 _atom_site_label
 _atom_site_symmetry_multiplicity
 _atom_site_fract_x
 _atom_site_fract_y
 _atom_site_fract_z
 _atom_site_occupancy
  B  B0  1  0.42915067  0.21457533  0.22488333  1
  B  B1  1  0.78542467  0.57084933  0.22488333  1
  B  B2  1  0.78542467  0.21457533  0.22488333  1
  B  B3  1  0.88124200  0.11875800  0.10845000  1
  B  B4  1  0.23751600  0.11875800  0.10845000  1
  B  B5  1  0.88124200  0.76248400  0.10845000  1
  B  B6  1  0.60621867  0.80310933  0.02423933  1
  B  B7  1  0.19689067  0.39378133  0.02423933  1
  B  B8  1  0.19689067  0.80310933  0.02423933  1
  B  B9  1  0.46977600  0.53022400  0.30909400  1
  B  B10  1  0.06044800  0.53022400  0.30909400  1
  B  B11  1  0.46977600  0.93955200  0.30909400  1
  B  B12  1  0.09581733  0.54790867  0.55821667  1
  B  B13  1  0.45209133  0.90418267  0.55821667  1
  B  B14  1  0.45209133  0.54790867  0.55821667  1
  B  B15  1  0.54790867  0.45209133  0.44178333  1
  B  B16  1  0.90418267  0.45209133  0.44178333  1
  B  B17  1  0.54790867  0.09581733  0.44178333  1
  B  B18  1  0.27288533  0.13644267  0.35757267  1
  B  B19  1  0.86355733  0.72711467  0.35757267  1
  B  B20  1  0.86355733  0.13644267  0.35757267  1
  B  B21  1  0.13644267  0.86355733  0.64242733  1
  B  B22  1  0.72711467  0.86355733  0.64242733  1
  B  B23  1  0.13644267  0.27288533  0.64242733  1
  B  B24  1  0.76248400  0.88124200  0.89155000  1
  B  B25  1  0.11875800  0.23751600  0.89155000  1
  B  B26  1  0.11875800  0.88124200  0.89155000  1
  B  B27  1  0.21457533  0.78542467  0.77511667  1
  B  B28  1  0.57084933  0.78542467  0.77511667  1
  B  B29  1  0.21457533  0.42915067  0.77511667  1
  B  B30  1  0.93955200  0.46977600  0.69090600  1
  B  B31  1  0.53022400  0.06044800  0.69090600  1
  B  B32  1  0.53022400  0.46977600  0.69090600  1
  B  B33  1  0.80310933  0.19689067  0.97576067  1
  B  B34  1  0.39378133  0.19689067  0.97576067  1
  B  B35  1  0.80310933  0.60621867  0.97576067  1
