# generated using pymatgen
data_Sr4Al6SO16
_symmetry_space_group_name_H-M   'P 1'
_cell_length_a   9.42136600
_cell_length_b   9.42136600
_cell_length_c   9.42136600
_cell_angle_alpha   90.00000000
_cell_angle_beta   90.00000000
_cell_angle_gamma   90.00000000
_symmetry_Int_Tables_number   1
_chemical_formula_structural   Sr4Al6SO16
_chemical_formula_sum   'Sr8 Al12 S2 O32'
_cell_volume   836.26058250
_cell_formula_units_Z   2
loop_
 _symmetry_equiv_pos_site_id
 _symmetry_equiv_pos_as_xyz
  1  'x, y, z'
loop_
 _atom_site_type_symbol
 _atom_site_label
 _atom_site_symmetry_multiplicity
 _atom_site_fract_x
 _atom_site_fract_y
 _atom_site_fract_z
 _atom_site_occupancy
  Sr  Sr0  1  0.30366350  0.69633650  0.30366350  1
  Sr  Sr1  1  0.30366350  0.30366350  0.69633650  1
  Sr  Sr2  1  0.69633650  0.30366350  0.30366350  1
  Sr  Sr3  1  0.19633650  0.19633650  0.19633650  1
  Sr  Sr4  1  0.80366350  0.19633650  0.80366350  1
  Sr  Sr5  1  0.80366350  0.80366350  0.19633650  1
  Sr  Sr6  1  0.19633650  0.80366350  0.80366350  1
  Sr  Sr7  1  0.69633650  0.69633650  0.69633650  1
  Al  Al8  1  0.50000000  0.25000000  0.00000000  1
  Al  Al9  1  0.00000000  0.50000000  0.25000000  1
  Al  Al10  1  0.25000000  0.50000000  0.00000000  1
  Al  Al11  1  0.00000000  0.25000000  0.50000000  1
  Al  Al12  1  0.25000000  0.00000000  0.50000000  1
  Al  Al13  1  0.50000000  0.00000000  0.25000000  1
  Al  Al14  1  0.00000000  0.75000000  0.50000000  1
  Al  Al15  1  0.50000000  0.00000000  0.75000000  1
  Al  Al16  1  0.75000000  0.00000000  0.50000000  1
  Al  Al17  1  0.50000000  0.75000000  0.00000000  1
  Al  Al18  1  0.75000000  0.50000000  0.00000000  1
  Al  Al19  1  0.00000000  0.50000000  0.75000000  1
  S  S20  1  0.00000000  0.00000000  0.00000000  1
  S  S21  1  0.50000000  0.50000000  0.50000000  1
  O  O22  1  0.54752600  0.84753900  0.15246100  1
  O  O23  1  0.95247400  0.34753900  0.34753900  1
  O  O24  1  0.54752600  0.15246100  0.84753900  1
  O  O25  1  0.15246100  0.15246100  0.45247400  1
  O  O26  1  0.15246100  0.45247400  0.15246100  1
  O  O27  1  0.15246100  0.54752600  0.84753900  1
  O  O28  1  0.34753900  0.34753900  0.95247400  1
  O  O29  1  0.84753900  0.54752600  0.15246100  1
  O  O30  1  0.84753900  0.15246100  0.54752600  1
  O  O31  1  0.34753900  0.95247400  0.34753900  1
  O  O32  1  0.15246100  0.84753900  0.54752600  1
  O  O33  1  0.40833300  0.40833300  0.40833300  1
  O  O34  1  0.90833300  0.09166700  0.09166700  1
  O  O35  1  0.09166700  0.90833300  0.09166700  1
  O  O36  1  0.09166700  0.09166700  0.90833300  1
  O  O37  1  0.45247400  0.15246100  0.15246100  1
  O  O38  1  0.04752600  0.34753900  0.65246100  1
  O  O39  1  0.45247400  0.84753900  0.84753900  1
  O  O40  1  0.04752600  0.65246100  0.34753900  1
  O  O41  1  0.65246100  0.65246100  0.95247400  1
  O  O42  1  0.65246100  0.95247400  0.65246100  1
  O  O43  1  0.65246100  0.04752600  0.34753900  1
  O  O44  1  0.84753900  0.84753900  0.45247400  1
  O  O45  1  0.34753900  0.04752600  0.65246100  1
  O  O46  1  0.34753900  0.65246100  0.04752600  1
  O  O47  1  0.84753900  0.45247400  0.84753900  1
  O  O48  1  0.65246100  0.34753900  0.04752600  1
  O  O49  1  0.90833300  0.90833300  0.90833300  1
  O  O50  1  0.40833300  0.59166700  0.59166700  1
  O  O51  1  0.59166700  0.40833300  0.59166700  1
  O  O52  1  0.59166700  0.59166700  0.40833300  1
  O  O53  1  0.95247400  0.65246100  0.65246100  1
