# generated using pymatgen
data_CsSn
_symmetry_space_group_name_H-M   'P 1'
_cell_length_a   12.35956400
_cell_length_b   12.35956400
_cell_length_c   20.21334000
_cell_angle_alpha   90.00000000
_cell_angle_beta   90.00000000
_cell_angle_gamma   90.00000000
_symmetry_Int_Tables_number   1
_chemical_formula_structural   CsSn
_chemical_formula_sum   'Cs32 Sn32'
_cell_volume   3087.76601255
_cell_formula_units_Z   32
loop_
 _symmetry_equiv_pos_site_id
 _symmetry_equiv_pos_as_xyz
  1  'x, y, z'
loop_
 _atom_site_type_symbol
 _atom_site_label
 _atom_site_symmetry_multiplicity
 _atom_site_fract_x
 _atom_site_fract_y
 _atom_site_fract_z
 _atom_site_occupancy
  Cs  Cs0  1  0.87900200  0.37900200  0.00000000  1
  Cs  Cs1  1  0.62099800  0.37900200  0.25000000  1
  Cs  Cs2  1  0.37900200  0.62099800  0.25000000  1
  Cs  Cs3  1  0.62099800  0.12099800  0.50000000  1
  Cs  Cs4  1  0.12099800  0.12099800  0.25000000  1
  Cs  Cs5  1  0.37900200  0.12099800  0.00000000  1
  Cs  Cs6  1  0.62099800  0.87900200  0.00000000  1
  Cs  Cs7  1  0.87900200  0.87900200  0.25000000  1
  Cs  Cs8  1  0.85954550  0.25000000  0.37500000  1
  Cs  Cs9  1  0.25000000  0.85954550  0.12500000  1
  Cs  Cs10  1  0.75000000  0.14045450  0.12500000  1
  Cs  Cs11  1  0.14045450  0.75000000  0.37500000  1
  Cs  Cs12  1  0.64045450  0.75000000  0.37500000  1
  Cs  Cs13  1  0.75000000  0.64045450  0.12500000  1
  Cs  Cs14  1  0.25000000  0.35954550  0.12500000  1
  Cs  Cs15  1  0.35954550  0.25000000  0.37500000  1
  Cs  Cs16  1  0.37900200  0.87900200  0.50000000  1
  Cs  Cs17  1  0.12099800  0.87900200  0.75000000  1
  Cs  Cs18  1  0.87900200  0.12099800  0.75000000  1
  Cs  Cs19  1  0.12099800  0.62099800  0.00000000  1
  Cs  Cs20  1  0.62099800  0.62099800  0.75000000  1
  Cs  Cs21  1  0.87900200  0.62099800  0.50000000  1
  Cs  Cs22  1  0.12099800  0.37900200  0.50000000  1
  Cs  Cs23  1  0.37900200  0.37900200  0.75000000  1
  Cs  Cs24  1  0.35954550  0.75000000  0.87500000  1
  Cs  Cs25  1  0.75000000  0.35954550  0.62500000  1
  Cs  Cs26  1  0.25000000  0.64045450  0.62500000  1
  Cs  Cs27  1  0.64045450  0.25000000  0.87500000  1
  Cs  Cs28  1  0.14045450  0.25000000  0.87500000  1
  Cs  Cs29  1  0.25000000  0.14045450  0.62500000  1
  Cs  Cs30  1  0.75000000  0.85954550  0.62500000  1
  Cs  Cs31  1  0.85954550  0.75000000  0.87500000  1
  Sn  Sn32  1  0.56153200  0.89575800  0.19735400  1
  Sn  Sn33  1  0.89575800  0.56153200  0.30264600  1
  Sn  Sn34  1  0.10424200  0.43846800  0.30264600  1
  Sn  Sn35  1  0.06153200  0.10424200  0.05264600  1
  Sn  Sn36  1  0.93846800  0.89575800  0.05264600  1
  Sn  Sn37  1  0.10424200  0.06153200  0.44735400  1
  Sn  Sn38  1  0.89575800  0.93846800  0.44735400  1
  Sn  Sn39  1  0.43846800  0.10424200  0.19735400  1
  Sn  Sn40  1  0.43846800  0.60424200  0.05264600  1
  Sn  Sn41  1  0.60424200  0.43846800  0.44735400  1
  Sn  Sn42  1  0.39575800  0.56153200  0.44735400  1
  Sn  Sn43  1  0.93846800  0.39575800  0.19735400  1
  Sn  Sn44  1  0.06153200  0.60424200  0.19735400  1
  Sn  Sn45  1  0.39575800  0.93846800  0.30264600  1
  Sn  Sn46  1  0.60424200  0.06153200  0.30264600  1
  Sn  Sn47  1  0.56153200  0.39575800  0.05264600  1
  Sn  Sn48  1  0.06153200  0.39575800  0.69735400  1
  Sn  Sn49  1  0.39575800  0.06153200  0.80264600  1
  Sn  Sn50  1  0.60424200  0.93846800  0.80264600  1
  Sn  Sn51  1  0.56153200  0.60424200  0.55264600  1
  Sn  Sn52  1  0.43846800  0.39575800  0.55264600  1
  Sn  Sn53  1  0.60424200  0.56153200  0.94735400  1
  Sn  Sn54  1  0.39575800  0.43846800  0.94735400  1
  Sn  Sn55  1  0.93846800  0.60424200  0.69735400  1
  Sn  Sn56  1  0.93846800  0.10424200  0.55264600  1
  Sn  Sn57  1  0.10424200  0.93846800  0.94735400  1
  Sn  Sn58  1  0.89575800  0.06153200  0.94735400  1
  Sn  Sn59  1  0.43846800  0.89575800  0.69735400  1
  Sn  Sn60  1  0.56153200  0.10424200  0.69735400  1
  Sn  Sn61  1  0.89575800  0.43846800  0.80264600  1
  Sn  Sn62  1  0.10424200  0.56153200  0.80264600  1
  Sn  Sn63  1  0.06153200  0.89575800  0.55264600  1
