# generated using pymatgen
data_K3NaTh2O6
_symmetry_space_group_name_H-M   'P 1'
_cell_length_a   6.34246400
_cell_length_b   10.99144200
_cell_length_c   12.76951498
_cell_angle_alpha   90.00000000
_cell_angle_beta   99.56102136
_cell_angle_gamma   90.00000000
_symmetry_Int_Tables_number   1
_chemical_formula_structural   K3NaTh2O6
_chemical_formula_sum   'K12 Na4 Th8 O24'
_cell_volume   877.83344549
_cell_formula_units_Z   4
loop_
 _symmetry_equiv_pos_site_id
 _symmetry_equiv_pos_as_xyz
  1  'x, y, z'
loop_
 _atom_site_type_symbol
 _atom_site_label
 _atom_site_symmetry_multiplicity
 _atom_site_fract_x
 _atom_site_fract_y
 _atom_site_fract_z
 _atom_site_occupancy
  K  K0  1  0.75000000  0.75000000  0.00000000  1
  K  K1  1  0.25000000  0.75000000  0.50000000  1
  K  K2  1  0.26542300  0.57814300  0.00018800  1
  K  K3  1  0.73457700  0.57814300  0.49981200  1
  K  K4  1  0.76542300  0.92185700  0.50018800  1
  K  K5  1  0.23457700  0.92185700  0.99981200  1
  K  K6  1  0.25000000  0.25000000  0.00000000  1
  K  K7  1  0.75000000  0.25000000  0.50000000  1
  K  K8  1  0.76542300  0.07814300  0.00018800  1
  K  K9  1  0.23457700  0.07814300  0.49981200  1
  K  K10  1  0.26542300  0.42185700  0.50018800  1
  K  K11  1  0.73457700  0.42185700  0.99981200  1
  Na  Na12  1  0.50000000  0.58426300  0.75000000  1
  Na  Na13  1  0.00000000  0.91573700  0.25000000  1
  Na  Na14  1  0.00000000  0.08426300  0.75000000  1
  Na  Na15  1  0.50000000  0.41573700  0.25000000  1
  Th  Th16  1  0.50000000  0.74990600  0.25000000  1
  Th  Th17  1  0.00000000  0.75009400  0.75000000  1
  Th  Th18  1  0.00000000  0.58269000  0.25000000  1
  Th  Th19  1  0.50000000  0.91731000  0.75000000  1
  Th  Th20  1  0.00000000  0.24990600  0.25000000  1
  Th  Th21  1  0.50000000  0.25009400  0.75000000  1
  Th  Th22  1  0.50000000  0.08269000  0.25000000  1
  Th  Th23  1  0.00000000  0.41731000  0.75000000  1
  O  O24  1  0.15261250  0.73092650  0.15311100  1
  O  O25  1  0.84738750  0.73092650  0.34688900  1
  O  O26  1  0.34738750  0.76907350  0.84688900  1
  O  O27  1  0.65261250  0.76907350  0.65311100  1
  O  O28  1  0.59673850  0.91609550  0.15271800  1
  O  O29  1  0.40326150  0.91609550  0.34728200  1
  O  O30  1  0.15179400  0.89952600  0.65302900  1
  O  O31  1  0.09673850  0.58390450  0.65271800  1
  O  O32  1  0.65179400  0.60047400  0.15302900  1
  O  O33  1  0.34820600  0.60047400  0.34697100  1
  O  O34  1  0.84820600  0.89952600  0.84697100  1
  O  O35  1  0.90326150  0.58390450  0.84728200  1
  O  O36  1  0.65261250  0.23092650  0.15311100  1
  O  O37  1  0.34738750  0.23092650  0.34688900  1
  O  O38  1  0.84738750  0.26907350  0.84688900  1
  O  O39  1  0.15261250  0.26907350  0.65311100  1
  O  O40  1  0.09673850  0.41609550  0.15271800  1
  O  O41  1  0.90326150  0.41609550  0.34728200  1
  O  O42  1  0.65179400  0.39952600  0.65302900  1
  O  O43  1  0.59673850  0.08390450  0.65271800  1
  O  O44  1  0.15179400  0.10047400  0.15302900  1
  O  O45  1  0.84820600  0.10047400  0.34697100  1
  O  O46  1  0.34820600  0.39952600  0.84697100  1
  O  O47  1  0.40326150  0.08390450  0.84728200  1
