# generated using pymatgen
data_Rb2WO4
_symmetry_space_group_name_H-M   'P 1'
_cell_length_a   13.11319200
_cell_length_b   6.47441600
_cell_length_c   8.06451783
_cell_angle_alpha   90.00000000
_cell_angle_beta   116.06270928
_cell_angle_gamma   90.00000000
_symmetry_Int_Tables_number   1
_chemical_formula_structural   Rb2WO4
_chemical_formula_sum   'Rb8 W4 O16'
_cell_volume   615.05713256
_cell_formula_units_Z   4
loop_
 _symmetry_equiv_pos_site_id
 _symmetry_equiv_pos_as_xyz
  1  'x, y, z'
loop_
 _atom_site_type_symbol
 _atom_site_label
 _atom_site_symmetry_multiplicity
 _atom_site_fract_x
 _atom_site_fract_y
 _atom_site_fract_z
 _atom_site_occupancy
  Rb  Rb0  1  0.34383800  0.50000000  0.25280300  1
  Rb  Rb1  1  0.15616200  0.00000000  0.74719700  1
  Rb  Rb2  1  0.48842300  0.00000000  0.76305000  1
  Rb  Rb3  1  0.01157700  0.50000000  0.23695000  1
  Rb  Rb4  1  0.84383800  0.00000000  0.25280300  1
  Rb  Rb5  1  0.65616200  0.50000000  0.74719700  1
  Rb  Rb6  1  0.98842300  0.50000000  0.76305000  1
  Rb  Rb7  1  0.51157700  0.00000000  0.23695000  1
  W  W8  1  0.17593800  0.00000000  0.22569500  1
  W  W9  1  0.32406200  0.50000000  0.77430500  1
  W  W10  1  0.67593800  0.50000000  0.22569500  1
  W  W11  1  0.82406200  0.00000000  0.77430500  1
  O  O12  1  0.14309850  0.22783150  0.08271200  1
  O  O13  1  0.35690150  0.72783150  0.91728800  1
  O  O14  1  0.35690150  0.27216850  0.91728800  1
  O  O15  1  0.14309850  0.77216850  0.08271200  1
  O  O16  1  0.17314200  0.50000000  0.62569600  1
  O  O17  1  0.32685800  0.00000000  0.37430400  1
  O  O18  1  0.09391800  0.00000000  0.35645200  1
  O  O19  1  0.40608200  0.50000000  0.64354800  1
  O  O20  1  0.64309850  0.72783150  0.08271200  1
  O  O21  1  0.85690150  0.22783150  0.91728800  1
  O  O22  1  0.85690150  0.77216850  0.91728800  1
  O  O23  1  0.64309850  0.27216850  0.08271200  1
  O  O24  1  0.67314200  0.00000000  0.62569600  1
  O  O25  1  0.82685800  0.50000000  0.37430400  1
  O  O26  1  0.59391800  0.50000000  0.35645200  1
  O  O27  1  0.90608200  0.00000000  0.64354800  1
