# generated using pymatgen
data_Ba5Sm8Mn4O21
_symmetry_space_group_name_H-M   'P 1'
_cell_length_a   14.26053827
_cell_length_b   14.26053827
_cell_length_c   5.89146494
_cell_angle_alpha   90.00000000
_cell_angle_beta   90.00000000
_cell_angle_gamma   90.00000000
_symmetry_Int_Tables_number   1
_chemical_formula_structural   Ba5Sm8Mn4O21
_chemical_formula_sum   'Ba10 Sm16 Mn8 O42'
_cell_volume   1198.10570013
_cell_formula_units_Z   2
loop_
 _symmetry_equiv_pos_site_id
 _symmetry_equiv_pos_as_xyz
  1  'x, y, z'
loop_
 _atom_site_type_symbol
 _atom_site_label
 _atom_site_symmetry_multiplicity
 _atom_site_fract_x
 _atom_site_fract_y
 _atom_site_fract_z
 _atom_site_occupancy
  Ba  Ba0  1  0.03209324  0.63675440  0.50000000  1
  Ba  Ba1  1  0.86324560  0.53209324  0.00000000  1
  Ba  Ba2  1  0.13675440  0.46790676  0.00000000  1
  Ba  Ba3  1  0.96790676  0.36324560  0.50000000  1
  Ba  Ba4  1  0.50000000  0.50000000  0.50000000  1
  Ba  Ba5  1  0.53209324  0.13675440  0.00000000  1
  Ba  Ba6  1  0.36324560  0.03209324  0.50000000  1
  Ba  Ba7  1  0.63675440  0.96790676  0.50000000  1
  Ba  Ba8  1  0.46790676  0.86324560  0.00000000  1
  Ba  Ba9  1  0.00000000  0.00000000  0.00000000  1
  Sm  Sm10  1  0.91100986  0.85758727  0.50000000  1
  Sm  Sm11  1  0.64241273  0.41100986  0.00000000  1
  Sm  Sm12  1  0.35758727  0.58899014  0.00000000  1
  Sm  Sm13  1  0.08899014  0.14241273  0.50000000  1
  Sm  Sm14  1  0.74742281  0.66912213  0.50000000  1
  Sm  Sm15  1  0.83087787  0.24742281  0.00000000  1
  Sm  Sm16  1  0.16912212  0.75257719  0.00000000  1
  Sm  Sm17  1  0.25257719  0.33087787  0.50000000  1
  Sm  Sm18  1  0.41100986  0.35758727  0.00000000  1
  Sm  Sm19  1  0.14241273  0.91100986  0.50000000  1
  Sm  Sm20  1  0.85758727  0.08899014  0.50000000  1
  Sm  Sm21  1  0.58899014  0.64241273  0.00000000  1
  Sm  Sm22  1  0.24742281  0.16912212  0.00000000  1
  Sm  Sm23  1  0.33087788  0.74742281  0.50000000  1
  Sm  Sm24  1  0.66912212  0.25257719  0.50000000  1
  Sm  Sm25  1  0.75257719  0.83087787  0.00000000  1
  Mn  Mn26  1  0.04011690  0.25083192  0.00000000  1
  Mn  Mn27  1  0.24916808  0.54011690  0.50000000  1
  Mn  Mn28  1  0.75083192  0.45988310  0.50000000  1
  Mn  Mn29  1  0.95988310  0.74916808  0.00000000  1
  Mn  Mn30  1  0.54011690  0.75083192  0.50000000  1
  Mn  Mn31  1  0.74916808  0.04011690  0.00000000  1
  Mn  Mn32  1  0.25083192  0.95988310  0.00000000  1
  Mn  Mn33  1  0.45988310  0.24916808  0.50000000  1
  O  O34  1  0.14830097  0.25820775  0.75218372  1
  O  O35  1  0.24179225  0.64830097  0.25218372  1
  O  O36  1  0.75820775  0.35169903  0.25218372  1
  O  O37  1  0.85169903  0.74179225  0.75218372  1
  O  O38  1  0.85169903  0.74179225  0.24781628  1
  O  O39  1  0.75820775  0.35169903  0.74781628  1
  O  O40  1  0.24179225  0.64830097  0.74781628  1
  O  O41  1  0.14830097  0.25820775  0.24781628  1
  O  O42  1  0.32161220  0.45282041  0.74885765  1
  O  O43  1  0.04717959  0.82161220  0.24885765  1
  O  O44  1  0.95282041  0.17838780  0.24885765  1
  O  O45  1  0.67838780  0.54717959  0.74885765  1
  O  O46  1  0.67838780  0.54717959  0.25114235  1
  O  O47  1  0.95282041  0.17838780  0.75114235  1
  O  O48  1  0.04717959  0.82161220  0.75114235  1
  O  O49  1  0.32161220  0.45282041  0.25114235  1
  O  O50  1  0.12410043  0.46567579  0.50000000  1
  O  O51  1  0.00000000  0.00000000  0.50000000  1
  O  O52  1  0.87589957  0.53432421  0.50000000  1
  O  O53  1  0.03432421  0.62410043  0.00000000  1
  O  O54  1  0.96567579  0.37589957  0.00000000  1
  O  O55  1  0.64830097  0.75820775  0.25218372  1
  O  O56  1  0.74179225  0.14830097  0.75218372  1
  O  O57  1  0.25820775  0.85169903  0.75218372  1
  O  O58  1  0.35169903  0.24179225  0.25218372  1
  O  O59  1  0.35169903  0.24179225  0.74781628  1
  O  O60  1  0.25820775  0.85169903  0.24781628  1
  O  O61  1  0.74179225  0.14830097  0.24781628  1
  O  O62  1  0.64830097  0.75820775  0.74781628  1
  O  O63  1  0.82161220  0.95282041  0.24885765  1
  O  O64  1  0.54717959  0.32161220  0.74885765  1
  O  O65  1  0.45282041  0.67838780  0.74885765  1
  O  O66  1  0.17838780  0.04717959  0.24885765  1
  O  O67  1  0.17838780  0.04717959  0.75114235  1
  O  O68  1  0.45282041  0.67838780  0.25114235  1
  O  O69  1  0.54717959  0.32161220  0.25114235  1
  O  O70  1  0.82161220  0.95282041  0.75114235  1
  O  O71  1  0.62410043  0.96567579  0.00000000  1
  O  O72  1  0.50000000  0.50000000  0.00000000  1
  O  O73  1  0.37589957  0.03432421  0.00000000  1
  O  O74  1  0.53432421  0.12410043  0.50000000  1
  O  O75  1  0.46567579  0.87589957  0.50000000  1
