# generated using pymatgen
data_CoMoO4
_symmetry_space_group_name_H-M   'P 1'
_cell_length_a   9.76030800
_cell_length_b   8.98583000
_cell_length_c   7.81613041
_cell_angle_alpha   90.00000000
_cell_angle_beta   113.91195954
_cell_angle_gamma   90.00000000
_symmetry_Int_Tables_number   1
_chemical_formula_structural   CoMoO4
_chemical_formula_sum   'Co8 Mo8 O32'
_cell_volume   626.67184407
_cell_formula_units_Z   8
loop_
 _symmetry_equiv_pos_site_id
 _symmetry_equiv_pos_as_xyz
  1  'x, y, z'
loop_
 _atom_site_type_symbol
 _atom_site_label
 _atom_site_symmetry_multiplicity
 _atom_site_fract_x
 _atom_site_fract_y
 _atom_site_fract_z
 _atom_site_occupancy
  Co  Co0  1  0.80953300  0.50000000  0.15887600  1
  Co  Co1  1  0.19046700  0.50000000  0.84112400  1
  Co  Co2  1  0.00000000  0.31149300  0.50000000  1
  Co  Co3  1  0.00000000  0.68850700  0.50000000  1
  Co  Co4  1  0.30953300  0.00000000  0.15887600  1
  Co  Co5  1  0.69046700  0.00000000  0.84112400  1
  Co  Co6  1  0.50000000  0.81149300  0.50000000  1
  Co  Co7  1  0.50000000  0.18850700  0.50000000  1
  Mo  Mo8  1  0.21568700  0.50000000  0.35841100  1
  Mo  Mo9  1  0.78431300  0.50000000  0.64158900  1
  Mo  Mo10  1  0.00000000  0.71537400  0.00000000  1
  Mo  Mo11  1  0.00000000  0.28462600  0.00000000  1
  Mo  Mo12  1  0.71568700  0.00000000  0.35841100  1
  Mo  Mo13  1  0.28431300  0.00000000  0.64158900  1
  Mo  Mo14  1  0.50000000  0.21537400  0.00000000  1
  Mo  Mo15  1  0.50000000  0.78462600  0.00000000  1
  O  O16  1  0.33766000  0.65395900  0.41856100  1
  O  O17  1  0.99718050  0.34938050  0.76203200  1
  O  O18  1  0.15541400  0.16416800  0.07637500  1
  O  O19  1  0.15153300  0.50000000  0.08520400  1
  O  O20  1  0.99718050  0.65061950  0.76203200  1
  O  O21  1  0.85038100  0.50000000  0.44055600  1
  O  O22  1  0.33766000  0.34604100  0.41856100  1
  O  O23  1  0.00281950  0.65061950  0.23796800  1
  O  O24  1  0.15541400  0.83583200  0.07637500  1
  O  O25  1  0.14961900  0.50000000  0.55944400  1
  O  O26  1  0.00281950  0.34938050  0.23796800  1
  O  O27  1  0.84846700  0.50000000  0.91479600  1
  O  O28  1  0.66234000  0.34604100  0.58143900  1
  O  O29  1  0.84458600  0.16416800  0.92362500  1
  O  O30  1  0.66234000  0.65395900  0.58143900  1
  O  O31  1  0.84458600  0.83583200  0.92362500  1
  O  O32  1  0.83766000  0.15395900  0.41856100  1
  O  O33  1  0.49718050  0.84938050  0.76203200  1
  O  O34  1  0.65541400  0.66416800  0.07637500  1
  O  O35  1  0.65153300  0.00000000  0.08520400  1
  O  O36  1  0.49718050  0.15061950  0.76203200  1
  O  O37  1  0.35038100  0.00000000  0.44055600  1
  O  O38  1  0.83766000  0.84604100  0.41856100  1
  O  O39  1  0.50281950  0.15061950  0.23796800  1
  O  O40  1  0.65541400  0.33583200  0.07637500  1
  O  O41  1  0.64961900  0.00000000  0.55944400  1
  O  O42  1  0.50281950  0.84938050  0.23796800  1
  O  O43  1  0.34846700  0.00000000  0.91479600  1
  O  O44  1  0.16234000  0.84604100  0.58143900  1
  O  O45  1  0.34458600  0.66416800  0.92362500  1
  O  O46  1  0.16234000  0.15395900  0.58143900  1
  O  O47  1  0.34458600  0.33583200  0.92362500  1
