# generated using pymatgen
data_Ho4(B2O5)3
_symmetry_space_group_name_H-M   'P 1'
_cell_length_a   11.71220800
_cell_length_b   4.39843800
_cell_length_c   18.88972277
_cell_angle_alpha   90.00000000
_cell_angle_beta   96.43453299
_cell_angle_gamma   90.00000000
_symmetry_Int_Tables_number   1
_chemical_formula_structural   Ho4(B2O5)3
_chemical_formula_sum   'Ho16 B24 O60'
_cell_volume   966.98195035
_cell_formula_units_Z   4
loop_
 _symmetry_equiv_pos_site_id
 _symmetry_equiv_pos_as_xyz
  1  'x, y, z'
loop_
 _atom_site_type_symbol
 _atom_site_label
 _atom_site_symmetry_multiplicity
 _atom_site_fract_x
 _atom_site_fract_y
 _atom_site_fract_z
 _atom_site_occupancy
  Ho  Ho0  1  0.86617200  0.80155000  0.90094000  1
  Ho  Ho1  1  0.63382800  0.30155000  0.59906000  1
  Ho  Ho2  1  0.63382800  0.69845000  0.09906000  1
  Ho  Ho3  1  0.86617200  0.19845000  0.40094000  1
  Ho  Ho4  1  0.63715950  0.28993350  0.80292100  1
  Ho  Ho5  1  0.86284050  0.78993350  0.69707900  1
  Ho  Ho6  1  0.86284050  0.21006650  0.19707900  1
  Ho  Ho7  1  0.63715950  0.71006650  0.30292100  1
  Ho  Ho8  1  0.36617200  0.30155000  0.90094000  1
  Ho  Ho9  1  0.13382800  0.80155000  0.59906000  1
  Ho  Ho10  1  0.13382800  0.19845000  0.09906000  1
  Ho  Ho11  1  0.36617200  0.69845000  0.40094000  1
  Ho  Ho12  1  0.13715950  0.78993350  0.80292100  1
  Ho  Ho13  1  0.36284050  0.28993350  0.69707900  1
  Ho  Ho14  1  0.36284050  0.71006650  0.19707900  1
  Ho  Ho15  1  0.13715950  0.21006650  0.30292100  1
  B  B16  1  0.66930800  0.30884600  0.97416600  1
  B  B17  1  0.83069200  0.80884600  0.52583400  1
  B  B18  1  0.83069200  0.19115400  0.02583400  1
  B  B19  1  0.66930800  0.69115400  0.47416600  1
  B  B20  1  0.56782750  0.77293050  0.69428700  1
  B  B21  1  0.93217250  0.27293050  0.80571300  1
  B  B22  1  0.93217250  0.72706950  0.30571300  1
  B  B23  1  0.56782750  0.22706950  0.19428700  1
  B  B24  1  0.59705700  0.79372300  0.91251200  1
  B  B25  1  0.90294300  0.29372300  0.58748800  1
  B  B26  1  0.90294300  0.70627700  0.08748800  1
  B  B27  1  0.59705700  0.20627700  0.41251200  1
  B  B28  1  0.16930800  0.80884600  0.97416600  1
  B  B29  1  0.33069200  0.30884600  0.52583400  1
  B  B30  1  0.33069200  0.69115400  0.02583400  1
  B  B31  1  0.16930800  0.19115400  0.47416600  1
  B  B32  1  0.06782750  0.27293050  0.69428700  1
  B  B33  1  0.43217250  0.77293050  0.80571300  1
  B  B34  1  0.43217250  0.22706950  0.30571300  1
  B  B35  1  0.06782750  0.72706950  0.19428700  1
  B  B36  1  0.09705700  0.29372300  0.91251200  1
  B  B37  1  0.40294300  0.79372300  0.58748800  1
  B  B38  1  0.40294300  0.20627700  0.08748800  1
  B  B39  1  0.09705700  0.70627700  0.41251200  1
  O  O40  1  0.81919950  0.74235150  0.13877200  1
  O  O41  1  0.68080050  0.75764850  0.86122800  1
  O  O42  1  0.79150000  0.70295500  0.45074000  1
  O  O43  1  0.70850000  0.20295500  0.04926000  1
  O  O44  1  0.70850000  0.79704500  0.54926000  1
  O  O45  1  0.79150000  0.29704500  0.95074000  1
  O  O46  1  0.98591050  0.82393750  0.37849500  1
  O  O47  1  0.51408950  0.32393750  0.12150500  1
  O  O48  1  0.81919950  0.25764850  0.63877200  1
  O  O49  1  0.98591050  0.17606250  0.87849500  1
  O  O50  1  0.56565500  0.90089600  0.19681700  1
  O  O51  1  0.93434500  0.40089600  0.30318300  1
  O  O52  1  0.93434500  0.59910400  0.80318300  1
  O  O53  1  0.56565500  0.09910400  0.69681700  1
  O  O54  1  0.58532000  0.87350800  0.42937400  1
  O  O55  1  0.91468000  0.37350800  0.07062600  1
  O  O56  1  0.91468000  0.62649200  0.57062600  1
  O  O57  1  0.58532000  0.12649200  0.92937400  1
  O  O58  1  0.87275050  0.11982950  0.52103300  1
  O  O59  1  0.62724950  0.61982950  0.97896700  1
  O  O60  1  0.62724950  0.38017050  0.47896700  1
  O  O61  1  0.87275050  0.88017050  0.02103300  1
  O  O62  1  0.81849150  0.86715750  0.29652900  1
  O  O63  1  0.68150850  0.36715750  0.20347100  1
  O  O64  1  0.68150850  0.63284250  0.70347100  1
  O  O65  1  0.81849150  0.13284250  0.79652900  1
  O  O66  1  0.00000000  0.13331200  0.75000000  1
  O  O67  1  0.00000000  0.86668800  0.25000000  1
  O  O68  1  0.51408950  0.67606250  0.62150500  1
  O  O69  1  0.68080050  0.24235150  0.36122800  1
  O  O70  1  0.31919950  0.24235150  0.13877200  1
  O  O71  1  0.18080050  0.25764850  0.86122800  1
  O  O72  1  0.29150000  0.20295500  0.45074000  1
  O  O73  1  0.20850000  0.70295500  0.04926000  1
  O  O74  1  0.20850000  0.29704500  0.54926000  1
  O  O75  1  0.29150000  0.79704500  0.95074000  1
  O  O76  1  0.48591050  0.32393750  0.37849500  1
  O  O77  1  0.01408950  0.82393750  0.12150500  1
  O  O78  1  0.31919950  0.75764850  0.63877200  1
  O  O79  1  0.48591050  0.67606250  0.87849500  1
  O  O80  1  0.06565500  0.40089600  0.19681700  1
  O  O81  1  0.43434500  0.90089600  0.30318300  1
  O  O82  1  0.43434500  0.09910400  0.80318300  1
  O  O83  1  0.06565500  0.59910400  0.69681700  1
  O  O84  1  0.08532000  0.37350800  0.42937400  1
  O  O85  1  0.41468000  0.87350800  0.07062600  1
  O  O86  1  0.41468000  0.12649200  0.57062600  1
  O  O87  1  0.08532000  0.62649200  0.92937400  1
  O  O88  1  0.37275050  0.61982950  0.52103300  1
  O  O89  1  0.12724950  0.11982950  0.97896700  1
  O  O90  1  0.12724950  0.88017050  0.47896700  1
  O  O91  1  0.37275050  0.38017050  0.02103300  1
  O  O92  1  0.31849150  0.36715750  0.29652900  1
  O  O93  1  0.18150850  0.86715750  0.20347100  1
  O  O94  1  0.18150850  0.13284250  0.70347100  1
  O  O95  1  0.31849150  0.63284250  0.79652900  1
  O  O96  1  0.50000000  0.63331200  0.75000000  1
  O  O97  1  0.50000000  0.36668800  0.25000000  1
  O  O98  1  0.01408950  0.17606250  0.62150500  1
  O  O99  1  0.18080050  0.74235150  0.36122800  1
