# generated using pymatgen
data_CaAl2SiO6
_symmetry_space_group_name_H-M   'P 1'
_cell_length_a   5.33049900
_cell_length_b   8.73883193
_cell_length_c   9.71459065
_cell_angle_alpha   90.10340580
_cell_angle_beta   105.49290995
_cell_angle_gamma   90.24352067
_symmetry_Int_Tables_number   1
_chemical_formula_structural   CaAl2SiO6
_chemical_formula_sum   'Ca4 Al8 Si4 O24'
_cell_volume   436.07905795
_cell_formula_units_Z   4
loop_
 _symmetry_equiv_pos_site_id
 _symmetry_equiv_pos_as_xyz
  1  'x, y, z'
loop_
 _atom_site_type_symbol
 _atom_site_label
 _atom_site_symmetry_multiplicity
 _atom_site_fract_x
 _atom_site_fract_y
 _atom_site_fract_z
 _atom_site_occupancy
  Ca  Ca0  1  0.24325300  0.30959200  0.99623900  1
  Ca  Ca1  1  0.75730100  0.81382700  0.51316300  1
  Ca  Ca2  1  0.74373100  0.68748600  0.99647400  1
  Ca  Ca3  1  0.25736100  0.18848200  0.51355100  1
  Al  Al4  1  0.92053600  0.09685700  0.71222400  1
  Al  Al5  1  0.57355200  0.40272100  0.78281500  1
  Al  Al6  1  0.41924900  0.90164700  0.71068700  1
  Al  Al7  1  0.92495300  0.40156900  0.21510400  1
  Al  Al8  1  0.24975000  0.90985000  0.99762600  1
  Al  Al9  1  0.76411100  0.40719700  0.50440500  1
  Al  Al10  1  0.74726000  0.09353000  0.99533300  1
  Al  Al11  1  0.26152300  0.58883700  0.50150100  1
  Si  Si12  1  0.42482000  0.59661700  0.20822500  1
  Si  Si13  1  0.56787800  0.09452300  0.28550400  1
  Si  Si14  1  0.07664700  0.59637700  0.79088700  1
  Si  Si15  1  0.06791500  0.90241000  0.28699600  1
  O  O16  1  0.01973600  0.07283800  0.90265200  1
  O  O17  1  0.95669000  0.27474200  0.63662300  1
  O  O18  1  0.60905300  0.02497200  0.63548200  1
  O  O19  1  0.51778600  0.58505600  0.38519500  1
  O  O20  1  0.44427900  0.76404900  0.13661200  1
  O  O21  1  0.13165900  0.52465000  0.14558900  1
  O  O22  1  0.47943200  0.08141000  0.11095900  1
  O  O23  1  0.57191900  0.25813900  0.36324200  1
  O  O24  1  0.85610300  0.01060100  0.34482200  1
  O  O25  1  0.98732000  0.58895000  0.61334000  1
  O  O26  1  0.06031400  0.76202300  0.86630400  1
  O  O27  1  0.36769200  0.52433600  0.85332400  1
  O  O28  1  0.98720500  0.90685200  0.11201400  1
  O  O29  1  0.06445800  0.74261700  0.36924600  1
  O  O30  1  0.35675800  0.98822600  0.34645500  1
  O  O31  1  0.48807300  0.41849400  0.59406900  1
  O  O32  1  0.55224600  0.23233200  0.87078600  1
  O  O33  1  0.88218400  0.48719800  0.85562600  1
  O  O34  1  0.52016700  0.91840600  0.90325600  1
  O  O35  1  0.45545500  0.72604200  0.63020100  1
  O  O36  1  0.10941600  0.97553800  0.63576800  1
  O  O37  1  0.02100400  0.42746900  0.40287200  1
  O  O38  1  0.94500500  0.22766700  0.13172900  1
  O  O39  1  0.61620500  0.48586900  0.14310000  1
