# generated using pymatgen
data_BaV10O15
_symmetry_space_group_name_H-M   'P 1'
_cell_length_a   10.36377800
_cell_length_b   11.81831200
_cell_length_c   9.72532800
_cell_angle_alpha   90.00000000
_cell_angle_beta   90.00000000
_cell_angle_gamma   90.00000000
_symmetry_Int_Tables_number   1
_chemical_formula_structural   BaV10O15
_chemical_formula_sum   'Ba4 V40 O60'
_cell_volume   1191.18114372
_cell_formula_units_Z   4
loop_
 _symmetry_equiv_pos_site_id
 _symmetry_equiv_pos_as_xyz
  1  'x, y, z'
loop_
 _atom_site_type_symbol
 _atom_site_label
 _atom_site_symmetry_multiplicity
 _atom_site_fract_x
 _atom_site_fract_y
 _atom_site_fract_z
 _atom_site_occupancy
  Ba  Ba0  1  0.00000000  0.00000000  0.50000000  1
  Ba  Ba1  1  0.50000000  0.00000000  0.00000000  1
  Ba  Ba2  1  0.50000000  0.50000000  0.50000000  1
  Ba  Ba3  1  0.00000000  0.50000000  0.00000000  1
  V  V4  1  0.66418000  0.75591100  0.11986800  1
  V  V5  1  0.33582000  0.74408900  0.61986800  1
  V  V6  1  0.66418000  0.74408900  0.38013200  1
  V  V7  1  0.33582000  0.75591100  0.88013200  1
  V  V8  1  0.33582000  0.24408900  0.88013200  1
  V  V9  1  0.66418000  0.25591100  0.38013200  1
  V  V10  1  0.33582000  0.25591100  0.61986800  1
  V  V11  1  0.66418000  0.24408900  0.11986800  1
  V  V12  1  0.41260800  0.37268100  0.14106000  1
  V  V13  1  0.58739200  0.12731900  0.64106000  1
  V  V14  1  0.41260800  0.12731900  0.35894000  1
  V  V15  1  0.58739200  0.37268100  0.85894000  1
  V  V16  1  0.58739200  0.62731900  0.85894000  1
  V  V17  1  0.41260800  0.87268100  0.35894000  1
  V  V18  1  0.58739200  0.87268100  0.64106000  1
  V  V19  1  0.41260800  0.62731900  0.14106000  1
  V  V20  1  0.81984700  0.00000000  0.86504700  1
  V  V21  1  0.68015300  0.00000000  0.36504700  1
  V  V22  1  0.31984700  0.00000000  0.63495300  1
  V  V23  1  0.18015300  0.00000000  0.13495300  1
  V  V24  1  0.16418000  0.25591100  0.11986800  1
  V  V25  1  0.83582000  0.24408900  0.61986800  1
  V  V26  1  0.16418000  0.24408900  0.38013200  1
  V  V27  1  0.83582000  0.25591100  0.88013200  1
  V  V28  1  0.83582000  0.74408900  0.88013200  1
  V  V29  1  0.16418000  0.75591100  0.38013200  1
  V  V30  1  0.83582000  0.75591100  0.61986800  1
  V  V31  1  0.16418000  0.74408900  0.11986800  1
  V  V32  1  0.91260800  0.87268100  0.14106000  1
  V  V33  1  0.08739200  0.62731900  0.64106000  1
  V  V34  1  0.91260800  0.62731900  0.35894000  1
  V  V35  1  0.08739200  0.87268100  0.85894000  1
  V  V36  1  0.08739200  0.12731900  0.85894000  1
  V  V37  1  0.91260800  0.37268100  0.35894000  1
  V  V38  1  0.08739200  0.37268100  0.64106000  1
  V  V39  1  0.91260800  0.12731900  0.14106000  1
  V  V40  1  0.31984700  0.50000000  0.86504700  1
  V  V41  1  0.18015300  0.50000000  0.36504700  1
  V  V42  1  0.81984700  0.50000000  0.63495300  1
  V  V43  1  0.68015300  0.50000000  0.13495300  1
  O  O44  1  0.50000000  0.00000000  0.50000000  1
  O  O45  1  0.00000000  0.00000000  0.00000000  1
  O  O46  1  0.15825700  0.00000000  0.74622500  1
  O  O47  1  0.34174300  0.00000000  0.24622500  1
  O  O48  1  0.65825700  0.00000000  0.75377500  1
  O  O49  1  0.84174300  0.00000000  0.25377500  1
  O  O50  1  0.58557900  0.62504100  0.24090500  1
  O  O51  1  0.41442100  0.87495900  0.74090500  1
  O  O52  1  0.58557900  0.87495900  0.25909500  1
  O  O53  1  0.41442100  0.62504100  0.75909500  1
  O  O54  1  0.41442100  0.37495900  0.75909500  1
  O  O55  1  0.58557900  0.12504100  0.25909500  1
  O  O56  1  0.41442100  0.12504100  0.74090500  1
  O  O57  1  0.58557900  0.37495900  0.24090500  1
  O  O58  1  0.32419000  0.25000000  0.25000000  1
  O  O59  1  0.67581000  0.25000000  0.75000000  1
  O  O60  1  0.67581000  0.75000000  0.75000000  1
  O  O61  1  0.32419000  0.75000000  0.25000000  1
  O  O62  1  0.23828600  0.12454200  0.99770700  1
  O  O63  1  0.26171400  0.87545800  0.49770700  1
  O  O64  1  0.73828600  0.87545800  0.50229300  1
  O  O65  1  0.76171400  0.12454200  0.00229300  1
  O  O66  1  0.50000000  0.26105100  0.00000000  1
  O  O67  1  0.50000000  0.23894900  0.50000000  1
  O  O68  1  0.50000000  0.73894900  0.00000000  1
  O  O69  1  0.50000000  0.76105100  0.50000000  1
  O  O70  1  0.23828600  0.87545800  0.99770700  1
  O  O71  1  0.26171400  0.12454200  0.49770700  1
  O  O72  1  0.73828600  0.12454200  0.50229300  1
  O  O73  1  0.76171400  0.87545800  0.00229300  1
  O  O74  1  0.00000000  0.50000000  0.50000000  1
  O  O75  1  0.50000000  0.50000000  0.00000000  1
  O  O76  1  0.65825700  0.50000000  0.74622500  1
  O  O77  1  0.84174300  0.50000000  0.24622500  1
  O  O78  1  0.15825700  0.50000000  0.75377500  1
  O  O79  1  0.34174300  0.50000000  0.25377500  1
  O  O80  1  0.08557900  0.12504100  0.24090500  1
  O  O81  1  0.91442100  0.37495900  0.74090500  1
  O  O82  1  0.08557900  0.37495900  0.25909500  1
  O  O83  1  0.91442100  0.12504100  0.75909500  1
  O  O84  1  0.91442100  0.87495900  0.75909500  1
  O  O85  1  0.08557900  0.62504100  0.25909500  1
  O  O86  1  0.91442100  0.62504100  0.74090500  1
  O  O87  1  0.08557900  0.87495900  0.24090500  1
  O  O88  1  0.82419000  0.75000000  0.25000000  1
  O  O89  1  0.17581000  0.75000000  0.75000000  1
  O  O90  1  0.17581000  0.25000000  0.75000000  1
  O  O91  1  0.82419000  0.25000000  0.25000000  1
  O  O92  1  0.73828600  0.62454200  0.99770700  1
  O  O93  1  0.76171400  0.37545800  0.49770700  1
  O  O94  1  0.23828600  0.37545800  0.50229300  1
  O  O95  1  0.26171400  0.62454200  0.00229300  1
  O  O96  1  0.00000000  0.76105100  0.00000000  1
  O  O97  1  0.00000000  0.73894900  0.50000000  1
  O  O98  1  0.00000000  0.23894900  0.00000000  1
  O  O99  1  0.00000000  0.26105100  0.50000000  1
  O  O100  1  0.73828600  0.37545800  0.99770700  1
  O  O101  1  0.76171400  0.62454200  0.49770700  1
  O  O102  1  0.23828600  0.62454200  0.50229300  1
  O  O103  1  0.26171400  0.37545800  0.00229300  1
