# generated using pymatgen
data_Na2Mg2(Si2O5)3
_symmetry_space_group_name_H-M   'P 1'
_cell_length_a   14.40951800
_cell_length_b   17.76458200
_cell_length_c   10.32022100
_cell_angle_alpha   90.00000000
_cell_angle_beta   90.00000000
_cell_angle_gamma   90.00000000
_symmetry_Int_Tables_number   1
_chemical_formula_structural   Na2Mg2(Si2O5)3
_chemical_formula_sum   'Na16 Mg16 Si48 O120'
_cell_volume   2641.76051280
_cell_formula_units_Z   8
loop_
 _symmetry_equiv_pos_site_id
 _symmetry_equiv_pos_as_xyz
  1  'x, y, z'
loop_
 _atom_site_type_symbol
 _atom_site_label
 _atom_site_symmetry_multiplicity
 _atom_site_fract_x
 _atom_site_fract_y
 _atom_site_fract_z
 _atom_site_occupancy
  Na  Na0  1  0.25000000  0.23085000  0.75000000  1
  Na  Na1  1  0.25000000  0.76915000  0.25000000  1
  Na  Na2  1  0.75000000  0.76915000  0.25000000  1
  Na  Na3  1  0.75000000  0.23085000  0.75000000  1
  Na  Na4  1  0.50000000  0.40847500  0.76080000  1
  Na  Na5  1  0.50000000  0.09152500  0.26080000  1
  Na  Na6  1  0.50000000  0.59152500  0.23920000  1
  Na  Na7  1  0.50000000  0.90847500  0.73920000  1
  Na  Na8  1  0.75000000  0.73085000  0.75000000  1
  Na  Na9  1  0.75000000  0.26915000  0.25000000  1
  Na  Na10  1  0.25000000  0.26915000  0.25000000  1
  Na  Na11  1  0.25000000  0.73085000  0.75000000  1
  Na  Na12  1  0.00000000  0.90847500  0.76080000  1
  Na  Na13  1  0.00000000  0.59152500  0.26080000  1
  Na  Na14  1  0.00000000  0.09152500  0.23920000  1
  Na  Na15  1  0.00000000  0.40847500  0.73920000  1
  Mg  Mg16  1  0.25000000  0.91070100  0.75000000  1
  Mg  Mg17  1  0.25000000  0.08929900  0.25000000  1
  Mg  Mg18  1  0.75000000  0.08929900  0.25000000  1
  Mg  Mg19  1  0.75000000  0.91070100  0.75000000  1
  Mg  Mg20  1  0.25134500  0.00000000  0.50000000  1
  Mg  Mg21  1  0.24865500  0.00000000  0.00000000  1
  Mg  Mg22  1  0.74865500  0.00000000  0.50000000  1
  Mg  Mg23  1  0.75134500  0.00000000  0.00000000  1
  Mg  Mg24  1  0.75000000  0.41070100  0.75000000  1
  Mg  Mg25  1  0.75000000  0.58929900  0.25000000  1
  Mg  Mg26  1  0.25000000  0.58929900  0.25000000  1
  Mg  Mg27  1  0.25000000  0.41070100  0.75000000  1
  Mg  Mg28  1  0.75134500  0.50000000  0.50000000  1
  Mg  Mg29  1  0.74865500  0.50000000  0.00000000  1
  Mg  Mg30  1  0.24865500  0.50000000  0.50000000  1
  Mg  Mg31  1  0.25134500  0.50000000  0.00000000  1
  Si  Si32  1  0.61247650  0.30805650  0.95972500  1
  Si  Si33  1  0.38752350  0.19194350  0.45972500  1
  Si  Si34  1  0.61247650  0.69194350  0.04027500  1
  Si  Si35  1  0.38752350  0.80805650  0.54027500  1
  Si  Si36  1  0.38752350  0.69194350  0.04027500  1
  Si  Si37  1  0.61247650  0.80805650  0.54027500  1
  Si  Si38  1  0.38752350  0.30805650  0.95972500  1
  Si  Si39  1  0.61247650  0.19194350  0.45972500  1
  Si  Si40  1  0.11081450  0.92526250  0.18959600  1
  Si  Si41  1  0.38918550  0.07473750  0.68959600  1
  Si  Si42  1  0.11081450  0.07473750  0.81040400  1
  Si  Si43  1  0.38918550  0.92526250  0.31040400  1
  Si  Si44  1  0.88918550  0.07473750  0.81040400  1
  Si  Si45  1  0.61081450  0.92526250  0.31040400  1
  Si  Si46  1  0.88918550  0.92526250  0.18959600  1
  Si  Si47  1  0.61081450  0.07473750  0.68959600  1
  Si  Si48  1  0.61045750  0.36810650  0.48633200  1
  Si  Si49  1  0.38954250  0.13189350  0.98633200  1
  Si  Si50  1  0.61045750  0.63189350  0.51366800  1
  Si  Si51  1  0.38954250  0.86810650  0.01366800  1
  Si  Si52  1  0.38954250  0.63189350  0.51366800  1
  Si  Si53  1  0.61045750  0.86810650  0.01366800  1
  Si  Si54  1  0.38954250  0.36810650  0.48633200  1
  Si  Si55  1  0.61045750  0.13189350  0.98633200  1
  Si  Si56  1  0.11247650  0.80805650  0.95972500  1
  Si  Si57  1  0.88752350  0.69194350  0.45972500  1
  Si  Si58  1  0.11247650  0.19194350  0.04027500  1
  Si  Si59  1  0.88752350  0.30805650  0.54027500  1
  Si  Si60  1  0.88752350  0.19194350  0.04027500  1
  Si  Si61  1  0.11247650  0.30805650  0.54027500  1
  Si  Si62  1  0.88752350  0.80805650  0.95972500  1
  Si  Si63  1  0.11247650  0.69194350  0.45972500  1
  Si  Si64  1  0.61081450  0.42526250  0.18959600  1
  Si  Si65  1  0.88918550  0.57473750  0.68959600  1
  Si  Si66  1  0.61081450  0.57473750  0.81040400  1
  Si  Si67  1  0.88918550  0.42526250  0.31040400  1
  Si  Si68  1  0.38918550  0.57473750  0.81040400  1
  Si  Si69  1  0.11081450  0.42526250  0.31040400  1
  Si  Si70  1  0.38918550  0.42526250  0.18959600  1
  Si  Si71  1  0.11081450  0.57473750  0.68959600  1
  Si  Si72  1  0.11045750  0.86810650  0.48633200  1
  Si  Si73  1  0.88954250  0.63189350  0.98633200  1
  Si  Si74  1  0.11045750  0.13189350  0.51366800  1
  Si  Si75  1  0.88954250  0.36810650  0.01366800  1
  Si  Si76  1  0.88954250  0.13189350  0.51366800  1
  Si  Si77  1  0.11045750  0.36810650  0.01366800  1
  Si  Si78  1  0.88954250  0.86810650  0.48633200  1
  Si  Si79  1  0.11045750  0.63189350  0.98633200  1
  O  O80  1  0.50000000  0.68159700  0.05998800  1
  O  O81  1  0.50000000  0.81840300  0.55998800  1
  O  O82  1  0.50000000  0.31840300  0.94001200  1
  O  O83  1  0.50000000  0.18159700  0.44001200  1
  O  O84  1  0.50000000  0.55250200  0.82185800  1
  O  O85  1  0.50000000  0.94749800  0.32185800  1
  O  O86  1  0.50000000  0.44749800  0.17814200  1
  O  O87  1  0.50000000  0.05250200  0.67814200  1
  O  O88  1  0.50000000  0.62010400  0.47562200  1
  O  O89  1  0.50000000  0.87989600  0.97562200  1
  O  O90  1  0.50000000  0.37989600  0.52437800  1
  O  O91  1  0.50000000  0.12010400  0.02437800  1
  O  O92  1  0.66228150  0.33238550  0.82896500  1
  O  O93  1  0.33771850  0.16761450  0.32896500  1
  O  O94  1  0.66228150  0.66761450  0.17103500  1
  O  O95  1  0.33771850  0.83238550  0.67103500  1
  O  O96  1  0.33771850  0.66761450  0.17103500  1
  O  O97  1  0.66228150  0.83238550  0.67103500  1
  O  O98  1  0.33771850  0.33238550  0.82896500  1
  O  O99  1  0.66228150  0.16761450  0.32896500  1
  O  O100  1  0.64087850  0.35687450  0.09048900  1
  O  O101  1  0.35912150  0.14312550  0.59048900  1
  O  O102  1  0.64087850  0.64312550  0.90951100  1
  O  O103  1  0.35912150  0.85687450  0.40951100  1
  O  O104  1  0.87082050  0.11116750  0.66669600  1
  O  O105  1  0.35912150  0.64312550  0.90951100  1
  O  O106  1  0.35912150  0.35687450  0.09048900  1
  O  O107  1  0.64087850  0.14312550  0.59048900  1
  O  O108  1  0.17090250  0.99887350  0.15828700  1
  O  O109  1  0.32909750  0.00112650  0.65828700  1
  O  O110  1  0.17090250  0.00112650  0.84171300  1
  O  O111  1  0.32909750  0.99887350  0.34171300  1
  O  O112  1  0.82909750  0.00112650  0.84171300  1
  O  O113  1  0.67090250  0.99887350  0.34171300  1
  O  O114  1  0.82909750  0.99887350  0.15828700  1
  O  O115  1  0.67090250  0.00112650  0.65828700  1
  O  O116  1  0.12917950  0.88883250  0.33330400  1
  O  O117  1  0.37082050  0.11116750  0.83330400  1
  O  O118  1  0.12917950  0.11116750  0.66669600  1
  O  O119  1  0.37082050  0.88883250  0.16669600  1
  O  O120  1  0.63668250  0.22092950  0.00276400  1
  O  O121  1  0.36331750  0.27907050  0.50276400  1
  O  O122  1  0.63668250  0.77907050  0.99723600  1
  O  O123  1  0.36331750  0.72092950  0.49723600  1
  O  O124  1  0.36331750  0.77907050  0.99723600  1
  O  O125  1  0.63668250  0.72092950  0.49723600  1
  O  O126  1  0.36331750  0.22092950  0.00276400  1
  O  O127  1  0.63668250  0.27907050  0.50276400  1
  O  O128  1  0.67181050  0.07853350  0.07729400  1
  O  O129  1  0.82818950  0.92146650  0.57729400  1
  O  O130  1  0.67181050  0.92146650  0.92270600  1
  O  O131  1  0.82818950  0.07853350  0.42270600  1
  O  O132  1  0.32818950  0.92146650  0.92270600  1
  O  O133  1  0.17181050  0.07853350  0.42270600  1
  O  O134  1  0.32818950  0.07853350  0.07729400  1
  O  O135  1  0.17181050  0.92146650  0.57729400  1
  O  O136  1  0.62917950  0.11116750  0.83330400  1
  O  O137  1  0.87082050  0.88883250  0.33330400  1
  O  O138  1  0.62917950  0.88883250  0.16669600  1
  O  O139  1  0.64087850  0.85687450  0.40951100  1
  O  O140  1  0.00000000  0.18159700  0.05998800  1
  O  O141  1  0.00000000  0.31840300  0.55998800  1
  O  O142  1  0.00000000  0.81840300  0.94001200  1
  O  O143  1  0.00000000  0.68159700  0.44001200  1
  O  O144  1  0.00000000  0.05250200  0.82185800  1
  O  O145  1  0.00000000  0.44749800  0.32185800  1
  O  O146  1  0.00000000  0.94749800  0.17814200  1
  O  O147  1  0.00000000  0.55250200  0.67814200  1
  O  O148  1  0.00000000  0.12010400  0.47562200  1
  O  O149  1  0.00000000  0.37989600  0.97562200  1
  O  O150  1  0.00000000  0.87989600  0.52437800  1
  O  O151  1  0.00000000  0.62010400  0.02437800  1
  O  O152  1  0.16228150  0.83238550  0.82896500  1
  O  O153  1  0.83771850  0.66761450  0.32896500  1
  O  O154  1  0.16228150  0.16761450  0.17103500  1
  O  O155  1  0.83771850  0.33238550  0.67103500  1
  O  O156  1  0.83771850  0.16761450  0.17103500  1
  O  O157  1  0.16228150  0.33238550  0.67103500  1
  O  O158  1  0.83771850  0.83238550  0.82896500  1
  O  O159  1  0.16228150  0.66761450  0.32896500  1
  O  O160  1  0.14087850  0.85687450  0.09048900  1
  O  O161  1  0.85912150  0.64312550  0.59048900  1
  O  O162  1  0.14087850  0.14312550  0.90951100  1
  O  O163  1  0.85912150  0.35687450  0.40951100  1
  O  O164  1  0.37082050  0.61116750  0.66669600  1
  O  O165  1  0.85912150  0.14312550  0.90951100  1
  O  O166  1  0.85912150  0.85687450  0.09048900  1
  O  O167  1  0.14087850  0.64312550  0.59048900  1
  O  O168  1  0.67090250  0.49887350  0.15828700  1
  O  O169  1  0.82909750  0.50112650  0.65828700  1
  O  O170  1  0.67090250  0.50112650  0.84171300  1
  O  O171  1  0.82909750  0.49887350  0.34171300  1
  O  O172  1  0.32909750  0.50112650  0.84171300  1
  O  O173  1  0.17090250  0.49887350  0.34171300  1
  O  O174  1  0.32909750  0.49887350  0.15828700  1
  O  O175  1  0.17090250  0.50112650  0.65828700  1
  O  O176  1  0.62917950  0.38883250  0.33330400  1
  O  O177  1  0.87082050  0.61116750  0.83330400  1
  O  O178  1  0.62917950  0.61116750  0.66669600  1
  O  O179  1  0.87082050  0.38883250  0.16669600  1
  O  O180  1  0.13668250  0.72092950  0.00276400  1
  O  O181  1  0.86331750  0.77907050  0.50276400  1
  O  O182  1  0.13668250  0.27907050  0.99723600  1
  O  O183  1  0.86331750  0.22092950  0.49723600  1
  O  O184  1  0.86331750  0.27907050  0.99723600  1
  O  O185  1  0.13668250  0.22092950  0.49723600  1
  O  O186  1  0.86331750  0.72092950  0.00276400  1
  O  O187  1  0.13668250  0.77907050  0.50276400  1
  O  O188  1  0.17181050  0.57853350  0.07729400  1
  O  O189  1  0.32818950  0.42146650  0.57729400  1
  O  O190  1  0.17181050  0.42146650  0.92270600  1
  O  O191  1  0.32818950  0.57853350  0.42270600  1
  O  O192  1  0.82818950  0.42146650  0.92270600  1
  O  O193  1  0.67181050  0.57853350  0.42270600  1
  O  O194  1  0.82818950  0.57853350  0.07729400  1
  O  O195  1  0.67181050  0.42146650  0.57729400  1
  O  O196  1  0.12917950  0.61116750  0.83330400  1
  O  O197  1  0.37082050  0.38883250  0.33330400  1
  O  O198  1  0.12917950  0.38883250  0.16669600  1
  O  O199  1  0.14087850  0.35687450  0.40951100  1
