# generated using pymatgen
data_Nd4Si2Se3O7
_symmetry_space_group_name_H-M   'P 1'
_cell_length_a   12.19582000
_cell_length_b   12.19582000
_cell_length_c   14.54220600
_cell_angle_alpha   90.00000000
_cell_angle_beta   90.00000000
_cell_angle_gamma   90.00000000
_symmetry_Int_Tables_number   1
_chemical_formula_structural   Nd4Si2Se3O7
_chemical_formula_sum   'Nd32 Si16 Se24 O56'
_cell_volume   2162.97900645
_cell_formula_units_Z   8
loop_
 _symmetry_equiv_pos_site_id
 _symmetry_equiv_pos_as_xyz
  1  'x, y, z'
loop_
 _atom_site_type_symbol
 _atom_site_label
 _atom_site_symmetry_multiplicity
 _atom_site_fract_x
 _atom_site_fract_y
 _atom_site_fract_z
 _atom_site_occupancy
  Nd  Nd0  1  0.17248300  0.82751700  0.50000000  1
  Nd  Nd1  1  0.82751700  0.17248300  0.50000000  1
  Nd  Nd2  1  0.67248300  0.17248300  0.25000000  1
  Nd  Nd3  1  0.32751700  0.82751700  0.25000000  1
  Nd  Nd4  1  0.32751700  0.32751700  0.00000000  1
  Nd  Nd5  1  0.67248300  0.82751700  0.25000000  1
  Nd  Nd6  1  0.32751700  0.17248300  0.25000000  1
  Nd  Nd7  1  0.17248300  0.17248300  0.50000000  1
  Nd  Nd8  1  0.76046300  0.00000000  0.04124000  1
  Nd  Nd9  1  0.23953700  0.00000000  0.04124000  1
  Nd  Nd10  1  0.50000000  0.73953700  0.45876000  1
  Nd  Nd11  1  0.50000000  0.23953700  0.79124000  1
  Nd  Nd12  1  0.00000000  0.26046300  0.29124000  1
  Nd  Nd13  1  0.26046300  0.00000000  0.70876000  1
  Nd  Nd14  1  0.23953700  0.50000000  0.20876000  1
  Nd  Nd15  1  0.50000000  0.26046300  0.45876000  1
  Nd  Nd16  1  0.67248300  0.32751700  0.00000000  1
  Nd  Nd17  1  0.32751700  0.67248300  0.00000000  1
  Nd  Nd18  1  0.17248300  0.67248300  0.75000000  1
  Nd  Nd19  1  0.82751700  0.32751700  0.75000000  1
  Nd  Nd20  1  0.82751700  0.82751700  0.50000000  1
  Nd  Nd21  1  0.17248300  0.32751700  0.75000000  1
  Nd  Nd22  1  0.82751700  0.67248300  0.75000000  1
  Nd  Nd23  1  0.67248300  0.67248300  0.00000000  1
  Nd  Nd24  1  0.26046300  0.50000000  0.54124000  1
  Nd  Nd25  1  0.73953700  0.50000000  0.54124000  1
  Nd  Nd26  1  0.00000000  0.23953700  0.95876000  1
  Nd  Nd27  1  0.00000000  0.73953700  0.29124000  1
  Nd  Nd28  1  0.50000000  0.76046300  0.79124000  1
  Nd  Nd29  1  0.76046300  0.50000000  0.20876000  1
  Nd  Nd30  1  0.73953700  0.00000000  0.70876000  1
  Nd  Nd31  1  0.00000000  0.76046300  0.95876000  1
  Si  Si32  1  0.12395700  0.00000000  0.28140700  1
  Si  Si33  1  0.37604300  0.50000000  0.78140700  1
  Si  Si34  1  0.50000000  0.37604300  0.21859300  1
  Si  Si35  1  0.00000000  0.37604300  0.53140700  1
  Si  Si36  1  0.50000000  0.12395700  0.03140700  1
  Si  Si37  1  0.12395700  0.50000000  0.96859300  1
  Si  Si38  1  0.37604300  0.00000000  0.46859300  1
  Si  Si39  1  0.00000000  0.12395700  0.71859300  1
  Si  Si40  1  0.62395700  0.50000000  0.78140700  1
  Si  Si41  1  0.87604300  0.00000000  0.28140700  1
  Si  Si42  1  0.00000000  0.87604300  0.71859300  1
  Si  Si43  1  0.50000000  0.87604300  0.03140700  1
  Si  Si44  1  0.00000000  0.62395700  0.53140700  1
  Si  Si45  1  0.62395700  0.00000000  0.46859300  1
  Si  Si46  1  0.87604300  0.50000000  0.96859300  1
  Si  Si47  1  0.50000000  0.62395700  0.21859300  1
  Se  Se48  1  0.00000000  0.00000000  0.50000000  1
  Se  Se49  1  0.50000000  0.00000000  0.25000000  1
  Se  Se50  1  0.00000000  0.50000000  0.25000000  1
  Se  Se51  1  0.00000000  0.00000000  0.00000000  1
  Se  Se52  1  0.35400900  0.25000000  0.62500000  1
  Se  Se53  1  0.25000000  0.35400900  0.37500000  1
  Se  Se54  1  0.25000000  0.14599100  0.87500000  1
  Se  Se55  1  0.14599100  0.25000000  0.12500000  1
  Se  Se56  1  0.14599100  0.75000000  0.12500000  1
  Se  Se57  1  0.75000000  0.14599100  0.87500000  1
  Se  Se58  1  0.75000000  0.35400900  0.37500000  1
  Se  Se59  1  0.35400900  0.75000000  0.62500000  1
  Se  Se60  1  0.50000000  0.50000000  0.00000000  1
  Se  Se61  1  0.00000000  0.50000000  0.75000000  1
  Se  Se62  1  0.50000000  0.00000000  0.75000000  1
  Se  Se63  1  0.50000000  0.50000000  0.50000000  1
  Se  Se64  1  0.85400900  0.75000000  0.12500000  1
  Se  Se65  1  0.75000000  0.85400900  0.87500000  1
  Se  Se66  1  0.75000000  0.64599100  0.37500000  1
  Se  Se67  1  0.64599100  0.75000000  0.62500000  1
  Se  Se68  1  0.64599100  0.25000000  0.62500000  1
  Se  Se69  1  0.25000000  0.64599100  0.37500000  1
  Se  Se70  1  0.25000000  0.85400900  0.87500000  1
  Se  Se71  1  0.85400900  0.25000000  0.12500000  1
  O  O72  1  0.00000000  0.00000000  0.76528200  1
  O  O73  1  0.00000000  0.50000000  0.01528200  1
  O  O74  1  0.00000000  0.50000000  0.48471800  1
  O  O75  1  0.00000000  0.00000000  0.23471800  1
  O  O76  1  0.77377100  0.00000000  0.20556700  1
  O  O77  1  0.22622900  0.00000000  0.20556700  1
  O  O78  1  0.50000000  0.72622900  0.29443300  1
  O  O79  1  0.50000000  0.22622900  0.95556700  1
  O  O80  1  0.00000000  0.27377100  0.45556700  1
  O  O81  1  0.27377100  0.00000000  0.54443300  1
  O  O82  1  0.22622900  0.50000000  0.04443300  1
  O  O83  1  0.50000000  0.27377100  0.29443300  1
  O  O84  1  0.14059150  0.38153550  0.91613150  1
  O  O85  1  0.35940850  0.11846450  0.41613150  1
  O  O86  1  0.11846450  0.35940850  0.58386850  1
  O  O87  1  0.38153550  0.35940850  0.16613150  1
  O  O88  1  0.61846450  0.35940850  0.16613150  1
  O  O89  1  0.38153550  0.14059150  0.08386850  1
  O  O90  1  0.35940850  0.88153550  0.41613150  1
  O  O91  1  0.88153550  0.35940850  0.58386850  1
  O  O92  1  0.61846450  0.14059150  0.08386850  1
  O  O93  1  0.88153550  0.14059150  0.66613150  1
  O  O94  1  0.14059150  0.88153550  0.33386850  1
  O  O95  1  0.35940850  0.61846450  0.83386850  1
  O  O96  1  0.11846450  0.14059150  0.66613150  1
  O  O97  1  0.14059150  0.11846450  0.33386850  1
  O  O98  1  0.35940850  0.38153550  0.83386850  1
  O  O99  1  0.14059150  0.61846450  0.91613150  1
  O  O100  1  0.50000000  0.50000000  0.26528200  1
  O  O101  1  0.50000000  0.00000000  0.51528200  1
  O  O102  1  0.50000000  0.00000000  0.98471800  1
  O  O103  1  0.50000000  0.50000000  0.73471800  1
  O  O104  1  0.27377100  0.50000000  0.70556700  1
  O  O105  1  0.72622900  0.50000000  0.70556700  1
  O  O106  1  0.00000000  0.22622900  0.79443300  1
  O  O107  1  0.00000000  0.72622900  0.45556700  1
  O  O108  1  0.50000000  0.77377100  0.95556700  1
  O  O109  1  0.77377100  0.50000000  0.04443300  1
  O  O110  1  0.72622900  0.00000000  0.54443300  1
  O  O111  1  0.00000000  0.77377100  0.79443300  1
  O  O112  1  0.64059150  0.88153550  0.41613150  1
  O  O113  1  0.85940850  0.61846450  0.91613150  1
  O  O114  1  0.61846450  0.85940850  0.08386850  1
  O  O115  1  0.88153550  0.85940850  0.66613150  1
  O  O116  1  0.11846450  0.85940850  0.66613150  1
  O  O117  1  0.88153550  0.64059150  0.58386850  1
  O  O118  1  0.85940850  0.38153550  0.91613150  1
  O  O119  1  0.38153550  0.85940850  0.08386850  1
  O  O120  1  0.11846450  0.64059150  0.58386850  1
  O  O121  1  0.38153550  0.64059150  0.16613150  1
  O  O122  1  0.64059150  0.38153550  0.83386850  1
  O  O123  1  0.85940850  0.11846450  0.33386850  1
  O  O124  1  0.61846450  0.64059150  0.16613150  1
  O  O125  1  0.64059150  0.61846450  0.83386850  1
  O  O126  1  0.85940850  0.88153550  0.33386850  1
  O  O127  1  0.64059150  0.11846450  0.41613150  1
