# generated using pymatgen
data_NdPO4
_symmetry_space_group_name_H-M   'P 1'
_cell_length_a   7.16741629
_cell_length_b   7.16741629
_cell_length_c   6.40189900
_cell_angle_alpha   90.00000000
_cell_angle_beta   90.00000000
_cell_angle_gamma   120.00000000
_symmetry_Int_Tables_number   1
_chemical_formula_structural   NdPO4
_chemical_formula_sum   'Nd3 P3 O12'
_cell_volume   284.81621353
_cell_formula_units_Z   3
loop_
 _symmetry_equiv_pos_site_id
 _symmetry_equiv_pos_as_xyz
  1  'x, y, z'
loop_
 _atom_site_type_symbol
 _atom_site_label
 _atom_site_symmetry_multiplicity
 _atom_site_fract_x
 _atom_site_fract_y
 _atom_site_fract_z
 _atom_site_occupancy
  Nd  Nd0  1  0.50000000  0.50000000  0.33333333  1
  Nd  Nd1  1  0.50000000  0.00000000  0.00000000  1
  Nd  Nd2  1  0.00000000  0.50000000  0.66666667  1
  P  P3  1  0.50000000  0.50000000  0.83333333  1
  P  P4  1  0.50000000  0.00000000  0.50000000  1
  P  P5  1  0.00000000  0.50000000  0.16666667  1
  O  O6  1  0.30890200  0.86291400  0.64906367  1
  O  O7  1  0.13708600  0.44598800  0.31573033  1
  O  O8  1  0.55401200  0.69109800  0.98239700  1
  O  O9  1  0.44598800  0.30890200  0.98239700  1
  O  O10  1  0.86291400  0.30890200  0.01760300  1
  O  O11  1  0.69109800  0.13708600  0.64906367  1
  O  O12  1  0.13708600  0.69109800  0.01760300  1
  O  O13  1  0.44598800  0.13708600  0.35093633  1
  O  O14  1  0.69109800  0.55401200  0.68426967  1
  O  O15  1  0.30890200  0.44598800  0.68426967  1
  O  O16  1  0.55401200  0.86291400  0.35093633  1
  O  O17  1  0.86291400  0.55401200  0.31573033  1
