# generated using pymatgen
data_NaSm3SiS7
_symmetry_space_group_name_H-M   'P 1'
_cell_length_a   10.19147427
_cell_length_b   10.19147427
_cell_length_c   5.75021600
_cell_angle_alpha   90.00000000
_cell_angle_beta   90.00000000
_cell_angle_gamma   120.00000000
_symmetry_Int_Tables_number   1
_chemical_formula_structural   NaSm3SiS7
_chemical_formula_sum   'Na2 Sm6 Si2 S14'
_cell_volume   517.23608380
_cell_formula_units_Z   2
loop_
 _symmetry_equiv_pos_site_id
 _symmetry_equiv_pos_as_xyz
  1  'x, y, z'
loop_
 _atom_site_type_symbol
 _atom_site_label
 _atom_site_symmetry_multiplicity
 _atom_site_fract_x
 _atom_site_fract_y
 _atom_site_fract_z
 _atom_site_occupancy
  Na  Na0  1  0.00000000  0.00000000  0.52079800  1
  Na  Na1  1  0.00000000  0.00000000  0.02079800  1
  Sm  Sm2  1  0.76471900  0.63910200  0.25133300  1
  Sm  Sm3  1  0.12561700  0.76471900  0.75133300  1
  Sm  Sm4  1  0.36089800  0.12561700  0.25133300  1
  Sm  Sm5  1  0.87438300  0.23528100  0.25133300  1
  Sm  Sm6  1  0.63910200  0.87438300  0.75133300  1
  Sm  Sm7  1  0.23528100  0.36089800  0.75133300  1
  Si  Si8  1  0.33333333  0.66666667  0.16305600  1
  Si  Si9  1  0.66666667  0.33333333  0.66305600  1
  S  S10  1  0.83045600  0.74025000  0.77240900  1
  S  S11  1  0.90979400  0.16954400  0.77240900  1
  S  S12  1  0.74025000  0.90979400  0.27240900  1
  S  S13  1  0.16954400  0.25975000  0.27240900  1
  S  S14  1  0.40945000  0.88713000  0.01527700  1
  S  S15  1  0.25975000  0.09020600  0.77240900  1
  S  S16  1  0.66666667  0.33333333  0.03089000  1
  S  S17  1  0.33333333  0.66666667  0.53089000  1
  S  S18  1  0.88713000  0.47768000  0.51527700  1
  S  S19  1  0.52232000  0.40945000  0.51527700  1
  S  S20  1  0.59055000  0.11287000  0.51527700  1
  S  S21  1  0.11287000  0.52232000  0.01527700  1
  S  S22  1  0.47768000  0.59055000  0.01527700  1
  S  S23  1  0.09020600  0.83045600  0.27240900  1
