# generated using pymatgen
data_Ba5Nd8Mn4O21
_symmetry_space_group_name_H-M   'P 1'
_cell_length_a   14.40760400
_cell_length_b   14.40760400
_cell_length_c   5.94773000
_cell_angle_alpha   90.00000000
_cell_angle_beta   90.00000000
_cell_angle_gamma   90.00000000
_symmetry_Int_Tables_number   1
_chemical_formula_structural   Ba5Nd8Mn4O21
_chemical_formula_sum   'Ba10 Nd16 Mn8 O42'
_cell_volume   1234.62416102
_cell_formula_units_Z   2
loop_
 _symmetry_equiv_pos_site_id
 _symmetry_equiv_pos_as_xyz
  1  'x, y, z'
loop_
 _atom_site_type_symbol
 _atom_site_label
 _atom_site_symmetry_multiplicity
 _atom_site_fract_x
 _atom_site_fract_y
 _atom_site_fract_z
 _atom_site_occupancy
  Ba  Ba0  1  0.46925750  0.86433350  0.00000000  1
  Ba  Ba1  1  0.63566650  0.96925750  0.50000000  1
  Ba  Ba2  1  0.36433350  0.03074250  0.50000000  1
  Ba  Ba3  1  0.53074250  0.13566650  0.00000000  1
  Ba  Ba4  1  0.00000000  0.00000000  0.00000000  1
  Ba  Ba5  1  0.96925750  0.36433350  0.50000000  1
  Ba  Ba6  1  0.13566650  0.46925750  0.00000000  1
  Ba  Ba7  1  0.86433350  0.53074250  0.00000000  1
  Ba  Ba8  1  0.03074250  0.63566650  0.50000000  1
  Ba  Ba9  1  0.50000000  0.50000000  0.50000000  1
  Nd  Nd10  1  0.58906600  0.64295400  0.00000000  1
  Nd  Nd11  1  0.85704600  0.08906600  0.50000000  1
  Nd  Nd12  1  0.14295400  0.91093400  0.50000000  1
  Nd  Nd13  1  0.41093400  0.35704600  0.00000000  1
  Nd  Nd14  1  0.75284900  0.83143700  0.00000000  1
  Nd  Nd15  1  0.66856300  0.25284900  0.50000000  1
  Nd  Nd16  1  0.33143700  0.74715100  0.50000000  1
  Nd  Nd17  1  0.24715100  0.16856300  0.00000000  1
  Nd  Nd18  1  0.08906600  0.14295400  0.50000000  1
  Nd  Nd19  1  0.35704600  0.58906600  0.00000000  1
  Nd  Nd20  1  0.64295400  0.41093400  0.00000000  1
  Nd  Nd21  1  0.91093400  0.85704600  0.50000000  1
  Nd  Nd22  1  0.25284900  0.33143700  0.50000000  1
  Nd  Nd23  1  0.16856300  0.75284900  0.00000000  1
  Nd  Nd24  1  0.83143700  0.24715100  0.00000000  1
  Nd  Nd25  1  0.74715100  0.66856300  0.50000000  1
  Mn  Mn26  1  0.45965900  0.24790900  0.50000000  1
  Mn  Mn27  1  0.25209100  0.95965900  0.00000000  1
  Mn  Mn28  1  0.74790900  0.04034100  0.00000000  1
  Mn  Mn29  1  0.54034100  0.75209100  0.50000000  1
  Mn  Mn30  1  0.95965900  0.74790900  0.00000000  1
  Mn  Mn31  1  0.75209100  0.45965900  0.50000000  1
  Mn  Mn32  1  0.24790900  0.54034100  0.50000000  1
  Mn  Mn33  1  0.04034100  0.25209100  0.00000000  1
  O  O34  1  0.35230100  0.24090100  0.74612200  1
  O  O35  1  0.25909900  0.85230100  0.24612200  1
  O  O36  1  0.74090100  0.14769900  0.24612200  1
  O  O37  1  0.64769900  0.75909900  0.74612200  1
  O  O38  1  0.64769900  0.75909900  0.25387800  1
  O  O39  1  0.74090100  0.14769900  0.75387800  1
  O  O40  1  0.25909900  0.85230100  0.75387800  1
  O  O41  1  0.35230100  0.24090100  0.25387800  1
  O  O42  1  0.17903850  0.04613950  0.75246650  1
  O  O43  1  0.45386050  0.67903850  0.25246650  1
  O  O44  1  0.54613950  0.32096150  0.25246650  1
  O  O45  1  0.82096150  0.95386050  0.75246650  1
  O  O46  1  0.82096150  0.95386050  0.24753350  1
  O  O47  1  0.54613950  0.32096150  0.74753350  1
  O  O48  1  0.45386050  0.67903850  0.74753350  1
  O  O49  1  0.17903850  0.04613950  0.24753350  1
  O  O50  1  0.37708050  0.03211350  0.00000000  1
  O  O51  1  0.00000000  0.00000000  0.50000000  1
  O  O52  1  0.62291950  0.96788650  0.00000000  1
  O  O53  1  0.53211350  0.12291950  0.50000000  1
  O  O54  1  0.46788650  0.87708050  0.50000000  1
  O  O55  1  0.85230100  0.74090100  0.24612200  1
  O  O56  1  0.75909900  0.35230100  0.74612200  1
  O  O57  1  0.24090100  0.64769900  0.74612200  1
  O  O58  1  0.14769900  0.25909900  0.24612200  1
  O  O59  1  0.14769900  0.25909900  0.75387800  1
  O  O60  1  0.24090100  0.64769900  0.25387800  1
  O  O61  1  0.75909900  0.35230100  0.25387800  1
  O  O62  1  0.85230100  0.74090100  0.75387800  1
  O  O63  1  0.67903850  0.54613950  0.25246650  1
  O  O64  1  0.95386050  0.17903850  0.75246650  1
  O  O65  1  0.04613950  0.82096150  0.75246650  1
  O  O66  1  0.32096150  0.45386050  0.25246650  1
  O  O67  1  0.32096150  0.45386050  0.74753350  1
  O  O68  1  0.04613950  0.82096150  0.24753350  1
  O  O69  1  0.95386050  0.17903850  0.24753350  1
  O  O70  1  0.67903850  0.54613950  0.74753350  1
  O  O71  1  0.87708050  0.53211350  0.50000000  1
  O  O72  1  0.50000000  0.50000000  0.00000000  1
  O  O73  1  0.12291950  0.46788650  0.50000000  1
  O  O74  1  0.03211350  0.62291950  0.00000000  1
  O  O75  1  0.96788650  0.37708050  0.00000000  1
