# generated using pymatgen
data_KCd(NO2)3
_symmetry_space_group_name_H-M   'P 1'
_cell_length_a   7.76242921
_cell_length_b   7.76242921
_cell_length_c   9.31296068
_cell_angle_alpha   90.00000000
_cell_angle_beta   90.00000000
_cell_angle_gamma   120.00000000
_symmetry_Int_Tables_number   1
_chemical_formula_structural   KCd(NO2)3
_chemical_formula_sum   'K3 Cd3 N9 O18'
_cell_volume   485.97475081
_cell_formula_units_Z   3
loop_
 _symmetry_equiv_pos_site_id
 _symmetry_equiv_pos_as_xyz
  1  'x, y, z'
loop_
 _atom_site_type_symbol
 _atom_site_label
 _atom_site_symmetry_multiplicity
 _atom_site_fract_x
 _atom_site_fract_y
 _atom_site_fract_z
 _atom_site_occupancy
  K  K0  1  0.00000000  0.00000000  0.63093000  1
  K  K1  1  0.66666667  0.33333333  0.96426333  1
  K  K2  1  0.33333333  0.66666667  0.29759667  1
  Cd  Cd3  1  0.00000000  0.00000000  0.11025100  1
  Cd  Cd4  1  0.66666667  0.33333333  0.44358433  1
  Cd  Cd5  1  0.33333333  0.66666667  0.77691767  1
  N  N6  1  0.88460867  0.72094933  0.28608433  1
  N  N7  1  0.27905067  0.16365933  0.28608433  1
  N  N8  1  0.83634067  0.11539133  0.28608433  1
  N  N9  1  0.55127533  0.05428267  0.61941767  1
  N  N10  1  0.94571733  0.49699267  0.61941767  1
  N  N11  1  0.50300733  0.44872467  0.61941767  1
  N  N12  1  0.21794200  0.38761600  0.95275100  1
  N  N13  1  0.61238400  0.83032600  0.95275100  1
  N  N14  1  0.16967400  0.78205800  0.95275100  1
  O  O15  1  0.28923000  0.06972400  0.39246000  1
  O  O16  1  0.78049400  0.71077000  0.39246000  1
  O  O17  1  0.33591600  0.43475200  0.59364000  1
  O  O18  1  0.09883600  0.66408400  0.59364000  1
  O  O19  1  0.56524800  0.90116400  0.59364000  1
  O  O20  1  0.93027600  0.21950600  0.39246000  1
  O  O21  1  0.95589667  0.40305733  0.72579333  1
  O  O22  1  0.44716067  0.04410333  0.72579333  1
  O  O23  1  0.00258267  0.76808533  0.92697333  1
  O  O24  1  0.76550267  0.99741733  0.92697333  1
  O  O25  1  0.23191467  0.23449733  0.92697333  1
  O  O26  1  0.59694267  0.55283933  0.72579333  1
  O  O27  1  0.62256333  0.73639067  0.05912667  1
  O  O28  1  0.11382733  0.37743667  0.05912667  1
  O  O29  1  0.66924933  0.10141867  0.26030667  1
  O  O30  1  0.43216933  0.33075067  0.26030667  1
  O  O31  1  0.89858133  0.56783067  0.26030667  1
  O  O32  1  0.26360933  0.88617267  0.05912667  1
