# generated using pymatgen
data_BaAl2Si3(NO)4
_symmetry_space_group_name_H-M   'P 1'
_cell_length_a   5.77612000
_cell_length_b   13.66553800
_cell_length_c   9.57923100
_cell_angle_alpha   90.00000000
_cell_angle_beta   90.00000000
_cell_angle_gamma   90.00000000
_symmetry_Int_Tables_number   1
_chemical_formula_structural   BaAl2Si3(NO)4
_chemical_formula_sum   'Ba4 Al8 Si12 N16 O16'
_cell_volume   756.12498276
_cell_formula_units_Z   4
loop_
 _symmetry_equiv_pos_site_id
 _symmetry_equiv_pos_as_xyz
  1  'x, y, z'
loop_
 _atom_site_type_symbol
 _atom_site_label
 _atom_site_symmetry_multiplicity
 _atom_site_fract_x
 _atom_site_fract_y
 _atom_site_fract_z
 _atom_site_occupancy
  Ba  Ba0  1  0.00000000  0.01671000  0.99900300  1
  Ba  Ba1  1  0.50000000  0.48329000  0.49900300  1
  Ba  Ba2  1  0.50000000  0.51671000  0.99900300  1
  Ba  Ba3  1  0.00000000  0.98329000  0.49900300  1
  Al  Al4  1  0.50000000  0.02654600  0.24506600  1
  Al  Al5  1  0.00000000  0.47345400  0.74506600  1
  Al  Al6  1  0.50000000  0.21281300  0.46096600  1
  Al  Al7  1  0.00000000  0.28718700  0.96096600  1
  Al  Al8  1  0.00000000  0.52654600  0.24506600  1
  Al  Al9  1  0.50000000  0.97345400  0.74506600  1
  Al  Al10  1  0.00000000  0.71281300  0.46096600  1
  Al  Al11  1  0.50000000  0.78718700  0.96096600  1
  Si  Si12  1  0.50000000  0.20238200  0.01382400  1
  Si  Si13  1  0.00000000  0.29761800  0.51382400  1
  Si  Si14  1  0.24414900  0.32674000  0.23854000  1
  Si  Si15  1  0.75585100  0.32674000  0.23854000  1
  Si  Si16  1  0.25585100  0.17326000  0.73854000  1
  Si  Si17  1  0.74414900  0.17326000  0.73854000  1
  Si  Si18  1  0.00000000  0.70238200  0.01382400  1
  Si  Si19  1  0.50000000  0.79761800  0.51382400  1
  Si  Si20  1  0.74414900  0.82674000  0.23854000  1
  Si  Si21  1  0.25585100  0.82674000  0.23854000  1
  Si  Si22  1  0.75585100  0.67326000  0.73854000  1
  Si  Si23  1  0.24414900  0.67326000  0.73854000  1
  N  N24  1  0.50000000  0.29241900  0.14891300  1
  N  N25  1  0.00000000  0.20758100  0.64891300  1
  N  N26  1  0.00000000  0.28805400  0.15413200  1
  N  N27  1  0.50000000  0.21194600  0.65413200  1
  N  N28  1  0.24587200  0.28905300  0.41084700  1
  N  N29  1  0.75412800  0.28905300  0.41084700  1
  N  N30  1  0.25412800  0.21094700  0.91084700  1
  N  N31  1  0.74587200  0.21094700  0.91084700  1
  N  N32  1  0.00000000  0.79241900  0.14891300  1
  N  N33  1  0.50000000  0.70758100  0.64891300  1
  N  N34  1  0.50000000  0.78805400  0.15413200  1
  N  N35  1  0.00000000  0.71194600  0.65413200  1
  N  N36  1  0.74587200  0.78905300  0.41084700  1
  N  N37  1  0.25412800  0.78905300  0.41084700  1
  N  N38  1  0.75412800  0.71094700  0.91084700  1
  N  N39  1  0.24587200  0.71094700  0.91084700  1
  O  O40  1  0.25102300  0.45000700  0.24051500  1
  O  O41  1  0.74897700  0.45000700  0.24051500  1
  O  O42  1  0.24897700  0.04999300  0.74051500  1
  O  O43  1  0.75102300  0.04999300  0.74051500  1
  O  O44  1  0.50000000  0.09352800  0.08879100  1
  O  O45  1  0.00000000  0.40647200  0.58879100  1
  O  O46  1  0.50000000  0.09368500  0.39720200  1
  O  O47  1  0.00000000  0.40631500  0.89720200  1
  O  O48  1  0.75102300  0.95000700  0.24051500  1
  O  O49  1  0.24897700  0.95000700  0.24051500  1
  O  O50  1  0.74897700  0.54999300  0.74051500  1
  O  O51  1  0.25102300  0.54999300  0.74051500  1
  O  O52  1  0.00000000  0.59352800  0.08879100  1
  O  O53  1  0.50000000  0.90647200  0.58879100  1
  O  O54  1  0.00000000  0.59368500  0.39720200  1
  O  O55  1  0.50000000  0.90631500  0.89720200  1
