# generated using pymatgen
data_Na2Ge2Se5
_symmetry_space_group_name_H-M   'P 1'
_cell_length_a   13.52025400
_cell_length_b   13.81471400
_cell_length_c   11.26598300
_cell_angle_alpha   90.00000000
_cell_angle_beta   90.00000000
_cell_angle_gamma   90.00000000
_symmetry_Int_Tables_number   1
_chemical_formula_structural   Na2Ge2Se5
_chemical_formula_sum   'Na16 Ge16 Se40'
_cell_volume   2104.24275479
_cell_formula_units_Z   8
loop_
 _symmetry_equiv_pos_site_id
 _symmetry_equiv_pos_as_xyz
  1  'x, y, z'
loop_
 _atom_site_type_symbol
 _atom_site_label
 _atom_site_symmetry_multiplicity
 _atom_site_fract_x
 _atom_site_fract_y
 _atom_site_fract_z
 _atom_site_occupancy
  Na  Na0  1  0.67429650  0.74976250  0.75000000  1
  Na  Na1  1  0.32570350  0.25023750  0.25000000  1
  Na  Na2  1  0.32570350  0.74976250  0.75000000  1
  Na  Na3  1  0.67429650  0.25023750  0.25000000  1
  Na  Na4  1  0.14502000  0.00000000  0.50000000  1
  Na  Na5  1  0.85498000  0.00000000  0.00000000  1
  Na  Na6  1  0.85498000  0.00000000  0.50000000  1
  Na  Na7  1  0.14502000  0.00000000  0.00000000  1
  Na  Na8  1  0.17429650  0.24976250  0.75000000  1
  Na  Na9  1  0.82570350  0.75023750  0.25000000  1
  Na  Na10  1  0.82570350  0.24976250  0.75000000  1
  Na  Na11  1  0.17429650  0.75023750  0.25000000  1
  Na  Na12  1  0.64502000  0.50000000  0.50000000  1
  Na  Na13  1  0.35498000  0.50000000  0.00000000  1
  Na  Na14  1  0.35498000  0.50000000  0.50000000  1
  Na  Na15  1  0.64502000  0.50000000  0.00000000  1
  Ge  Ge16  1  0.64003900  0.04641800  0.75000000  1
  Ge  Ge17  1  0.35996100  0.95358200  0.25000000  1
  Ge  Ge18  1  0.35996100  0.04641800  0.75000000  1
  Ge  Ge19  1  0.64003900  0.95358200  0.25000000  1
  Ge  Ge20  1  0.50000000  0.24475700  0.91993300  1
  Ge  Ge21  1  0.50000000  0.75524300  0.41993300  1
  Ge  Ge22  1  0.50000000  0.24475700  0.58006700  1
  Ge  Ge23  1  0.50000000  0.75524300  0.08006700  1
  Ge  Ge24  1  0.14003900  0.54641800  0.75000000  1
  Ge  Ge25  1  0.85996100  0.45358200  0.25000000  1
  Ge  Ge26  1  0.85996100  0.54641800  0.75000000  1
  Ge  Ge27  1  0.14003900  0.45358200  0.25000000  1
  Ge  Ge28  1  0.00000000  0.74475700  0.91993300  1
  Ge  Ge29  1  0.00000000  0.25524300  0.41993300  1
  Ge  Ge30  1  0.00000000  0.74475700  0.58006700  1
  Ge  Ge31  1  0.00000000  0.25524300  0.08006700  1
  Se  Se32  1  0.78129000  0.04896100  0.25000000  1
  Se  Se33  1  0.21871000  0.95103900  0.75000000  1
  Se  Se34  1  0.21871000  0.04896100  0.25000000  1
  Se  Se35  1  0.78129000  0.95103900  0.75000000  1
  Se  Se36  1  0.50000000  0.34312800  0.08738600  1
  Se  Se37  1  0.50000000  0.65687200  0.58738600  1
  Se  Se38  1  0.50000000  0.34312800  0.41261400  1
  Se  Se39  1  0.50000000  0.65687200  0.91261400  1
  Se  Se40  1  0.50000000  0.34980300  0.75000000  1
  Se  Se41  1  0.50000000  0.65019700  0.25000000  1
  Se  Se42  1  0.35081850  0.85125450  0.07603100  1
  Se  Se43  1  0.64918150  0.14874550  0.57603100  1
  Se  Se44  1  0.64918150  0.85125450  0.42396900  1
  Se  Se45  1  0.35081850  0.14874550  0.92396900  1
  Se  Se46  1  0.64918150  0.14874550  0.92396900  1
  Se  Se47  1  0.35081850  0.85125450  0.42396900  1
  Se  Se48  1  0.35081850  0.14874550  0.57603100  1
  Se  Se49  1  0.64918150  0.85125450  0.07603100  1
  Se  Se50  1  0.50000000  0.94187000  0.75000000  1
  Se  Se51  1  0.50000000  0.05813000  0.25000000  1
  Se  Se52  1  0.28129000  0.54896100  0.25000000  1
  Se  Se53  1  0.71871000  0.45103900  0.75000000  1
  Se  Se54  1  0.71871000  0.54896100  0.25000000  1
  Se  Se55  1  0.28129000  0.45103900  0.75000000  1
  Se  Se56  1  0.00000000  0.84312800  0.08738600  1
  Se  Se57  1  0.00000000  0.15687200  0.58738600  1
  Se  Se58  1  0.00000000  0.84312800  0.41261400  1
  Se  Se59  1  0.00000000  0.15687200  0.91261400  1
  Se  Se60  1  0.00000000  0.84980300  0.75000000  1
  Se  Se61  1  0.00000000  0.15019700  0.25000000  1
  Se  Se62  1  0.85081850  0.35125450  0.07603100  1
  Se  Se63  1  0.14918150  0.64874550  0.57603100  1
  Se  Se64  1  0.14918150  0.35125450  0.42396900  1
  Se  Se65  1  0.85081850  0.64874550  0.92396900  1
  Se  Se66  1  0.14918150  0.64874550  0.92396900  1
  Se  Se67  1  0.85081850  0.35125450  0.42396900  1
  Se  Se68  1  0.85081850  0.64874550  0.57603100  1
  Se  Se69  1  0.14918150  0.35125450  0.07603100  1
  Se  Se70  1  0.00000000  0.44187000  0.75000000  1
  Se  Se71  1  0.00000000  0.55813000  0.25000000  1
