# generated using pymatgen
data_HgMoO4
_symmetry_space_group_name_H-M   'P 1'
_cell_length_a   11.42508000
_cell_length_b   6.33534000
_cell_length_c   5.27932471
_cell_angle_alpha   90.00000000
_cell_angle_beta   111.95611414
_cell_angle_gamma   90.00000000
_symmetry_Int_Tables_number   1
_chemical_formula_structural   HgMoO4
_chemical_formula_sum   'Hg4 Mo4 O16'
_cell_volume   354.41138352
_cell_formula_units_Z   4
loop_
 _symmetry_equiv_pos_site_id
 _symmetry_equiv_pos_as_xyz
  1  'x, y, z'
loop_
 _atom_site_type_symbol
 _atom_site_label
 _atom_site_symmetry_multiplicity
 _atom_site_fract_x
 _atom_site_fract_y
 _atom_site_fract_z
 _atom_site_occupancy
  Hg  Hg0  1  0.25000000  0.25000000  0.50000000  1
  Hg  Hg1  1  0.25000000  0.75000000  0.00000000  1
  Hg  Hg2  1  0.75000000  0.75000000  0.50000000  1
  Hg  Hg3  1  0.75000000  0.25000000  0.00000000  1
  Mo  Mo4  1  0.00000000  0.81555200  0.25000000  1
  Mo  Mo5  1  0.00000000  0.18444800  0.75000000  1
  Mo  Mo6  1  0.50000000  0.31555200  0.25000000  1
  Mo  Mo7  1  0.50000000  0.68444800  0.75000000  1
  O  O8  1  0.38651050  0.14415350  0.03216000  1
  O  O9  1  0.11348950  0.64415350  0.46784000  1
  O  O10  1  0.11348950  0.35584650  0.96784000  1
  O  O11  1  0.38651050  0.85584650  0.53216000  1
  O  O12  1  0.40211050  0.58988150  0.96888000  1
  O  O13  1  0.09788950  0.08988150  0.53112000  1
  O  O14  1  0.09788950  0.91011850  0.03112000  1
  O  O15  1  0.40211050  0.41011850  0.46888000  1
  O  O16  1  0.88651050  0.64415350  0.03216000  1
  O  O17  1  0.61348950  0.14415350  0.46784000  1
  O  O18  1  0.61348950  0.85584650  0.96784000  1
  O  O19  1  0.88651050  0.35584650  0.53216000  1
  O  O20  1  0.90211050  0.08988150  0.96888000  1
  O  O21  1  0.59788950  0.58988150  0.53112000  1
  O  O22  1  0.59788950  0.41011850  0.03112000  1
  O  O23  1  0.90211050  0.91011850  0.46888000  1
