# generated using pymatgen
data_BaMnO3
_symmetry_space_group_name_H-M   'P 1'
_cell_length_a   5.76608205
_cell_length_b   5.76608205
_cell_length_c   21.47350779
_cell_angle_alpha   90.00000000
_cell_angle_beta   90.00000000
_cell_angle_gamma   120.00000000
_symmetry_Int_Tables_number   1
_chemical_formula_structural   BaMnO3
_chemical_formula_sum   'Ba9 Mn9 O27'
_cell_volume   618.29432813
_cell_formula_units_Z   9
loop_
 _symmetry_equiv_pos_site_id
 _symmetry_equiv_pos_as_xyz
  1  'x, y, z'
loop_
 _atom_site_type_symbol
 _atom_site_label
 _atom_site_symmetry_multiplicity
 _atom_site_fract_x
 _atom_site_fract_y
 _atom_site_fract_z
 _atom_site_occupancy
  Ba  Ba0  1  0.00000000  0.00000000  0.22074600  1
  Ba  Ba1  1  0.66666667  0.33333333  0.11258733  1
  Ba  Ba2  1  0.00000000  0.00000000  0.00000000  1
  Ba  Ba3  1  0.66666667  0.33333333  0.55407933  1
  Ba  Ba4  1  0.33333333  0.66666667  0.44592067  1
  Ba  Ba5  1  0.66666667  0.33333333  0.33333333  1
  Ba  Ba6  1  0.33333333  0.66666667  0.88741267  1
  Ba  Ba7  1  0.00000000  0.00000000  0.77925400  1
  Ba  Ba8  1  0.33333333  0.66666667  0.66666667  1
  Mn  Mn9  1  0.33333333  0.66666667  0.04786967  1
  Mn  Mn10  1  0.33333333  0.66666667  0.28546367  1
  Mn  Mn11  1  0.33333333  0.66666667  0.16666667  1
  Mn  Mn12  1  0.00000000  0.00000000  0.38120300  1
  Mn  Mn13  1  0.00000000  0.00000000  0.61879700  1
  Mn  Mn14  1  1.00000000  1.00000000  0.50000000  1
  Mn  Mn15  1  0.66666667  0.33333333  0.71453633  1
  Mn  Mn16  1  0.66666667  0.33333333  0.95213033  1
  Mn  Mn17  1  0.66666667  0.33333333  0.83333333  1
  O  O18  1  0.50000000  0.50000000  0.00000000  1
  O  O19  1  0.00000000  0.50000000  0.00000000  1
  O  O20  1  0.50000000  0.00000000  0.00000000  1
  O  O21  1  0.48041900  0.96083800  0.22504900  1
  O  O22  1  0.48041900  0.51958100  0.22504900  1
  O  O23  1  0.03916200  0.51958100  0.22504900  1
  O  O24  1  0.18624767  0.81375233  0.10828433  1
  O  O25  1  0.18624767  0.37249533  0.10828433  1
  O  O26  1  0.62750467  0.81375233  0.10828433  1
  O  O27  1  0.16666667  0.83333333  0.33333333  1
  O  O28  1  0.66666667  0.83333333  0.33333333  1
  O  O29  1  0.16666667  0.33333333  0.33333333  1
  O  O30  1  0.14708567  0.29417133  0.55838233  1
  O  O31  1  0.14708567  0.85291433  0.55838233  1
  O  O32  1  0.70582867  0.85291433  0.55838233  1
  O  O33  1  0.85291433  0.14708567  0.44161767  1
  O  O34  1  0.85291433  0.70582867  0.44161767  1
  O  O35  1  0.29417133  0.14708567  0.44161767  1
  O  O36  1  0.83333333  0.16666667  0.66666667  1
  O  O37  1  0.33333333  0.16666667  0.66666667  1
  O  O38  1  0.83333333  0.66666667  0.66666667  1
  O  O39  1  0.81375233  0.62750467  0.89171567  1
  O  O40  1  0.81375233  0.18624767  0.89171567  1
  O  O41  1  0.37249533  0.18624767  0.89171567  1
  O  O42  1  0.51958100  0.48041900  0.77495100  1
  O  O43  1  0.51958100  0.03916200  0.77495100  1
  O  O44  1  0.96083800  0.48041900  0.77495100  1
