# generated using pymatgen
data_Tl6TeO12
_symmetry_space_group_name_H-M   'P 1'
_cell_length_a   9.84867786
_cell_length_b   9.84867786
_cell_length_c   9.67815798
_cell_angle_alpha   90.00000000
_cell_angle_beta   90.00000000
_cell_angle_gamma   120.00000000
_symmetry_Int_Tables_number   1
_chemical_formula_structural   Tl6TeO12
_chemical_formula_sum   'Tl18 Te3 O36'
_cell_volume   812.97876696
_cell_formula_units_Z   3
loop_
 _symmetry_equiv_pos_site_id
 _symmetry_equiv_pos_as_xyz
  1  'x, y, z'
loop_
 _atom_site_type_symbol
 _atom_site_label
 _atom_site_symmetry_multiplicity
 _atom_site_fract_x
 _atom_site_fract_y
 _atom_site_fract_z
 _atom_site_occupancy
  Tl  Tl0  1  0.04492633  0.25838567  0.65085267  1
  Tl  Tl1  1  0.74161433  0.78654067  0.65085267  1
  Tl  Tl2  1  0.21345933  0.95507367  0.65085267  1
  Tl  Tl3  1  0.95507367  0.74161433  0.34914733  1
  Tl  Tl4  1  0.25838567  0.21345933  0.34914733  1
  Tl  Tl5  1  0.78654067  0.04492633  0.34914733  1
  Tl  Tl6  1  0.71159300  0.59171900  0.98418600  1
  Tl  Tl7  1  0.40828100  0.11987400  0.98418600  1
  Tl  Tl8  1  0.88012600  0.28840700  0.98418600  1
  Tl  Tl9  1  0.62174033  0.07494767  0.68248067  1
  Tl  Tl10  1  0.92505233  0.54679267  0.68248067  1
  Tl  Tl11  1  0.45320733  0.37825967  0.68248067  1
  Tl  Tl12  1  0.37825967  0.92505233  0.31751933  1
  Tl  Tl13  1  0.07494767  0.45320733  0.31751933  1
  Tl  Tl14  1  0.54679267  0.62174033  0.31751933  1
  Tl  Tl15  1  0.28840700  0.40828100  0.01581400  1
  Tl  Tl16  1  0.59171900  0.88012600  0.01581400  1
  Tl  Tl17  1  0.11987400  0.71159300  0.01581400  1
  Te  Te18  1  0.00000000  0.00000000  0.00000000  1
  Te  Te19  1  0.66666667  0.33333333  0.33333333  1
  Te  Te20  1  0.33333333  0.66666667  0.66666667  1
  O  O21  1  0.02335333  0.22473067  0.39964967  1
  O  O22  1  0.77526933  0.79862267  0.39964967  1
  O  O23  1  0.20137733  0.97664667  0.39964967  1
  O  O24  1  0.97664667  0.77526933  0.60035033  1
  O  O25  1  0.22473067  0.20137733  0.60035033  1
  O  O26  1  0.79862267  0.02335333  0.60035033  1
  O  O27  1  0.47819267  0.62761633  0.55568833  1
  O  O28  1  0.85057633  0.47819267  0.44431167  1
  O  O29  1  0.62761633  0.14942367  0.44431167  1
  O  O30  1  0.52180733  0.37238367  0.44431167  1
  O  O31  1  0.14942367  0.52180733  0.55568833  1
  O  O32  1  0.37238367  0.85057633  0.55568833  1
  O  O33  1  0.69002000  0.55806400  0.73298300  1
  O  O34  1  0.44193600  0.13195600  0.73298300  1
  O  O35  1  0.86804400  0.30998000  0.73298300  1
  O  O36  1  0.64331333  0.10860267  0.93368367  1
  O  O37  1  0.89139733  0.53471067  0.93368367  1
  O  O38  1  0.46528933  0.35668667  0.93368367  1
  O  O39  1  0.14485933  0.96094967  0.88902167  1
  O  O40  1  0.51724300  0.81152600  0.77764500  1
  O  O41  1  0.29428300  0.48275700  0.77764500  1
  O  O42  1  0.18847400  0.70571700  0.77764500  1
  O  O43  1  0.81609033  0.85514067  0.88902167  1
  O  O44  1  0.03905033  0.18390967  0.88902167  1
  O  O45  1  0.35668667  0.89139733  0.06631633  1
  O  O46  1  0.10860267  0.46528933  0.06631633  1
  O  O47  1  0.53471067  0.64331333  0.06631633  1
  O  O48  1  0.30998000  0.44193600  0.26701700  1
  O  O49  1  0.55806400  0.86804400  0.26701700  1
  O  O50  1  0.13195600  0.69002000  0.26701700  1
  O  O51  1  0.81152600  0.29428300  0.22235500  1
  O  O52  1  0.18390967  0.14485933  0.11097833  1
  O  O53  1  0.96094967  0.81609033  0.11097833  1
  O  O54  1  0.85514067  0.03905033  0.11097833  1
  O  O55  1  0.48275700  0.18847400  0.22235500  1
  O  O56  1  0.70571700  0.51724300  0.22235500  1
