# generated using pymatgen
data_Ho3Ga5O12
_symmetry_space_group_name_H-M   'P 1'
_cell_length_a   12.38101800
_cell_length_b   12.38101800
_cell_length_c   12.38101800
_cell_angle_alpha   90.00000000
_cell_angle_beta   90.00000000
_cell_angle_gamma   90.00000000
_symmetry_Int_Tables_number   1
_chemical_formula_structural   Ho3Ga5O12
_chemical_formula_sum   'Ho24 Ga40 O96'
_cell_volume   1897.88137997
_cell_formula_units_Z   8
loop_
 _symmetry_equiv_pos_site_id
 _symmetry_equiv_pos_as_xyz
  1  'x, y, z'
loop_
 _atom_site_type_symbol
 _atom_site_label
 _atom_site_symmetry_multiplicity
 _atom_site_fract_x
 _atom_site_fract_y
 _atom_site_fract_z
 _atom_site_occupancy
  Ho  Ho0  1  0.37500000  0.50000000  0.25000000  1
  Ho  Ho1  1  0.62500000  0.00000000  0.25000000  1
  Ho  Ho2  1  0.25000000  0.62500000  0.00000000  1
  Ho  Ho3  1  0.25000000  0.37500000  0.50000000  1
  Ho  Ho4  1  0.00000000  0.25000000  0.62500000  1
  Ho  Ho5  1  0.50000000  0.25000000  0.37500000  1
  Ho  Ho6  1  0.12500000  0.00000000  0.25000000  1
  Ho  Ho7  1  0.87500000  0.50000000  0.25000000  1
  Ho  Ho8  1  0.25000000  0.87500000  0.50000000  1
  Ho  Ho9  1  0.25000000  0.12500000  0.00000000  1
  Ho  Ho10  1  0.50000000  0.25000000  0.87500000  1
  Ho  Ho11  1  0.00000000  0.25000000  0.12500000  1
  Ho  Ho12  1  0.87500000  0.00000000  0.75000000  1
  Ho  Ho13  1  0.12500000  0.50000000  0.75000000  1
  Ho  Ho14  1  0.75000000  0.12500000  0.50000000  1
  Ho  Ho15  1  0.75000000  0.87500000  0.00000000  1
  Ho  Ho16  1  0.50000000  0.75000000  0.12500000  1
  Ho  Ho17  1  0.00000000  0.75000000  0.87500000  1
  Ho  Ho18  1  0.62500000  0.50000000  0.75000000  1
  Ho  Ho19  1  0.37500000  0.00000000  0.75000000  1
  Ho  Ho20  1  0.75000000  0.37500000  0.00000000  1
  Ho  Ho21  1  0.75000000  0.62500000  0.50000000  1
  Ho  Ho22  1  0.00000000  0.75000000  0.37500000  1
  Ho  Ho23  1  0.50000000  0.75000000  0.62500000  1
  Ga  Ga24  1  0.50000000  0.25000000  0.12500000  1
  Ga  Ga25  1  0.00000000  0.25000000  0.37500000  1
  Ga  Ga26  1  0.25000000  0.12500000  0.50000000  1
  Ga  Ga27  1  0.37500000  0.50000000  0.75000000  1
  Ga  Ga28  1  0.75000000  0.37500000  0.50000000  1
  Ga  Ga29  1  0.12500000  0.50000000  0.25000000  1
  Ga  Ga30  1  0.37500000  0.00000000  0.25000000  1
  Ga  Ga31  1  0.12500000  0.00000000  0.75000000  1
  Ga  Ga32  1  0.75000000  0.12500000  0.00000000  1
  Ga  Ga33  1  0.25000000  0.37500000  0.00000000  1
  Ga  Ga34  1  0.00000000  0.75000000  0.12500000  1
  Ga  Ga35  1  0.50000000  0.75000000  0.37500000  1
  Ga  Ga36  1  0.00000000  0.50000000  0.00000000  1
  Ga  Ga37  1  0.25000000  0.75000000  0.25000000  1
  Ga  Ga38  1  0.25000000  0.25000000  0.25000000  1
  Ga  Ga39  1  0.25000000  0.25000000  0.75000000  1
  Ga  Ga40  1  0.00000000  0.00000000  0.00000000  1
  Ga  Ga41  1  0.50000000  0.00000000  0.00000000  1
  Ga  Ga42  1  0.00000000  0.00000000  0.50000000  1
  Ga  Ga43  1  0.75000000  0.25000000  0.25000000  1
  Ga  Ga44  1  0.00000000  0.75000000  0.62500000  1
  Ga  Ga45  1  0.50000000  0.75000000  0.87500000  1
  Ga  Ga46  1  0.75000000  0.62500000  0.00000000  1
  Ga  Ga47  1  0.87500000  0.00000000  0.25000000  1
  Ga  Ga48  1  0.25000000  0.87500000  0.00000000  1
  Ga  Ga49  1  0.62500000  0.00000000  0.75000000  1
  Ga  Ga50  1  0.87500000  0.50000000  0.75000000  1
  Ga  Ga51  1  0.62500000  0.50000000  0.25000000  1
  Ga  Ga52  1  0.25000000  0.62500000  0.50000000  1
  Ga  Ga53  1  0.75000000  0.87500000  0.50000000  1
  Ga  Ga54  1  0.50000000  0.25000000  0.62500000  1
  Ga  Ga55  1  0.00000000  0.25000000  0.87500000  1
  Ga  Ga56  1  0.50000000  0.00000000  0.50000000  1
  Ga  Ga57  1  0.75000000  0.25000000  0.75000000  1
  Ga  Ga58  1  0.75000000  0.75000000  0.75000000  1
  Ga  Ga59  1  0.75000000  0.75000000  0.25000000  1
  Ga  Ga60  1  0.50000000  0.50000000  0.50000000  1
  Ga  Ga61  1  0.00000000  0.50000000  0.50000000  1
  Ga  Ga62  1  0.50000000  0.50000000  0.00000000  1
  Ga  Ga63  1  0.25000000  0.75000000  0.75000000  1
  O  O64  1  0.34937450  0.47336350  0.05615350  1
  O  O65  1  0.05615350  0.34937450  0.47336350  1
  O  O66  1  0.52663650  0.44384650  0.34937450  1
  O  O67  1  0.15062550  0.47336350  0.94384650  1
  O  O68  1  0.80615350  0.27663650  0.59937450  1
  O  O69  1  0.05615350  0.65062550  0.02663650  1
  O  O70  1  0.19384650  0.22336350  0.59937450  1
  O  O71  1  0.47336350  0.05615350  0.34937450  1
  O  O72  1  0.30615350  0.22336350  0.40062550  1
  O  O73  1  0.59937450  0.19384650  0.22336350  1
  O  O74  1  0.27663650  0.59937450  0.80615350  1
  O  O75  1  0.77663650  0.90062550  0.19384650  1
  O  O76  1  0.90062550  0.19384650  0.77663650  1
  O  O77  1  0.22336350  0.59937450  0.19384650  1
  O  O78  1  0.40062550  0.30615350  0.22336350  1
  O  O79  1  0.22336350  0.40062550  0.30615350  1
  O  O80  1  0.59937450  0.80615350  0.27663650  1
  O  O81  1  0.34937450  0.52663650  0.44384650  1
  O  O82  1  0.65062550  0.02663650  0.05615350  1
  O  O83  1  0.19384650  0.27663650  0.09937450  1
  O  O84  1  0.94384650  0.15062550  0.47336350  1
  O  O85  1  0.47336350  0.94384650  0.15062550  1
  O  O86  1  0.02663650  0.05615350  0.65062550  1
  O  O87  1  0.19384650  0.77663650  0.90062550  1
  O  O88  1  0.15062550  0.02663650  0.44384650  1
  O  O89  1  0.44384650  0.15062550  0.02663650  1
  O  O90  1  0.97336350  0.05615350  0.15062550  1
  O  O91  1  0.34937450  0.02663650  0.55615350  1
  O  O92  1  0.69384650  0.22336350  0.90062550  1
  O  O93  1  0.44384650  0.84937450  0.47336350  1
  O  O94  1  0.30615350  0.27663650  0.90062550  1
  O  O95  1  0.02663650  0.44384650  0.15062550  1
  O  O96  1  0.30615350  0.72336350  0.59937450  1
  O  O97  1  0.47336350  0.44384650  0.84937450  1
  O  O98  1  0.02663650  0.55615350  0.34937450  1
  O  O99  1  0.05615350  0.15062550  0.97336350  1
  O  O100  1  0.55615350  0.34937450  0.02663650  1
  O  O101  1  0.84937450  0.47336350  0.44384650  1
  O  O102  1  0.15062550  0.97336350  0.05615350  1
  O  O103  1  0.90062550  0.69384650  0.22336350  1
  O  O104  1  0.27663650  0.09937450  0.19384650  1
  O  O105  1  0.09937450  0.19384650  0.27663650  1
  O  O106  1  0.27663650  0.90062550  0.30615350  1
  O  O107  1  0.59937450  0.30615350  0.72336350  1
  O  O108  1  0.72336350  0.59937450  0.30615350  1
  O  O109  1  0.22336350  0.90062550  0.69384650  1
  O  O110  1  0.90062550  0.30615350  0.27663650  1
  O  O111  1  0.44384650  0.34937450  0.52663650  1
  O  O112  1  0.84937450  0.97336350  0.55615350  1
  O  O113  1  0.55615350  0.84937450  0.97336350  1
  O  O114  1  0.02663650  0.94384650  0.84937450  1
  O  O115  1  0.65062550  0.97336350  0.44384650  1
  O  O116  1  0.30615350  0.77663650  0.09937450  1
  O  O117  1  0.55615350  0.15062550  0.52663650  1
  O  O118  1  0.69384650  0.72336350  0.09937450  1
  O  O119  1  0.97336350  0.55615350  0.84937450  1
  O  O120  1  0.80615350  0.72336350  0.90062550  1
  O  O121  1  0.09937450  0.69384650  0.72336350  1
  O  O122  1  0.77663650  0.09937450  0.30615350  1
  O  O123  1  0.27663650  0.40062550  0.69384650  1
  O  O124  1  0.40062550  0.69384650  0.27663650  1
  O  O125  1  0.72336350  0.09937450  0.69384650  1
  O  O126  1  0.90062550  0.80615350  0.72336350  1
  O  O127  1  0.72336350  0.90062550  0.80615350  1
  O  O128  1  0.09937450  0.30615350  0.77663650  1
  O  O129  1  0.84937450  0.02663650  0.94384650  1
  O  O130  1  0.15062550  0.52663650  0.55615350  1
  O  O131  1  0.69384650  0.77663650  0.59937450  1
  O  O132  1  0.44384650  0.65062550  0.97336350  1
  O  O133  1  0.97336350  0.44384650  0.65062550  1
  O  O134  1  0.52663650  0.55615350  0.15062550  1
  O  O135  1  0.69384650  0.27663650  0.40062550  1
  O  O136  1  0.65062550  0.52663650  0.94384650  1
  O  O137  1  0.94384650  0.65062550  0.52663650  1
  O  O138  1  0.47336350  0.55615350  0.65062550  1
  O  O139  1  0.84937450  0.52663650  0.05615350  1
  O  O140  1  0.19384650  0.72336350  0.40062550  1
  O  O141  1  0.94384650  0.34937450  0.97336350  1
  O  O142  1  0.80615350  0.77663650  0.40062550  1
  O  O143  1  0.52663650  0.94384650  0.65062550  1
  O  O144  1  0.80615350  0.22336350  0.09937450  1
  O  O145  1  0.97336350  0.94384650  0.34937450  1
  O  O146  1  0.52663650  0.05615350  0.84937450  1
  O  O147  1  0.55615350  0.65062550  0.47336350  1
  O  O148  1  0.05615350  0.84937450  0.52663650  1
  O  O149  1  0.34937450  0.97336350  0.94384650  1
  O  O150  1  0.65062550  0.47336350  0.55615350  1
  O  O151  1  0.40062550  0.19384650  0.72336350  1
  O  O152  1  0.77663650  0.59937450  0.69384650  1
  O  O153  1  0.59937450  0.69384650  0.77663650  1
  O  O154  1  0.77663650  0.40062550  0.80615350  1
  O  O155  1  0.09937450  0.80615350  0.22336350  1
  O  O156  1  0.22336350  0.09937450  0.80615350  1
  O  O157  1  0.72336350  0.40062550  0.19384650  1
  O  O158  1  0.40062550  0.80615350  0.77663650  1
  O  O159  1  0.94384650  0.84937450  0.02663650  1
