# generated using pymatgen
data_CaTeO3
_symmetry_space_group_name_H-M   'P 1'
_cell_length_a   8.77025000
_cell_length_b   5.74821100
_cell_length_c   11.49999446
_cell_angle_alpha   90.00000000
_cell_angle_beta   110.56300193
_cell_angle_gamma   90.00000000
_symmetry_Int_Tables_number   1
_chemical_formula_structural   CaTeO3
_chemical_formula_sum   'Ca6 Te6 O18'
_cell_volume   542.81405592
_cell_formula_units_Z   6
loop_
 _symmetry_equiv_pos_site_id
 _symmetry_equiv_pos_as_xyz
  1  'x, y, z'
loop_
 _atom_site_type_symbol
 _atom_site_label
 _atom_site_symmetry_multiplicity
 _atom_site_fract_x
 _atom_site_fract_y
 _atom_site_fract_z
 _atom_site_occupancy
  Ca  Ca0  1  0.70005600  0.18467000  0.04790600  1
  Ca  Ca1  1  0.29994400  0.68467000  0.95209400  1
  Ca  Ca2  1  0.99670700  0.16696400  0.86853100  1
  Ca  Ca3  1  0.01934300  0.73847300  0.61854900  1
  Ca  Ca4  1  0.98065700  0.23847300  0.38145100  1
  Ca  Ca5  1  0.00329300  0.66696400  0.13146900  1
  Te  Te6  1  0.74740200  0.67348800  0.82786700  1
  Te  Te7  1  0.25259800  0.17348800  0.17213300  1
  Te  Te8  1  0.30063900  0.76233500  0.47481900  1
  Te  Te9  1  0.69936100  0.26233500  0.52518100  1
  Te  Te10  1  0.67761800  0.74572300  0.24563200  1
  Te  Te11  1  0.32238200  0.24572300  0.75436800  1
  O  O12  1  0.92048800  0.77887000  0.78028700  1
  O  O13  1  0.07951200  0.27887000  0.21971300  1
  O  O14  1  0.84986900  0.44091800  0.94797400  1
  O  O15  1  0.15013100  0.94091800  0.05202600  1
  O  O16  1  0.46910600  0.35704700  0.90918200  1
  O  O17  1  0.76719300  0.47299500  0.20119900  1
  O  O18  1  0.76425800  0.29523700  0.69834800  1
  O  O19  1  0.23574200  0.79523700  0.30165200  1
  O  O20  1  0.82130300  0.49461900  0.48135400  1
  O  O21  1  0.17869700  0.99461900  0.51864600  1
  O  O22  1  0.83077700  0.02144300  0.50234800  1
  O  O23  1  0.15088500  0.43776400  0.76200800  1
  O  O24  1  0.79122200  0.90955500  0.95061700  1
  O  O25  1  0.20877800  0.40955500  0.04938300  1
  O  O26  1  0.23280700  0.97299500  0.79880100  1
  O  O27  1  0.16922300  0.52144300  0.49765200  1
  O  O28  1  0.84911500  0.93776400  0.23799200  1
  O  O29  1  0.53089400  0.85704700  0.09081800  1
