# generated using pymatgen
data_Tl2Ge2S5
_symmetry_space_group_name_H-M   'P 1'
_cell_length_a   15.45393000
_cell_length_b   15.48691200
_cell_length_c   9.04367909
_cell_angle_alpha   90.00000000
_cell_angle_beta   103.53110719
_cell_angle_gamma   90.00000000
_symmetry_Int_Tables_number   1
_chemical_formula_structural   Tl2Ge2S5
_chemical_formula_sum   'Tl16 Ge16 S40'
_cell_volume   2104.37800986
_cell_formula_units_Z   8
loop_
 _symmetry_equiv_pos_site_id
 _symmetry_equiv_pos_as_xyz
  1  'x, y, z'
loop_
 _atom_site_type_symbol
 _atom_site_label
 _atom_site_symmetry_multiplicity
 _atom_site_fract_x
 _atom_site_fract_y
 _atom_site_fract_z
 _atom_site_occupancy
  Tl  Tl0  1  0.13420700  0.92854300  0.10026300  1
  Tl  Tl1  1  0.86579300  0.92854300  0.39973700  1
  Tl  Tl2  1  0.86579300  0.07145700  0.89973700  1
  Tl  Tl3  1  0.13420700  0.07145700  0.60026300  1
  Tl  Tl4  1  0.67121200  0.12325300  0.37749200  1
  Tl  Tl5  1  0.32878800  0.12325300  0.12250800  1
  Tl  Tl6  1  0.32878800  0.87674700  0.62250800  1
  Tl  Tl7  1  0.67121200  0.87674700  0.87749200  1
  Tl  Tl8  1  0.63420700  0.42854300  0.10026300  1
  Tl  Tl9  1  0.36579300  0.42854300  0.39973700  1
  Tl  Tl10  1  0.36579300  0.57145700  0.89973700  1
  Tl  Tl11  1  0.63420700  0.57145700  0.60026300  1
  Tl  Tl12  1  0.17121200  0.62325300  0.37749200  1
  Tl  Tl13  1  0.82878800  0.62325300  0.12250800  1
  Tl  Tl14  1  0.82878800  0.37674700  0.62250800  1
  Tl  Tl15  1  0.17121200  0.37674700  0.87749200  1
  Ge  Ge16  1  0.43195600  0.70148800  0.39064500  1
  Ge  Ge17  1  0.56804400  0.70148800  0.10935500  1
  Ge  Ge18  1  0.56804400  0.29851200  0.60935500  1
  Ge  Ge19  1  0.43195600  0.29851200  0.89064500  1
  Ge  Ge20  1  0.60166550  0.13221350  0.89822200  1
  Ge  Ge21  1  0.39833450  0.13221350  0.60177800  1
  Ge  Ge22  1  0.39833450  0.86778650  0.10177800  1
  Ge  Ge23  1  0.60166550  0.86778650  0.39822200  1
  Ge  Ge24  1  0.93195600  0.20148800  0.39064500  1
  Ge  Ge25  1  0.06804400  0.20148800  0.10935500  1
  Ge  Ge26  1  0.06804400  0.79851200  0.60935500  1
  Ge  Ge27  1  0.93195600  0.79851200  0.89064500  1
  Ge  Ge28  1  0.10166550  0.63221350  0.89822200  1
  Ge  Ge29  1  0.89833450  0.63221350  0.60177800  1
  Ge  Ge30  1  0.89833450  0.36778650  0.10177800  1
  Ge  Ge31  1  0.10166550  0.36778650  0.39822200  1
  S  S32  1  0.50000000  0.04533000  0.75000000  1
  S  S33  1  0.50000000  0.95467000  0.25000000  1
  S  S34  1  0.50000000  0.38625300  0.75000000  1
  S  S35  1  0.50000000  0.61374700  0.25000000  1
  S  S36  1  0.12745700  0.88189200  0.46926700  1
  S  S37  1  0.87254300  0.88189200  0.03073300  1
  S  S38  1  0.87254300  0.11810800  0.53073300  1
  S  S39  1  0.12745700  0.11810800  0.96926700  1
  S  S40  1  0.70227250  0.05249950  0.04353500  1
  S  S41  1  0.29772750  0.05249950  0.45646500  1
  S  S42  1  0.29772750  0.94750050  0.95646500  1
  S  S43  1  0.70227250  0.94750050  0.54353500  1
  S  S44  1  0.46175800  0.78184500  0.95288800  1
  S  S45  1  0.53824200  0.78184500  0.54711200  1
  S  S46  1  0.53824200  0.21815500  0.04711200  1
  S  S47  1  0.46175800  0.21815500  0.45288800  1
  S  S48  1  0.67294000  0.78548800  0.25558300  1
  S  S49  1  0.32706000  0.78548800  0.24441700  1
  S  S50  1  0.32706000  0.21451200  0.74441700  1
  S  S51  1  0.67294000  0.21451200  0.75558300  1
  S  S52  1  0.00000000  0.54533000  0.75000000  1
  S  S53  1  0.00000000  0.45467000  0.25000000  1
  S  S54  1  0.00000000  0.88625300  0.75000000  1
  S  S55  1  0.00000000  0.11374700  0.25000000  1
  S  S56  1  0.62745700  0.38189200  0.46926700  1
  S  S57  1  0.37254300  0.38189200  0.03073300  1
  S  S58  1  0.37254300  0.61810800  0.53073300  1
  S  S59  1  0.62745700  0.61810800  0.96926700  1
  S  S60  1  0.20227250  0.55249950  0.04353500  1
  S  S61  1  0.79772750  0.55249950  0.45646500  1
  S  S62  1  0.79772750  0.44750050  0.95646500  1
  S  S63  1  0.20227250  0.44750050  0.54353500  1
  S  S64  1  0.96175800  0.28184500  0.95288800  1
  S  S65  1  0.03824200  0.28184500  0.54711200  1
  S  S66  1  0.03824200  0.71815500  0.04711200  1
  S  S67  1  0.96175800  0.71815500  0.45288800  1
  S  S68  1  0.17294000  0.28548800  0.25558300  1
  S  S69  1  0.82706000  0.28548800  0.24441700  1
  S  S70  1  0.82706000  0.71451200  0.74441700  1
  S  S71  1  0.17294000  0.71451200  0.75558300  1
