# generated using pymatgen
data_RbAg3Te2
_symmetry_space_group_name_H-M   'P 1'
_cell_length_a   17.78871600
_cell_length_b   4.65652800
_cell_length_c   9.37912908
_cell_angle_alpha   90.00000000
_cell_angle_beta   112.85158025
_cell_angle_gamma   90.00000000
_symmetry_Int_Tables_number   1
_chemical_formula_structural   RbAg3Te2
_chemical_formula_sum   'Rb4 Ag12 Te8'
_cell_volume   715.93110705
_cell_formula_units_Z   4
loop_
 _symmetry_equiv_pos_site_id
 _symmetry_equiv_pos_as_xyz
  1  'x, y, z'
loop_
 _atom_site_type_symbol
 _atom_site_label
 _atom_site_symmetry_multiplicity
 _atom_site_fract_x
 _atom_site_fract_y
 _atom_site_fract_z
 _atom_site_occupancy
  Rb  Rb0  1  0.36441800  0.50000000  0.95048000  1
  Rb  Rb1  1  0.13558200  0.00000000  0.04952000  1
  Rb  Rb2  1  0.86441800  0.00000000  0.95048000  1
  Rb  Rb3  1  0.63558200  0.50000000  0.04952000  1
  Ag  Ag4  1  0.06222100  0.00000000  0.40892700  1
  Ag  Ag5  1  0.41284200  0.00000000  0.37396400  1
  Ag  Ag6  1  0.43777900  0.50000000  0.59107300  1
  Ag  Ag7  1  0.19087400  0.50000000  0.45420100  1
  Ag  Ag8  1  0.08715800  0.50000000  0.62603600  1
  Ag  Ag9  1  0.30912600  0.00000000  0.54579900  1
  Ag  Ag10  1  0.56222100  0.50000000  0.40892700  1
  Ag  Ag11  1  0.91284200  0.50000000  0.37396400  1
  Ag  Ag12  1  0.93777900  0.00000000  0.59107300  1
  Ag  Ag13  1  0.69087400  0.00000000  0.45420100  1
  Ag  Ag14  1  0.58715800  0.00000000  0.62603600  1
  Ag  Ag15  1  0.80912600  0.50000000  0.54579900  1
  Te  Te16  1  0.29959000  0.50000000  0.30280400  1
  Te  Te17  1  0.02024500  0.50000000  0.22422500  1
  Te  Te18  1  0.47975500  0.00000000  0.77577500  1
  Te  Te19  1  0.20041000  0.00000000  0.69719600  1
  Te  Te20  1  0.79959000  0.00000000  0.30280400  1
  Te  Te21  1  0.52024500  0.00000000  0.22422500  1
  Te  Te22  1  0.97975500  0.50000000  0.77577500  1
  Te  Te23  1  0.70041000  0.50000000  0.69719600  1
