# generated using pymatgen
data_Na4FeO3
_symmetry_space_group_name_H-M   'P 1'
_cell_length_a   11.01045800
_cell_length_b   5.83659200
_cell_length_c   8.35257610
_cell_angle_alpha   90.00000000
_cell_angle_beta   114.18801028
_cell_angle_gamma   90.00000000
_symmetry_Int_Tables_number   1
_chemical_formula_structural   Na4FeO3
_chemical_formula_sum   'Na16 Fe4 O12'
_cell_volume   489.64128257
_cell_formula_units_Z   4
loop_
 _symmetry_equiv_pos_site_id
 _symmetry_equiv_pos_as_xyz
  1  'x, y, z'
loop_
 _atom_site_type_symbol
 _atom_site_label
 _atom_site_symmetry_multiplicity
 _atom_site_fract_x
 _atom_site_fract_y
 _atom_site_fract_z
 _atom_site_occupancy
  Na  Na0  1  0.11039900  0.16553100  0.94808800  1
  Na  Na1  1  0.38759750  0.34094050  0.03381700  1
  Na  Na2  1  0.20640200  0.34128000  0.62952600  1
  Na  Na3  1  0.30686200  0.79468600  0.85003100  1
  Na  Na4  1  0.30686200  0.20531400  0.35003100  1
  Na  Na5  1  0.20640200  0.65872000  0.12952600  1
  Na  Na6  1  0.38759750  0.65905950  0.53381700  1
  Na  Na7  1  0.11039900  0.83446900  0.44808800  1
  Na  Na8  1  0.61039900  0.66553100  0.94808800  1
  Na  Na9  1  0.88759750  0.84094050  0.03381700  1
  Na  Na10  1  0.70640200  0.84128000  0.62952600  1
  Na  Na11  1  0.80686200  0.29468600  0.85003100  1
  Na  Na12  1  0.80686200  0.70531400  0.35003100  1
  Na  Na13  1  0.70640200  0.15872000  0.12952600  1
  Na  Na14  1  0.88759750  0.15905950  0.53381700  1
  Na  Na15  1  0.61039900  0.33446900  0.44808800  1
  Fe  Fe16  1  0.47991300  0.14807500  0.74511000  1
  Fe  Fe17  1  0.47991300  0.85192500  0.24511000  1
  Fe  Fe18  1  0.97991300  0.64807500  0.74511000  1
  Fe  Fe19  1  0.97991300  0.35192500  0.24511000  1
  O  O20  1  0.43635750  0.44355650  0.79309900  1
  O  O21  1  0.31656950  0.99894850  0.61034300  1
  O  O22  1  0.31656950  0.00105150  0.11034300  1
  O  O23  1  0.43635750  0.55644350  0.29309900  1
  O  O24  1  0.14770050  0.48897150  0.34108600  1
  O  O25  1  0.14770050  0.51102850  0.84108600  1
  O  O26  1  0.93635750  0.94355650  0.79309900  1
  O  O27  1  0.81656950  0.49894850  0.61034300  1
  O  O28  1  0.81656950  0.50105150  0.11034300  1
  O  O29  1  0.93635750  0.05644350  0.29309900  1
  O  O30  1  0.64770050  0.98897150  0.34108600  1
  O  O31  1  0.64770050  0.01102850  0.84108600  1
