# generated using pymatgen
data_Na2V(PO4)2
_symmetry_space_group_name_H-M   'P 1'
_cell_length_a   8.35114200
_cell_length_b   8.35114200
_cell_length_c   5.02380800
_cell_angle_alpha   90.00000000
_cell_angle_beta   90.00000000
_cell_angle_gamma   90.00000000
_symmetry_Int_Tables_number   1
_chemical_formula_structural   Na2V(PO4)2
_chemical_formula_sum   'Na4 V2 P4 O16'
_cell_volume   350.36827088
_cell_formula_units_Z   2
loop_
 _symmetry_equiv_pos_site_id
 _symmetry_equiv_pos_as_xyz
  1  'x, y, z'
loop_
 _atom_site_type_symbol
 _atom_site_label
 _atom_site_symmetry_multiplicity
 _atom_site_fract_x
 _atom_site_fract_y
 _atom_site_fract_z
 _atom_site_occupancy
  Na  Na0  1  0.32405500  0.17594500  0.51072200  1
  Na  Na1  1  0.82405500  0.32405500  0.51072200  1
  Na  Na2  1  0.67594500  0.82405500  0.51072200  1
  Na  Na3  1  0.17594500  0.67594500  0.51072200  1
  V  V4  1  0.50000000  0.50000000  0.95829100  1
  V  V5  1  0.00000000  0.00000000  0.95829100  1
  P  P6  1  0.37092200  0.87092200  0.97452600  1
  P  P7  1  0.12907800  0.37092200  0.97452600  1
  P  P8  1  0.87092200  0.62907800  0.97452600  1
  P  P9  1  0.62907800  0.12907800  0.97452600  1
  O  O10  1  0.00000000  0.50000000  0.85538000  1
  O  O11  1  0.50000000  0.00000000  0.85538000  1
  O  O12  1  0.07672200  0.21396000  0.83819000  1
  O  O13  1  0.92327800  0.78604000  0.83819000  1
  O  O14  1  0.21396000  0.92327800  0.83819000  1
  O  O15  1  0.78604000  0.07672200  0.83819000  1
  O  O16  1  0.28604000  0.42327800  0.83819000  1
  O  O17  1  0.57672200  0.28604000  0.83819000  1
  O  O18  1  0.42327800  0.71396000  0.83819000  1
  O  O19  1  0.71396000  0.57672200  0.83819000  1
  O  O20  1  0.50000000  0.50000000  0.28326400  1
  O  O21  1  0.00000000  0.00000000  0.28326400  1
  O  O22  1  0.62896500  0.12896500  0.27340500  1
  O  O23  1  0.87103500  0.62896500  0.27340500  1
  O  O24  1  0.12896500  0.37103500  0.27340500  1
  O  O25  1  0.37103500  0.87103500  0.27340500  1
