# generated using pymatgen
data_Sr3DyRhO6
_symmetry_space_group_name_H-M   'P 1'
_cell_length_a   9.88177295
_cell_length_b   9.88177295
_cell_length_c   11.42793967
_cell_angle_alpha   90.00000000
_cell_angle_beta   90.00000000
_cell_angle_gamma   120.00000000
_symmetry_Int_Tables_number   1
_chemical_formula_structural   Sr3DyRhO6
_chemical_formula_sum   'Sr18 Dy6 Rh6 O36'
_cell_volume   966.42534846
_cell_formula_units_Z   6
loop_
 _symmetry_equiv_pos_site_id
 _symmetry_equiv_pos_as_xyz
  1  'x, y, z'
loop_
 _atom_site_type_symbol
 _atom_site_label
 _atom_site_symmetry_multiplicity
 _atom_site_fract_x
 _atom_site_fract_y
 _atom_site_fract_z
 _atom_site_occupancy
  Sr  Sr0  1  0.03541067  0.70207733  0.58333333  1
  Sr  Sr1  1  0.66666667  0.96458933  0.58333333  1
  Sr  Sr2  1  0.29792267  0.33333333  0.58333333  1
  Sr  Sr3  1  0.96458933  0.29792267  0.41666667  1
  Sr  Sr4  1  0.70207733  0.66666667  0.41666667  1
  Sr  Sr5  1  0.33333333  0.03541067  0.41666667  1
  Sr  Sr6  1  0.70207733  0.03541067  0.91666667  1
  Sr  Sr7  1  0.33333333  0.29792267  0.91666667  1
  Sr  Sr8  1  0.96458933  0.66666667  0.91666667  1
  Sr  Sr9  1  0.63125600  0.63125600  0.75000000  1
  Sr  Sr10  1  0.36874400  0.00000000  0.75000000  1
  Sr  Sr11  1  0.00000000  0.36874400  0.75000000  1
  Sr  Sr12  1  0.36874400  0.36874400  0.25000000  1
  Sr  Sr13  1  0.00000000  0.63125600  0.25000000  1
  Sr  Sr14  1  0.63125600  0.00000000  0.25000000  1
  Sr  Sr15  1  0.29792267  0.96458933  0.08333333  1
  Sr  Sr16  1  0.03541067  0.33333333  0.08333333  1
  Sr  Sr17  1  0.66666667  0.70207733  0.08333333  1
  Dy  Dy18  1  0.00000000  0.00000000  0.75000000  1
  Dy  Dy19  1  0.00000000  0.00000000  0.25000000  1
  Dy  Dy20  1  0.66666667  0.33333333  0.08333333  1
  Dy  Dy21  1  0.66666667  0.33333333  0.58333333  1
  Dy  Dy22  1  0.33333333  0.66666667  0.41666667  1
  Dy  Dy23  1  0.33333333  0.66666667  0.91666667  1
  Rh  Rh24  1  0.00000000  0.00000000  0.50000000  1
  Rh  Rh25  1  0.00000000  0.00000000  0.00000000  1
  Rh  Rh26  1  0.66666667  0.33333333  0.83333333  1
  Rh  Rh27  1  0.66666667  0.33333333  0.33333333  1
  Rh  Rh28  1  0.33333333  0.66666667  0.16666667  1
  Rh  Rh29  1  0.33333333  0.66666667  0.66666667  1
  O  O30  1  0.17915033  0.02252867  0.61299067  1
  O  O31  1  0.97747133  0.15662167  0.61299067  1
  O  O32  1  0.84337833  0.82084967  0.61299067  1
  O  O33  1  0.48995500  0.64413800  0.55367600  1
  O  O34  1  0.35586200  0.84581700  0.55367600  1
  O  O35  1  0.15418300  0.51004500  0.55367600  1
  O  O36  1  0.82084967  0.97747133  0.38700933  1
  O  O37  1  0.02252867  0.84337833  0.38700933  1
  O  O38  1  0.15662167  0.17915033  0.38700933  1
  O  O39  1  0.51004500  0.35586200  0.44632400  1
  O  O40  1  0.84581700  0.48995500  0.44632400  1
  O  O41  1  0.64413800  0.15418300  0.44632400  1
  O  O42  1  0.84581700  0.35586200  0.94632400  1
  O  O43  1  0.64413800  0.48995500  0.94632400  1
  O  O44  1  0.51004500  0.15418300  0.94632400  1
  O  O45  1  0.15662167  0.97747133  0.88700933  1
  O  O46  1  0.02252867  0.17915033  0.88700933  1
  O  O47  1  0.82084967  0.84337833  0.88700933  1
  O  O48  1  0.48751633  0.31080467  0.72034267  1
  O  O49  1  0.68919533  0.17671167  0.72034267  1
  O  O50  1  0.82328833  0.51248367  0.72034267  1
  O  O51  1  0.17671167  0.68919533  0.77965733  1
  O  O52  1  0.51248367  0.82328833  0.77965733  1
  O  O53  1  0.31080467  0.48751633  0.77965733  1
  O  O54  1  0.51248367  0.68919533  0.27965733  1
  O  O55  1  0.31080467  0.82328833  0.27965733  1
  O  O56  1  0.17671167  0.48751633  0.27965733  1
  O  O57  1  0.82328833  0.31080467  0.22034267  1
  O  O58  1  0.68919533  0.51248367  0.22034267  1
  O  O59  1  0.48751633  0.17671167  0.22034267  1
  O  O60  1  0.15418300  0.64413800  0.05367600  1
  O  O61  1  0.35586200  0.51004500  0.05367600  1
  O  O62  1  0.48995500  0.84581700  0.05367600  1
  O  O63  1  0.84337833  0.02252867  0.11299067  1
  O  O64  1  0.17915033  0.15662167  0.11299067  1
  O  O65  1  0.97747133  0.82084967  0.11299067  1
