# generated using pymatgen
data_RbBe2B3O7
_symmetry_space_group_name_H-M   'P 1'
_cell_length_a   4.43480700
_cell_length_b   7.76057100
_cell_length_c   17.93222800
_cell_angle_alpha   90.00000000
_cell_angle_beta   90.00000000
_cell_angle_gamma   90.00000000
_symmetry_Int_Tables_number   1
_chemical_formula_structural   RbBe2B3O7
_chemical_formula_sum   'Rb4 Be8 B12 O28'
_cell_volume   617.16693855
_cell_formula_units_Z   4
loop_
 _symmetry_equiv_pos_site_id
 _symmetry_equiv_pos_as_xyz
  1  'x, y, z'
loop_
 _atom_site_type_symbol
 _atom_site_label
 _atom_site_symmetry_multiplicity
 _atom_site_fract_x
 _atom_site_fract_y
 _atom_site_fract_z
 _atom_site_occupancy
  Rb  Rb0  1  0.94791300  0.50000000  0.35765400  1
  Rb  Rb1  1  0.44791300  0.00000000  0.64234600  1
  Rb  Rb2  1  0.92527700  0.00000000  0.14967400  1
  Rb  Rb3  1  0.42527700  0.50000000  0.85032600  1
  Be  Be4  1  0.43108600  0.18704900  0.45953400  1
  Be  Be5  1  0.43108600  0.81295100  0.45953400  1
  Be  Be6  1  0.93108600  0.31295100  0.54046600  1
  Be  Be7  1  0.93108600  0.68704900  0.54046600  1
  Be  Be8  1  0.35797900  0.32447100  0.03691000  1
  Be  Be9  1  0.35797900  0.67552900  0.03691000  1
  Be  Be10  1  0.85797900  0.17552900  0.96309000  1
  Be  Be11  1  0.85797900  0.82447100  0.96309000  1
  B  B12  1  0.93271300  0.00000000  0.48112000  1
  B  B13  1  0.43271300  0.50000000  0.51888000  1
  B  B14  1  0.86153300  0.50000000  0.00864000  1
  B  B15  1  0.36153300  0.00000000  0.99136000  1
  B  B16  1  0.51794200  0.15806900  0.31769900  1
  B  B17  1  0.51794200  0.84193100  0.31769900  1
  B  B18  1  0.01794200  0.34193100  0.68230100  1
  B  B19  1  0.01794200  0.65806900  0.68230100  1
  B  B20  1  0.42636600  0.33558000  0.19365900  1
  B  B21  1  0.42636600  0.66442000  0.19365900  1
  B  B22  1  0.92636600  0.16442000  0.80634100  1
  B  B23  1  0.92636600  0.83558000  0.80634100  1
  O  O24  1  0.24417100  0.00000000  0.47378300  1
  O  O25  1  0.74417100  0.50000000  0.52621700  1
  O  O26  1  0.78166600  0.15622400  0.48791500  1
  O  O27  1  0.78166600  0.84377600  0.48791500  1
  O  O28  1  0.28166600  0.34377600  0.51208500  1
  O  O29  1  0.28166600  0.65622400  0.51208500  1
  O  O30  1  0.17260700  0.50000000  0.01025000  1
  O  O31  1  0.67260700  0.00000000  0.98975000  1
  O  O32  1  0.20773100  0.15480400  0.99378100  1
  O  O33  1  0.20773100  0.84519600  0.99378100  1
  O  O34  1  0.70773100  0.34519600  0.00621900  1
  O  O35  1  0.70773100  0.65480400  0.00621900  1
  O  O36  1  0.42121700  0.25609400  0.37428000  1
  O  O37  1  0.42121700  0.74390600  0.37428000  1
  O  O38  1  0.92121700  0.24390600  0.62572000  1
  O  O39  1  0.92121700  0.75609400  0.62572000  1
  O  O40  1  0.66019900  0.00000000  0.33210000  1
  O  O41  1  0.16019900  0.50000000  0.66790000  1
  O  O42  1  0.48953000  0.19797900  0.24207300  1
  O  O43  1  0.48953000  0.80202100  0.24207300  1
  O  O44  1  0.98953000  0.30202100  0.75792700  1
  O  O45  1  0.98953000  0.69797900  0.75792700  1
  O  O46  1  0.45777800  0.50000000  0.22519900  1
  O  O47  1  0.95777800  0.00000000  0.77480100  1
  O  O48  1  0.35024300  0.29575200  0.12406300  1
  O  O49  1  0.35024300  0.70424800  0.12406300  1
  O  O50  1  0.85024300  0.20424800  0.87593700  1
  O  O51  1  0.85024300  0.79575200  0.87593700  1
