# generated using pymatgen
data_Na4CoO3
_symmetry_space_group_name_H-M   'P 1'
_cell_length_a   11.11566800
_cell_length_b   5.79548000
_cell_length_c   8.22017731
_cell_angle_alpha   90.00000000
_cell_angle_beta   114.06614171
_cell_angle_gamma   90.00000000
_symmetry_Int_Tables_number   1
_chemical_formula_structural   Na4CoO3
_chemical_formula_sum   'Na16 Co4 O12'
_cell_volume   483.51813364
_cell_formula_units_Z   4
loop_
 _symmetry_equiv_pos_site_id
 _symmetry_equiv_pos_as_xyz
  1  'x, y, z'
loop_
 _atom_site_type_symbol
 _atom_site_label
 _atom_site_symmetry_multiplicity
 _atom_site_fract_x
 _atom_site_fract_y
 _atom_site_fract_z
 _atom_site_occupancy
  Na  Na0  1  0.41570850  0.65733350  0.93520500  1
  Na  Na1  1  0.01158150  0.33969350  0.61641300  1
  Na  Na2  1  0.23121350  0.67072350  0.52366800  1
  Na  Na3  1  0.31519150  0.79126350  0.21244300  1
  Na  Na4  1  0.41570850  0.34266650  0.43520500  1
  Na  Na5  1  0.23121350  0.32927650  0.02366800  1
  Na  Na6  1  0.01158150  0.66030650  0.11641300  1
  Na  Na7  1  0.31519150  0.20873650  0.71244300  1
  Na  Na8  1  0.91570850  0.15733350  0.93520500  1
  Na  Na9  1  0.51158150  0.83969350  0.61641300  1
  Na  Na10  1  0.73121350  0.17072350  0.52366800  1
  Na  Na11  1  0.81519150  0.29126350  0.21244300  1
  Na  Na12  1  0.91570850  0.84266650  0.43520500  1
  Na  Na13  1  0.73121350  0.82927650  0.02366800  1
  Na  Na14  1  0.51158150  0.16030650  0.11641300  1
  Na  Na15  1  0.81519150  0.70873650  0.71244300  1
  Co  Co16  1  0.14395150  0.84884450  0.81341800  1
  Co  Co17  1  0.14395150  0.15115550  0.31341800  1
  Co  Co18  1  0.64395150  0.34884450  0.81341800  1
  Co  Co19  1  0.64395150  0.65115550  0.31341800  1
  O  O20  1  0.31015750  0.00482550  0.45402600  1
  O  O21  1  0.19148350  0.44907850  0.26876100  1
  O  O22  1  0.48324500  0.50991000  0.23106700  1
  O  O23  1  0.48324500  0.49009000  0.73106700  1
  O  O24  1  0.19148350  0.55092150  0.76876100  1
  O  O25  1  0.31015750  0.99517450  0.95402600  1
  O  O26  1  0.81015750  0.50482550  0.45402600  1
  O  O27  1  0.69148350  0.94907850  0.26876100  1
  O  O28  1  0.98324500  0.00991000  0.23106700  1
  O  O29  1  0.98324500  0.99009000  0.73106700  1
  O  O30  1  0.69148350  0.05092150  0.76876100  1
  O  O31  1  0.81015750  0.49517450  0.95402600  1
