# generated using pymatgen
data_Tb2TeO2
_symmetry_space_group_name_H-M   'P 1'
_cell_length_a   3.95267400
_cell_length_b   3.95267400
_cell_length_c   12.58829600
_cell_angle_alpha   90.00000000
_cell_angle_beta   90.00000000
_cell_angle_gamma   90.00000000
_symmetry_Int_Tables_number   1
_chemical_formula_structural   Tb2TeO2
_chemical_formula_sum   'Tb4 Te2 O4'
_cell_volume   196.67490107
_cell_formula_units_Z   2
loop_
 _symmetry_equiv_pos_site_id
 _symmetry_equiv_pos_as_xyz
  1  'x, y, z'
loop_
 _atom_site_type_symbol
 _atom_site_label
 _atom_site_symmetry_multiplicity
 _atom_site_fract_x
 _atom_site_fract_y
 _atom_site_fract_z
 _atom_site_occupancy
  Tb  Tb0  1  0.50000000  0.50000000  0.16227600  1
  Tb  Tb1  1  0.00000000  0.00000000  0.33772400  1
  Tb  Tb2  1  0.00000000  0.00000000  0.66227600  1
  Tb  Tb3  1  0.50000000  0.50000000  0.83772400  1
  Te  Te4  1  0.00000000  0.00000000  0.00000000  1
  Te  Te5  1  0.50000000  0.50000000  0.50000000  1
  O  O6  1  0.00000000  0.50000000  0.25000000  1
  O  O7  1  0.50000000  0.00000000  0.25000000  1
  O  O8  1  0.50000000  0.00000000  0.75000000  1
  O  O9  1  0.00000000  0.50000000  0.75000000  1
