# generated using pymatgen
data_Ba(BeN)2
_symmetry_space_group_name_H-M   'P 1'
_cell_length_a   5.67536200
_cell_length_b   5.67536200
_cell_length_c   8.51610000
_cell_angle_alpha   90.00000000
_cell_angle_beta   90.00000000
_cell_angle_gamma   90.00000000
_symmetry_Int_Tables_number   1
_chemical_formula_structural   Ba(BeN)2
_chemical_formula_sum   'Ba4 Be8 N8'
_cell_volume   274.30131428
_cell_formula_units_Z   4
loop_
 _symmetry_equiv_pos_site_id
 _symmetry_equiv_pos_as_xyz
  1  'x, y, z'
loop_
 _atom_site_type_symbol
 _atom_site_label
 _atom_site_symmetry_multiplicity
 _atom_site_fract_x
 _atom_site_fract_y
 _atom_site_fract_z
 _atom_site_occupancy
  Ba  Ba0  1  0.50000000  0.50000000  0.25000000  1
  Ba  Ba1  1  0.00000000  0.00000000  0.25000000  1
  Ba  Ba2  1  0.00000000  0.00000000  0.75000000  1
  Ba  Ba3  1  0.50000000  0.50000000  0.75000000  1
  Be  Be4  1  0.62876700  0.12876700  0.00000000  1
  Be  Be5  1  0.87123300  0.62876700  0.00000000  1
  Be  Be6  1  0.12876700  0.37123300  0.00000000  1
  Be  Be7  1  0.37123300  0.87123300  0.00000000  1
  Be  Be8  1  0.12876700  0.62876700  0.50000000  1
  Be  Be9  1  0.37123300  0.12876700  0.50000000  1
  Be  Be10  1  0.62876700  0.87123300  0.50000000  1
  Be  Be11  1  0.87123300  0.37123300  0.50000000  1
  N  N12  1  0.33397200  0.16602800  0.00000000  1
  N  N13  1  0.16602800  0.66602800  0.00000000  1
  N  N14  1  0.66602800  0.83397200  0.00000000  1
  N  N15  1  0.83397200  0.33397200  0.00000000  1
  N  N16  1  0.83397200  0.66602800  0.50000000  1
  N  N17  1  0.66602800  0.16602800  0.50000000  1
  N  N18  1  0.16602800  0.33397200  0.50000000  1
  N  N19  1  0.33397200  0.83397200  0.50000000  1
