# generated using pymatgen
data_Li3GaF6
_symmetry_space_group_name_H-M   'P 1'
_cell_length_a   14.61123000
_cell_length_b   8.71671600
_cell_length_c   10.18591916
_cell_angle_alpha   90.00000000
_cell_angle_beta   94.89991038
_cell_angle_gamma   90.00000000
_symmetry_Int_Tables_number   1
_chemical_formula_structural   Li3GaF6
_chemical_formula_sum   'Li36 Ga12 F72'
_cell_volume   1292.55737986
_cell_formula_units_Z   12
loop_
 _symmetry_equiv_pos_site_id
 _symmetry_equiv_pos_as_xyz
  1  'x, y, z'
loop_
 _atom_site_type_symbol
 _atom_site_label
 _atom_site_symmetry_multiplicity
 _atom_site_fract_x
 _atom_site_fract_y
 _atom_site_fract_z
 _atom_site_occupancy
  Li  Li0  1  0.33183500  0.79097700  0.44756000  1
  Li  Li1  1  0.66816500  0.79097700  0.05244000  1
  Li  Li2  1  0.66816500  0.20902300  0.55244000  1
  Li  Li3  1  0.33183500  0.20902300  0.94756000  1
  Li  Li4  1  0.63988850  0.64731950  0.77017300  1
  Li  Li5  1  0.36011150  0.64731950  0.72982700  1
  Li  Li6  1  0.50000000  0.31175800  0.75000000  1
  Li  Li7  1  0.50000000  0.68824200  0.25000000  1
  Li  Li8  1  0.20289700  0.14152000  0.43124000  1
  Li  Li9  1  0.79710300  0.14152000  0.06876000  1
  Li  Li10  1  0.79710300  0.85848000  0.56876000  1
  Li  Li11  1  0.20289700  0.85848000  0.93124000  1
  Li  Li12  1  0.52271050  0.15161750  0.03830600  1
  Li  Li13  1  0.47728950  0.15161750  0.46169400  1
  Li  Li14  1  0.47728950  0.84838250  0.96169400  1
  Li  Li15  1  0.52271050  0.84838250  0.53830600  1
  Li  Li16  1  0.36011150  0.35268050  0.22982700  1
  Li  Li17  1  0.63988850  0.35268050  0.27017300  1
  Li  Li18  1  0.83183500  0.29097700  0.44756000  1
  Li  Li19  1  0.16816500  0.29097700  0.05244000  1
  Li  Li20  1  0.16816500  0.70902300  0.55244000  1
  Li  Li21  1  0.83183500  0.70902300  0.94756000  1
  Li  Li22  1  0.13988850  0.14731950  0.77017300  1
  Li  Li23  1  0.86011150  0.14731950  0.72982700  1
  Li  Li24  1  0.00000000  0.81175800  0.75000000  1
  Li  Li25  1  0.00000000  0.18824200  0.25000000  1
  Li  Li26  1  0.70289700  0.64152000  0.43124000  1
  Li  Li27  1  0.29710300  0.64152000  0.06876000  1
  Li  Li28  1  0.29710300  0.35848000  0.56876000  1
  Li  Li29  1  0.70289700  0.35848000  0.93124000  1
  Li  Li30  1  0.02271050  0.65161750  0.03830600  1
  Li  Li31  1  0.97728950  0.65161750  0.46169400  1
  Li  Li32  1  0.97728950  0.34838250  0.96169400  1
  Li  Li33  1  0.02271050  0.34838250  0.53830600  1
  Li  Li34  1  0.86011150  0.85268050  0.22982700  1
  Li  Li35  1  0.13988850  0.85268050  0.27017300  1
  Ga  Ga36  1  0.33779150  0.99692250  0.20371400  1
  Ga  Ga37  1  0.66220850  0.99692250  0.29628600  1
  Ga  Ga38  1  0.66220850  0.00307750  0.79628600  1
  Ga  Ga39  1  0.33779150  0.00307750  0.70371400  1
  Ga  Ga40  1  0.00000000  0.00000000  0.50000000  1
  Ga  Ga41  1  0.00000000  0.00000000  0.00000000  1
  Ga  Ga42  1  0.83779150  0.49692250  0.20371400  1
  Ga  Ga43  1  0.16220850  0.49692250  0.29628600  1
  Ga  Ga44  1  0.16220850  0.50307750  0.79628600  1
  Ga  Ga45  1  0.83779150  0.50307750  0.70371400  1
  Ga  Ga46  1  0.50000000  0.50000000  0.50000000  1
  Ga  Ga47  1  0.50000000  0.50000000  0.00000000  1
  F  F48  1  0.60185300  0.15749800  0.19450800  1
  F  F49  1  0.75222500  0.02148500  0.66482100  1
  F  F50  1  0.75222500  0.97851500  0.16482100  1
  F  F51  1  0.24777500  0.97851500  0.33517900  1
  F  F52  1  0.57600000  0.66294000  0.93811000  1
  F  F53  1  0.42400000  0.66294000  0.56189000  1
  F  F54  1  0.42400000  0.33706000  0.06189000  1
  F  F55  1  0.57600000  0.33706000  0.43811000  1
  F  F56  1  0.24777500  0.02148500  0.83517900  1
  F  F57  1  0.57328550  0.66335550  0.43441200  1
  F  F58  1  0.57328550  0.33664450  0.93441200  1
  F  F59  1  0.42671450  0.33664450  0.56558800  1
  F  F60  1  0.39814700  0.15749800  0.30549200  1
  F  F61  1  0.57848400  0.99266100  0.93204900  1
  F  F62  1  0.57848400  0.00733900  0.43204900  1
  F  F63  1  0.42151600  0.00733900  0.06795100  1
  F  F64  1  0.26243650  0.15333650  0.60610100  1
  F  F65  1  0.73756350  0.15333650  0.89389900  1
  F  F66  1  0.73756350  0.84666350  0.39389900  1
  F  F67  1  0.26243650  0.84666350  0.10610100  1
  F  F68  1  0.07093550  0.00527550  0.16471100  1
  F  F69  1  0.92906450  0.00527550  0.33528900  1
  F  F70  1  0.92906450  0.99472450  0.83528900  1
  F  F71  1  0.07093550  0.99472450  0.66471100  1
  F  F72  1  0.39814700  0.84250200  0.80549200  1
  F  F73  1  0.60185300  0.84250200  0.69450800  1
  F  F74  1  0.72990650  0.15912150  0.38975200  1
  F  F75  1  0.42151600  0.99266100  0.56795100  1
  F  F76  1  0.27009350  0.84087850  0.61024800  1
  F  F77  1  0.72990650  0.84087850  0.88975200  1
  F  F78  1  0.59468650  0.15976250  0.69809200  1
  F  F79  1  0.40531350  0.15976250  0.80190800  1
  F  F80  1  0.40531350  0.84023750  0.30190800  1
  F  F81  1  0.59468650  0.84023750  0.19809200  1
  F  F82  1  0.42671450  0.66335550  0.06558800  1
  F  F83  1  0.27009350  0.15912150  0.11024800  1
  F  F84  1  0.10185300  0.65749800  0.19450800  1
  F  F85  1  0.25222500  0.52148500  0.66482100  1
  F  F86  1  0.25222500  0.47851500  0.16482100  1
  F  F87  1  0.74777500  0.47851500  0.33517900  1
  F  F88  1  0.07600000  0.16294000  0.93811000  1
  F  F89  1  0.92400000  0.16294000  0.56189000  1
  F  F90  1  0.92400000  0.83706000  0.06189000  1
  F  F91  1  0.07600000  0.83706000  0.43811000  1
  F  F92  1  0.74777500  0.52148500  0.83517900  1
  F  F93  1  0.07328550  0.16335550  0.43441200  1
  F  F94  1  0.07328550  0.83664450  0.93441200  1
  F  F95  1  0.92671450  0.83664450  0.56558800  1
  F  F96  1  0.89814700  0.65749800  0.30549200  1
  F  F97  1  0.07848400  0.49266100  0.93204900  1
  F  F98  1  0.07848400  0.50733900  0.43204900  1
  F  F99  1  0.92151600  0.50733900  0.06795100  1
  F  F100  1  0.76243650  0.65333650  0.60610100  1
  F  F101  1  0.23756350  0.65333650  0.89389900  1
  F  F102  1  0.23756350  0.34666350  0.39389900  1
  F  F103  1  0.76243650  0.34666350  0.10610100  1
  F  F104  1  0.57093550  0.50527550  0.16471100  1
  F  F105  1  0.42906450  0.50527550  0.33528900  1
  F  F106  1  0.42906450  0.49472450  0.83528900  1
  F  F107  1  0.57093550  0.49472450  0.66471100  1
  F  F108  1  0.89814700  0.34250200  0.80549200  1
  F  F109  1  0.10185300  0.34250200  0.69450800  1
  F  F110  1  0.22990650  0.65912150  0.38975200  1
  F  F111  1  0.92151600  0.49266100  0.56795100  1
  F  F112  1  0.77009350  0.34087850  0.61024800  1
  F  F113  1  0.22990650  0.34087850  0.88975200  1
  F  F114  1  0.09468650  0.65976250  0.69809200  1
  F  F115  1  0.90531350  0.65976250  0.80190800  1
  F  F116  1  0.90531350  0.34023750  0.30190800  1
  F  F117  1  0.09468650  0.34023750  0.19809200  1
  F  F118  1  0.92671450  0.16335550  0.06558800  1
  F  F119  1  0.77009350  0.65912150  0.11024800  1
