# generated using pymatgen
data_Y3Sc2Al3O12
_symmetry_space_group_name_H-M   'P 1'
_cell_length_a   12.44704200
_cell_length_b   12.44704200
_cell_length_c   12.44704200
_cell_angle_alpha   90.00000000
_cell_angle_beta   90.00000000
_cell_angle_gamma   90.00000000
_symmetry_Int_Tables_number   1
_chemical_formula_structural   Y3Sc2Al3O12
_chemical_formula_sum   'Y24 Sc16 Al24 O96'
_cell_volume   1928.40595959
_cell_formula_units_Z   8
loop_
 _symmetry_equiv_pos_site_id
 _symmetry_equiv_pos_as_xyz
  1  'x, y, z'
loop_
 _atom_site_type_symbol
 _atom_site_label
 _atom_site_symmetry_multiplicity
 _atom_site_fract_x
 _atom_site_fract_y
 _atom_site_fract_z
 _atom_site_occupancy
  Y  Y0  1  0.00000000  0.25000000  0.12500000  1
  Y  Y1  1  0.50000000  0.25000000  0.87500000  1
  Y  Y2  1  0.25000000  0.87500000  0.50000000  1
  Y  Y3  1  0.25000000  0.12500000  0.00000000  1
  Y  Y4  1  0.12500000  0.00000000  0.25000000  1
  Y  Y5  1  0.87500000  0.50000000  0.25000000  1
  Y  Y6  1  0.25000000  0.37500000  0.50000000  1
  Y  Y7  1  0.00000000  0.25000000  0.62500000  1
  Y  Y8  1  0.50000000  0.25000000  0.37500000  1
  Y  Y9  1  0.37500000  0.50000000  0.25000000  1
  Y  Y10  1  0.62500000  0.00000000  0.25000000  1
  Y  Y11  1  0.25000000  0.62500000  0.00000000  1
  Y  Y12  1  0.50000000  0.75000000  0.62500000  1
  Y  Y13  1  0.00000000  0.75000000  0.37500000  1
  Y  Y14  1  0.75000000  0.37500000  0.00000000  1
  Y  Y15  1  0.75000000  0.62500000  0.50000000  1
  Y  Y16  1  0.62500000  0.50000000  0.75000000  1
  Y  Y17  1  0.37500000  0.00000000  0.75000000  1
  Y  Y18  1  0.75000000  0.87500000  0.00000000  1
  Y  Y19  1  0.50000000  0.75000000  0.12500000  1
  Y  Y20  1  0.00000000  0.75000000  0.87500000  1
  Y  Y21  1  0.87500000  0.00000000  0.75000000  1
  Y  Y22  1  0.12500000  0.50000000  0.75000000  1
  Y  Y23  1  0.75000000  0.12500000  0.50000000  1
  Sc  Sc24  1  0.75000000  0.25000000  0.25000000  1
  Sc  Sc25  1  0.25000000  0.75000000  0.25000000  1
  Sc  Sc26  1  0.25000000  0.25000000  0.75000000  1
  Sc  Sc27  1  0.00000000  0.00000000  0.50000000  1
  Sc  Sc28  1  0.25000000  0.25000000  0.25000000  1
  Sc  Sc29  1  0.50000000  0.00000000  0.00000000  1
  Sc  Sc30  1  0.00000000  0.50000000  0.00000000  1
  Sc  Sc31  1  0.00000000  0.00000000  0.00000000  1
  Sc  Sc32  1  0.25000000  0.75000000  0.75000000  1
  Sc  Sc33  1  0.75000000  0.25000000  0.75000000  1
  Sc  Sc34  1  0.75000000  0.75000000  0.25000000  1
  Sc  Sc35  1  0.50000000  0.50000000  0.00000000  1
  Sc  Sc36  1  0.75000000  0.75000000  0.75000000  1
  Sc  Sc37  1  0.00000000  0.50000000  0.50000000  1
  Sc  Sc38  1  0.50000000  0.00000000  0.50000000  1
  Sc  Sc39  1  0.50000000  0.50000000  0.50000000  1
  Al  Al40  1  0.75000000  0.12500000  0.00000000  1
  Al  Al41  1  0.75000000  0.37500000  0.50000000  1
  Al  Al42  1  0.00000000  0.25000000  0.37500000  1
  Al  Al43  1  0.12500000  0.00000000  0.75000000  1
  Al  Al44  1  0.00000000  0.75000000  0.12500000  1
  Al  Al45  1  0.37500000  0.00000000  0.25000000  1
  Al  Al46  1  0.12500000  0.50000000  0.25000000  1
  Al  Al47  1  0.37500000  0.50000000  0.75000000  1
  Al  Al48  1  0.50000000  0.75000000  0.37500000  1
  Al  Al49  1  0.25000000  0.37500000  0.00000000  1
  Al  Al50  1  0.25000000  0.12500000  0.50000000  1
  Al  Al51  1  0.50000000  0.25000000  0.12500000  1
  Al  Al52  1  0.25000000  0.62500000  0.50000000  1
  Al  Al53  1  0.25000000  0.87500000  0.00000000  1
  Al  Al54  1  0.50000000  0.75000000  0.87500000  1
  Al  Al55  1  0.62500000  0.50000000  0.25000000  1
  Al  Al56  1  0.50000000  0.25000000  0.62500000  1
  Al  Al57  1  0.87500000  0.50000000  0.75000000  1
  Al  Al58  1  0.62500000  0.00000000  0.75000000  1
  Al  Al59  1  0.87500000  0.00000000  0.25000000  1
  Al  Al60  1  0.00000000  0.25000000  0.87500000  1
  Al  Al61  1  0.75000000  0.87500000  0.50000000  1
  Al  Al62  1  0.75000000  0.62500000  0.00000000  1
  Al  Al63  1  0.00000000  0.75000000  0.62500000  1
  O  O64  1  0.09323150  0.19348450  0.28132750  1
  O  O65  1  0.30651550  0.71867250  0.59323150  1
  O  O66  1  0.21867250  0.90676850  0.69348450  1
  O  O67  1  0.90676850  0.30651550  0.28132750  1
  O  O68  1  0.05651550  0.15676850  0.96867250  1
  O  O69  1  0.30651550  0.28132750  0.90676850  1
  O  O70  1  0.44348450  0.15676850  0.03132750  1
  O  O71  1  0.28132750  0.90676850  0.30651550  1
  O  O72  1  0.55651550  0.34323150  0.03132750  1
  O  O73  1  0.84323150  0.46867250  0.44348450  1
  O  O74  1  0.46867250  0.44348450  0.84323150  1
  O  O75  1  0.96867250  0.05651550  0.15676850  1
  O  O76  1  0.15676850  0.03132750  0.44348450  1
  O  O77  1  0.03132750  0.55651550  0.34323150  1
  O  O78  1  0.15676850  0.96867250  0.05651550  1
  O  O79  1  0.03132750  0.44348450  0.15676850  1
  O  O80  1  0.34323150  0.03132750  0.55651550  1
  O  O81  1  0.59323150  0.30651550  0.71867250  1
  O  O82  1  0.90676850  0.69348450  0.21867250  1
  O  O83  1  0.94348450  0.15676850  0.46867250  1
  O  O84  1  0.69348450  0.21867250  0.90676850  1
  O  O85  1  0.28132750  0.09323150  0.19348450  1
  O  O86  1  0.71867250  0.59323150  0.30651550  1
  O  O87  1  0.44348450  0.84323150  0.46867250  1
  O  O88  1  0.40676850  0.30651550  0.21867250  1
  O  O89  1  0.19348450  0.78132750  0.90676850  1
  O  O90  1  0.28132750  0.59323150  0.80651550  1
  O  O91  1  0.59323150  0.19348450  0.21867250  1
  O  O92  1  0.44348450  0.34323150  0.53132750  1
  O  O93  1  0.19348450  0.21867250  0.59323150  1
  O  O94  1  0.05651550  0.34323150  0.46867250  1
  O  O95  1  0.21867250  0.59323150  0.19348450  1
  O  O96  1  0.05651550  0.65676850  0.03132750  1
  O  O97  1  0.78132750  0.90676850  0.19348450  1
  O  O98  1  0.21867250  0.40676850  0.30651550  1
  O  O99  1  0.30651550  0.21867250  0.40676850  1
  O  O100  1  0.80651550  0.28132750  0.59323150  1
  O  O101  1  0.59323150  0.80651550  0.28132750  1
  O  O102  1  0.90676850  0.19348450  0.78132750  1
  O  O103  1  0.15676850  0.46867250  0.94348450  1
  O  O104  1  0.46867250  0.05651550  0.34323150  1
  O  O105  1  0.34323150  0.53132750  0.44348450  1
  O  O106  1  0.46867250  0.94348450  0.15676850  1
  O  O107  1  0.34323150  0.46867250  0.05651550  1
  O  O108  1  0.53132750  0.44348450  0.34323150  1
  O  O109  1  0.03132750  0.05651550  0.65676850  1
  O  O110  1  0.65676850  0.03132750  0.05651550  1
  O  O111  1  0.19348450  0.28132750  0.09323150  1
  O  O112  1  0.59323150  0.69348450  0.78132750  1
  O  O113  1  0.80651550  0.21867250  0.09323150  1
  O  O114  1  0.71867250  0.40676850  0.19348450  1
  O  O115  1  0.40676850  0.80651550  0.78132750  1
  O  O116  1  0.55651550  0.65676850  0.46867250  1
  O  O117  1  0.80651550  0.78132750  0.40676850  1
  O  O118  1  0.94348450  0.65676850  0.53132750  1
  O  O119  1  0.78132750  0.40676850  0.80651550  1
  O  O120  1  0.05651550  0.84323150  0.53132750  1
  O  O121  1  0.34323150  0.96867250  0.94348450  1
  O  O122  1  0.96867250  0.94348450  0.34323150  1
  O  O123  1  0.46867250  0.55651550  0.65676850  1
  O  O124  1  0.65676850  0.53132750  0.94348450  1
  O  O125  1  0.53132750  0.05651550  0.84323150  1
  O  O126  1  0.65676850  0.46867250  0.55651550  1
  O  O127  1  0.53132750  0.94348450  0.65676850  1
  O  O128  1  0.84323150  0.53132750  0.05651550  1
  O  O129  1  0.09323150  0.80651550  0.21867250  1
  O  O130  1  0.40676850  0.19348450  0.71867250  1
  O  O131  1  0.44348450  0.65676850  0.96867250  1
  O  O132  1  0.19348450  0.71867250  0.40676850  1
  O  O133  1  0.78132750  0.59323150  0.69348450  1
  O  O134  1  0.21867250  0.09323150  0.80651550  1
  O  O135  1  0.94348450  0.34323150  0.96867250  1
  O  O136  1  0.90676850  0.80651550  0.71867250  1
  O  O137  1  0.69348450  0.28132750  0.40676850  1
  O  O138  1  0.78132750  0.09323150  0.30651550  1
  O  O139  1  0.09323150  0.69348450  0.71867250  1
  O  O140  1  0.94348450  0.84323150  0.03132750  1
  O  O141  1  0.69348450  0.71867250  0.09323150  1
  O  O142  1  0.55651550  0.84323150  0.96867250  1
  O  O143  1  0.71867250  0.09323150  0.69348450  1
  O  O144  1  0.55651550  0.15676850  0.53132750  1
  O  O145  1  0.28132750  0.40676850  0.69348450  1
  O  O146  1  0.71867250  0.90676850  0.80651550  1
  O  O147  1  0.80651550  0.71867250  0.90676850  1
  O  O148  1  0.30651550  0.78132750  0.09323150  1
  O  O149  1  0.09323150  0.30651550  0.78132750  1
  O  O150  1  0.40676850  0.69348450  0.28132750  1
  O  O151  1  0.65676850  0.96867250  0.44348450  1
  O  O152  1  0.96867250  0.55651550  0.84323150  1
  O  O153  1  0.84323150  0.03132750  0.94348450  1
  O  O154  1  0.96867250  0.44348450  0.65676850  1
  O  O155  1  0.84323150  0.96867250  0.55651550  1
  O  O156  1  0.03132750  0.94348450  0.84323150  1
  O  O157  1  0.53132750  0.55651550  0.15676850  1
  O  O158  1  0.15676850  0.53132750  0.55651550  1
  O  O159  1  0.69348450  0.78132750  0.59323150  1
