# generated using pymatgen
data_CaMoO4
_symmetry_space_group_name_H-M   'P 1'
_cell_length_a   5.31072000
_cell_length_b   5.31072000
_cell_length_c   11.59687200
_cell_angle_alpha   90.00000000
_cell_angle_beta   90.00000000
_cell_angle_gamma   90.00000000
_symmetry_Int_Tables_number   1
_chemical_formula_structural   CaMoO4
_chemical_formula_sum   'Ca4 Mo4 O16'
_cell_volume   327.07524293
_cell_formula_units_Z   4
loop_
 _symmetry_equiv_pos_site_id
 _symmetry_equiv_pos_as_xyz
  1  'x, y, z'
loop_
 _atom_site_type_symbol
 _atom_site_label
 _atom_site_symmetry_multiplicity
 _atom_site_fract_x
 _atom_site_fract_y
 _atom_site_fract_z
 _atom_site_occupancy
  Ca  Ca0  1  0.50000000  0.00000000  0.25000000  1
  Ca  Ca1  1  0.50000000  0.50000000  0.00000000  1
  Ca  Ca2  1  0.00000000  0.50000000  0.75000000  1
  Ca  Ca3  1  0.00000000  0.00000000  0.50000000  1
  Mo  Mo4  1  0.00000000  0.50000000  0.25000000  1
  Mo  Mo5  1  0.00000000  0.00000000  0.00000000  1
  Mo  Mo6  1  0.50000000  0.00000000  0.75000000  1
  Mo  Mo7  1  0.50000000  0.50000000  0.50000000  1
  O  O8  1  0.24537450  0.64780150  0.16600150  1
  O  O9  1  0.75462550  0.35219850  0.16600150  1
  O  O10  1  0.64780150  0.25462550  0.41600150  1
  O  O11  1  0.35219850  0.74537450  0.41600150  1
  O  O12  1  0.75462550  0.85219850  0.08399850  1
  O  O13  1  0.24537450  0.14780150  0.08399850  1
  O  O14  1  0.85219850  0.74537450  0.33399850  1
  O  O15  1  0.14780150  0.25462550  0.33399850  1
  O  O16  1  0.74537450  0.14780150  0.66600150  1
  O  O17  1  0.25462550  0.85219850  0.66600150  1
  O  O18  1  0.14780150  0.75462550  0.91600150  1
  O  O19  1  0.85219850  0.24537450  0.91600150  1
  O  O20  1  0.25462550  0.35219850  0.58399850  1
  O  O21  1  0.74537450  0.64780150  0.58399850  1
  O  O22  1  0.35219850  0.24537450  0.83399850  1
  O  O23  1  0.64780150  0.75462550  0.83399850  1
