# generated using pymatgen
data_Sr2CoMoO6
_symmetry_space_group_name_H-M   'P 1'
_cell_length_a   5.56046400
_cell_length_b   5.56046400
_cell_length_c   7.87457400
_cell_angle_alpha   90.00000000
_cell_angle_beta   90.00000000
_cell_angle_gamma   90.00000000
_symmetry_Int_Tables_number   1
_chemical_formula_structural   Sr2CoMoO6
_chemical_formula_sum   'Sr4 Co2 Mo2 O12'
_cell_volume   243.47206278
_cell_formula_units_Z   2
loop_
 _symmetry_equiv_pos_site_id
 _symmetry_equiv_pos_as_xyz
  1  'x, y, z'
loop_
 _atom_site_type_symbol
 _atom_site_label
 _atom_site_symmetry_multiplicity
 _atom_site_fract_x
 _atom_site_fract_y
 _atom_site_fract_z
 _atom_site_occupancy
  Sr  Sr0  1  0.50000000  0.00000000  0.25000000  1
  Sr  Sr1  1  0.00000000  0.50000000  0.25000000  1
  Sr  Sr2  1  0.00000000  0.50000000  0.75000000  1
  Sr  Sr3  1  0.50000000  0.00000000  0.75000000  1
  Co  Co4  1  0.00000000  0.00000000  0.00000000  1
  Co  Co5  1  0.50000000  0.50000000  0.50000000  1
  Mo  Mo6  1  0.50000000  0.50000000  0.00000000  1
  Mo  Mo7  1  0.00000000  0.00000000  0.50000000  1
  O  O8  1  0.00000000  0.00000000  0.25225000  1
  O  O9  1  0.21593100  0.28694600  0.00000000  1
  O  O10  1  0.71305400  0.21593100  0.00000000  1
  O  O11  1  0.28694600  0.78406900  0.00000000  1
  O  O12  1  0.50000000  0.50000000  0.24775000  1
  O  O13  1  0.78406900  0.71305400  0.00000000  1
  O  O14  1  0.50000000  0.50000000  0.75225000  1
  O  O15  1  0.71593100  0.78694600  0.50000000  1
  O  O16  1  0.21305400  0.71593100  0.50000000  1
  O  O17  1  0.78694600  0.28406900  0.50000000  1
  O  O18  1  0.00000000  0.00000000  0.74775000  1
  O  O19  1  0.28406900  0.21305400  0.50000000  1
