# generated using pymatgen
data_ThSbRh
_symmetry_space_group_name_H-M   'P 1'
_cell_length_a   6.72918400
_cell_length_b   6.72918400
_cell_length_c   6.72918400
_cell_angle_alpha   90.00000000
_cell_angle_beta   90.00000000
_cell_angle_gamma   90.00000000
_symmetry_Int_Tables_number   1
_chemical_formula_structural   ThSbRh
_chemical_formula_sum   'Th4 Sb4 Rh4'
_cell_volume   304.71035342
_cell_formula_units_Z   4
loop_
 _symmetry_equiv_pos_site_id
 _symmetry_equiv_pos_as_xyz
  1  'x, y, z'
loop_
 _atom_site_type_symbol
 _atom_site_label
 _atom_site_symmetry_multiplicity
 _atom_site_fract_x
 _atom_site_fract_y
 _atom_site_fract_z
 _atom_site_occupancy
  Th  Th0  1  0.00000000  0.00000000  0.00000000  1
  Th  Th1  1  0.00000000  0.50000000  0.50000000  1
  Th  Th2  1  0.50000000  0.00000000  0.50000000  1
  Th  Th3  1  0.50000000  0.50000000  0.00000000  1
  Sb  Sb4  1  0.50000000  0.00000000  0.00000000  1
  Sb  Sb5  1  0.50000000  0.50000000  0.50000000  1
  Sb  Sb6  1  0.00000000  0.00000000  0.50000000  1
  Sb  Sb7  1  0.00000000  0.50000000  0.00000000  1
  Rh  Rh8  1  0.25000000  0.25000000  0.25000000  1
  Rh  Rh9  1  0.25000000  0.75000000  0.75000000  1
  Rh  Rh10  1  0.75000000  0.25000000  0.75000000  1
  Rh  Rh11  1  0.75000000  0.75000000  0.25000000  1
