# generated using pymatgen
data_K2Ni3S4
_symmetry_space_group_name_H-M   'P 1'
_cell_length_a   5.75771600
_cell_length_b   10.10265400
_cell_length_c   26.27052400
_cell_angle_alpha   90.00000000
_cell_angle_beta   90.00000000
_cell_angle_gamma   90.00000000
_symmetry_Int_Tables_number   1
_chemical_formula_structural   K2Ni3S4
_chemical_formula_sum   'K16 Ni24 S32'
_cell_volume   1528.10942457
_cell_formula_units_Z   8
loop_
 _symmetry_equiv_pos_site_id
 _symmetry_equiv_pos_as_xyz
  1  'x, y, z'
loop_
 _atom_site_type_symbol
 _atom_site_label
 _atom_site_symmetry_multiplicity
 _atom_site_fract_x
 _atom_site_fract_y
 _atom_site_fract_z
 _atom_site_occupancy
  K  K0  1  0.50000000  0.00000000  0.57817000  1
  K  K1  1  0.00000000  0.00000000  0.92183000  1
  K  K2  1  0.25000000  0.75000000  0.67183000  1
  K  K3  1  0.25000000  0.75000000  0.82817000  1
  K  K4  1  0.50000000  0.50000000  0.07817000  1
  K  K5  1  0.00000000  0.50000000  0.42183000  1
  K  K6  1  0.25000000  0.25000000  0.17183000  1
  K  K7  1  0.25000000  0.25000000  0.32817000  1
  K  K8  1  0.00000000  0.00000000  0.07817000  1
  K  K9  1  0.50000000  0.00000000  0.42183000  1
  K  K10  1  0.75000000  0.75000000  0.17183000  1
  K  K11  1  0.75000000  0.75000000  0.32817000  1
  K  K12  1  0.00000000  0.50000000  0.57817000  1
  K  K13  1  0.50000000  0.50000000  0.92183000  1
  K  K14  1  0.75000000  0.25000000  0.67183000  1
  K  K15  1  0.75000000  0.25000000  0.82817000  1
  Ni  Ni16  1  0.75000000  0.75000000  0.99927100  1
  Ni  Ni17  1  0.75000000  0.75000000  0.50072900  1
  Ni  Ni18  1  0.50000000  0.00000000  0.75072900  1
  Ni  Ni19  1  0.00000000  0.00000000  0.74927100  1
  Ni  Ni20  1  0.50000000  0.00000000  0.00000000  1
  Ni  Ni21  1  0.75000000  0.75000000  0.75000000  1
  Ni  Ni22  1  0.75000000  0.25000000  0.49927100  1
  Ni  Ni23  1  0.75000000  0.25000000  0.00072900  1
  Ni  Ni24  1  0.50000000  0.50000000  0.25072900  1
  Ni  Ni25  1  0.00000000  0.50000000  0.24927100  1
  Ni  Ni26  1  0.50000000  0.50000000  0.50000000  1
  Ni  Ni27  1  0.75000000  0.25000000  0.25000000  1
  Ni  Ni28  1  0.25000000  0.75000000  0.49927100  1
  Ni  Ni29  1  0.25000000  0.75000000  0.00072900  1
  Ni  Ni30  1  0.00000000  0.00000000  0.25072900  1
  Ni  Ni31  1  0.50000000  0.00000000  0.24927100  1
  Ni  Ni32  1  0.00000000  0.00000000  0.50000000  1
  Ni  Ni33  1  0.25000000  0.75000000  0.25000000  1
  Ni  Ni34  1  0.25000000  0.25000000  0.99927100  1
  Ni  Ni35  1  0.25000000  0.25000000  0.50072900  1
  Ni  Ni36  1  0.00000000  0.50000000  0.75072900  1
  Ni  Ni37  1  0.50000000  0.50000000  0.74927100  1
  Ni  Ni38  1  0.00000000  0.50000000  0.00000000  1
  Ni  Ni39  1  0.25000000  0.25000000  0.75000000  1
  S  S40  1  0.00438850  0.83391750  0.55498400  1
  S  S41  1  0.00438850  0.66608250  0.94501600  1
  S  S42  1  0.49561150  0.83391750  0.94501600  1
  S  S43  1  0.49561150  0.66608250  0.55498400  1
  S  S44  1  0.74561150  0.91608250  0.69501600  1
  S  S45  1  0.74561150  0.58391750  0.80498400  1
  S  S46  1  0.75438850  0.58391750  0.69501600  1
  S  S47  1  0.75438850  0.91608250  0.80498400  1
  S  S48  1  0.00438850  0.33391750  0.05498400  1
  S  S49  1  0.00438850  0.16608250  0.44501600  1
  S  S50  1  0.49561150  0.33391750  0.44501600  1
  S  S51  1  0.49561150  0.16608250  0.05498400  1
  S  S52  1  0.74561150  0.41608250  0.19501600  1
  S  S53  1  0.74561150  0.08391750  0.30498400  1
  S  S54  1  0.75438850  0.08391750  0.19501600  1
  S  S55  1  0.75438850  0.41608250  0.30498400  1
  S  S56  1  0.50438850  0.83391750  0.05498400  1
  S  S57  1  0.50438850  0.66608250  0.44501600  1
  S  S58  1  0.99561150  0.83391750  0.44501600  1
  S  S59  1  0.99561150  0.66608250  0.05498400  1
  S  S60  1  0.24561150  0.91608250  0.19501600  1
  S  S61  1  0.24561150  0.58391750  0.30498400  1
  S  S62  1  0.25438850  0.58391750  0.19501600  1
  S  S63  1  0.25438850  0.91608250  0.30498400  1
  S  S64  1  0.50438850  0.33391750  0.55498400  1
  S  S65  1  0.50438850  0.16608250  0.94501600  1
  S  S66  1  0.99561150  0.33391750  0.94501600  1
  S  S67  1  0.99561150  0.16608250  0.55498400  1
  S  S68  1  0.24561150  0.41608250  0.69501600  1
  S  S69  1  0.24561150  0.08391750  0.80498400  1
  S  S70  1  0.25438850  0.08391750  0.69501600  1
  S  S71  1  0.25438850  0.41608250  0.80498400  1
