# generated using pymatgen
data_TiMnO3
_symmetry_space_group_name_H-M   'P 1'
_cell_length_a   5.18901241
_cell_length_b   5.18901241
_cell_length_c   14.42886700
_cell_angle_alpha   90.00000000
_cell_angle_beta   90.00000000
_cell_angle_gamma   120.00000000
_symmetry_Int_Tables_number   1
_chemical_formula_structural   TiMnO3
_chemical_formula_sum   'Ti6 Mn6 O18'
_cell_volume   336.45910084
_cell_formula_units_Z   6
loop_
 _symmetry_equiv_pos_site_id
 _symmetry_equiv_pos_as_xyz
  1  'x, y, z'
loop_
 _atom_site_type_symbol
 _atom_site_label
 _atom_site_symmetry_multiplicity
 _atom_site_fract_x
 _atom_site_fract_y
 _atom_site_fract_z
 _atom_site_occupancy
  Ti  Ti0  1  0.66666667  0.33333333  0.47973533  1
  Ti  Ti1  1  0.33333333  0.66666667  0.52026467  1
  Ti  Ti2  1  0.33333333  0.66666667  0.81306867  1
  Ti  Ti3  1  0.00000000  0.00000000  0.85359800  1
  Ti  Ti4  1  0.00000000  0.00000000  0.14640200  1
  Ti  Ti5  1  0.66666667  0.33333333  0.18693133  1
  Mn  Mn6  1  0.00000000  0.00000000  0.64118100  1
  Mn  Mn7  1  0.00000000  0.00000000  0.35881900  1
  Mn  Mn8  1  0.66666667  0.33333333  0.97451433  1
  Mn  Mn9  1  0.66666667  0.33333333  0.69215233  1
  Mn  Mn10  1  0.33333333  0.66666667  0.30784767  1
  Mn  Mn11  1  0.33333333  0.66666667  0.02548567  1
  O  O12  1  0.37798000  0.36393800  0.57744400  1
  O  O13  1  0.63606200  0.01404200  0.57744400  1
  O  O14  1  0.98595800  0.62202000  0.57744400  1
  O  O15  1  0.62202000  0.63606200  0.42255600  1
  O  O16  1  0.36393800  0.98595800  0.42255600  1
  O  O17  1  0.01404200  0.37798000  0.42255600  1
  O  O18  1  0.04464667  0.69727133  0.91077733  1
  O  O19  1  0.30272867  0.34737533  0.91077733  1
  O  O20  1  0.65262467  0.95535333  0.91077733  1
  O  O21  1  0.28868667  0.96939533  0.75588933  1
  O  O22  1  0.03060467  0.31929133  0.75588933  1
  O  O23  1  0.68070867  0.71131333  0.75588933  1
  O  O24  1  0.71131333  0.03060467  0.24411067  1
  O  O25  1  0.96939533  0.68070867  0.24411067  1
  O  O26  1  0.31929133  0.28868667  0.24411067  1
  O  O27  1  0.95535333  0.30272867  0.08922267  1
  O  O28  1  0.69727133  0.65262467  0.08922267  1
  O  O29  1  0.34737533  0.04464667  0.08922267  1
