# generated using pymatgen
data_Ba2Mn(BO2)6
_symmetry_space_group_name_H-M   'P 1'
_cell_length_a   7.19169080
_cell_length_b   7.19169080
_cell_length_c   17.41672136
_cell_angle_alpha   90.00000000
_cell_angle_beta   90.00000000
_cell_angle_gamma   120.00000000
_symmetry_Int_Tables_number   1
_chemical_formula_structural   Ba2Mn(BO2)6
_chemical_formula_sum   'Ba6 Mn3 B18 O36'
_cell_volume   780.11575709
_cell_formula_units_Z   3
loop_
 _symmetry_equiv_pos_site_id
 _symmetry_equiv_pos_as_xyz
  1  'x, y, z'
loop_
 _atom_site_type_symbol
 _atom_site_label
 _atom_site_symmetry_multiplicity
 _atom_site_fract_x
 _atom_site_fract_y
 _atom_site_fract_z
 _atom_site_occupancy
  Ba  Ba0  1  0.33333333  0.66666667  0.45855467  1
  Ba  Ba1  1  0.33333333  0.66666667  0.87477867  1
  Ba  Ba2  1  0.00000000  0.00000000  0.79188800  1
  Ba  Ba3  1  0.00000000  0.00000000  0.20811200  1
  Ba  Ba4  1  0.66666667  0.33333333  0.12522133  1
  Ba  Ba5  1  0.66666667  0.33333333  0.54144533  1
  Mn  Mn6  1  0.00000000  0.00000000  0.00000000  1
  Mn  Mn7  1  0.66666667  0.33333333  0.33333333  1
  Mn  Mn8  1  0.33333333  0.66666667  0.66666667  1
  B  B9  1  0.55447767  0.71967033  0.07938333  1
  B  B10  1  0.16519267  0.44552233  0.07938333  1
  B  B11  1  0.28032967  0.83480733  0.07938333  1
  B  B12  1  0.38633700  0.49852600  0.25395000  1
  B  B13  1  0.11218900  0.61366300  0.25395000  1
  B  B14  1  0.50147400  0.88781100  0.25395000  1
  B  B15  1  0.22114433  0.05300367  0.41271667  1
  B  B16  1  0.83185933  0.77885567  0.41271667  1
  B  B17  1  0.94699633  0.16814067  0.41271667  1
  B  B18  1  0.05300367  0.83185933  0.58728333  1
  B  B19  1  0.77885567  0.94699633  0.58728333  1
  B  B20  1  0.16814067  0.22114433  0.58728333  1
  B  B21  1  0.88781100  0.38633700  0.74605000  1
  B  B22  1  0.49852600  0.11218900  0.74605000  1
  B  B23  1  0.61366300  0.50147400  0.74605000  1
  B  B24  1  0.71967033  0.16519267  0.92061667  1
  B  B25  1  0.44552233  0.28032967  0.92061667  1
  B  B26  1  0.83480733  0.55447767  0.92061667  1
  O  O27  1  0.17069633  0.45349567  0.25490467  1
  O  O28  1  0.38386733  0.50402967  0.07842867  1
  O  O29  1  0.12016233  0.61613267  0.07842867  1
  O  O30  1  0.54650433  0.71720067  0.25490467  1
  O  O31  1  0.49597033  0.87983767  0.07842867  1
  O  O32  1  0.28279933  0.82930367  0.25490467  1
  O  O33  1  0.42776367  0.33772733  0.25088533  1
  O  O34  1  0.66227267  0.09003633  0.25088533  1
  O  O35  1  0.90996367  0.57223633  0.25088533  1
  O  O36  1  0.23890300  0.99560600  0.08244800  1
  O  O37  1  0.00439400  0.24329700  0.08244800  1
  O  O38  1  0.75670300  0.76109700  0.08244800  1
  O  O39  1  0.83736300  0.78682900  0.58823800  1
  O  O40  1  0.05053400  0.83736300  0.41176200  1
  O  O41  1  0.78682900  0.94946600  0.41176200  1
  O  O42  1  0.21317100  0.05053400  0.58823800  1
  O  O43  1  0.16263700  0.21317100  0.41176200  1
  O  O44  1  0.94946600  0.16263700  0.58823800  1
  O  O45  1  0.09443033  0.67106067  0.58421867  1
  O  O46  1  0.32893933  0.42336967  0.58421867  1
  O  O47  1  0.57663033  0.90556967  0.58421867  1
  O  O48  1  0.90556967  0.32893933  0.41578133  1
  O  O49  1  0.67106067  0.57663033  0.41578133  1
  O  O50  1  0.42336967  0.09443033  0.41578133  1
  O  O51  1  0.50402967  0.12016233  0.92157133  1
  O  O52  1  0.71720067  0.17069633  0.74509533  1
  O  O53  1  0.45349567  0.28279933  0.74509533  1
  O  O54  1  0.87983767  0.38386733  0.92157133  1
  O  O55  1  0.82930367  0.54650433  0.74509533  1
  O  O56  1  0.61613267  0.49597033  0.92157133  1
  O  O57  1  0.76109700  0.00439400  0.91755200  1
  O  O58  1  0.99560600  0.75670300  0.91755200  1
  O  O59  1  0.24329700  0.23890300  0.91755200  1
  O  O60  1  0.57223633  0.66227267  0.74911467  1
  O  O61  1  0.33772733  0.90996367  0.74911467  1
  O  O62  1  0.09003633  0.42776367  0.74911467  1
