# generated using pymatgen
data_BaAlSi4N5O3
_symmetry_space_group_name_H-M   'P 1'
_cell_length_a   5.66849800
_cell_length_b   13.83079200
_cell_length_c   9.45674500
_cell_angle_alpha   90.00000000
_cell_angle_beta   90.00000000
_cell_angle_gamma   90.00000000
_symmetry_Int_Tables_number   1
_chemical_formula_structural   BaAlSi4N5O3
_chemical_formula_sum   'Ba4 Al4 Si16 N20 O12'
_cell_volume   741.40707543
_cell_formula_units_Z   4
loop_
 _symmetry_equiv_pos_site_id
 _symmetry_equiv_pos_as_xyz
  1  'x, y, z'
loop_
 _atom_site_type_symbol
 _atom_site_label
 _atom_site_symmetry_multiplicity
 _atom_site_fract_x
 _atom_site_fract_y
 _atom_site_fract_z
 _atom_site_occupancy
  Ba  Ba0  1  0.00000000  0.02522300  0.01237700  1
  Ba  Ba1  1  0.50000000  0.47477700  0.51237700  1
  Ba  Ba2  1  0.50000000  0.52522300  0.01237700  1
  Ba  Ba3  1  0.00000000  0.97477700  0.51237700  1
  Al  Al4  1  0.50000000  0.02870800  0.24246000  1
  Al  Al5  1  0.00000000  0.47129200  0.74246000  1
  Al  Al6  1  0.00000000  0.52870800  0.24246000  1
  Al  Al7  1  0.50000000  0.97129200  0.74246000  1
  Si  Si8  1  0.50000000  0.20162600  0.01249700  1
  Si  Si9  1  0.00000000  0.29837400  0.51249700  1
  Si  Si10  1  0.24869300  0.32776500  0.23249800  1
  Si  Si11  1  0.75130700  0.32776500  0.23249800  1
  Si  Si12  1  0.25130700  0.17223500  0.73249800  1
  Si  Si13  1  0.74869300  0.17223500  0.73249800  1
  Si  Si14  1  0.50000000  0.21113700  0.45402100  1
  Si  Si15  1  0.00000000  0.28886300  0.95402100  1
  Si  Si16  1  0.00000000  0.70162600  0.01249700  1
  Si  Si17  1  0.50000000  0.79837400  0.51249700  1
  Si  Si18  1  0.74869300  0.82776500  0.23249800  1
  Si  Si19  1  0.25130700  0.82776500  0.23249800  1
  Si  Si20  1  0.75130700  0.67223500  0.73249800  1
  Si  Si21  1  0.24869300  0.67223500  0.73249800  1
  Si  Si22  1  0.00000000  0.71113700  0.45402100  1
  Si  Si23  1  0.50000000  0.78886300  0.95402100  1
  N  N24  1  0.50000000  0.09141700  0.07866800  1
  N  N25  1  0.00000000  0.40858300  0.57866800  1
  N  N26  1  0.50000000  0.29927200  0.13661100  1
  N  N27  1  0.00000000  0.20072800  0.63661100  1
  N  N28  1  0.00000000  0.29082100  0.13970100  1
  N  N29  1  0.50000000  0.20917900  0.63970100  1
  N  N30  1  0.25111300  0.27654100  0.40105300  1
  N  N31  1  0.74888700  0.27654100  0.40105300  1
  N  N32  1  0.24888700  0.22345900  0.90105300  1
  N  N33  1  0.75111300  0.22345900  0.90105300  1
  N  N34  1  0.00000000  0.59141700  0.07866800  1
  N  N35  1  0.50000000  0.90858300  0.57866800  1
  N  N36  1  0.00000000  0.79927200  0.13661100  1
  N  N37  1  0.50000000  0.70072800  0.63661100  1
  N  N38  1  0.50000000  0.79082100  0.13970100  1
  N  N39  1  0.00000000  0.70917900  0.63970100  1
  N  N40  1  0.75111300  0.77654100  0.40105300  1
  N  N41  1  0.24888700  0.77654100  0.40105300  1
  N  N42  1  0.74888700  0.72345900  0.90105300  1
  N  N43  1  0.25111300  0.72345900  0.90105300  1
  O  O44  1  0.24770350  0.44694650  0.25184500  1
  O  O45  1  0.75229650  0.44694650  0.25184500  1
  O  O46  1  0.25229650  0.05305350  0.75184500  1
  O  O47  1  0.74770350  0.05305350  0.75184500  1
  O  O48  1  0.50000000  0.10051100  0.39667300  1
  O  O49  1  0.00000000  0.39948900  0.89667300  1
  O  O50  1  0.74770350  0.94694650  0.25184500  1
  O  O51  1  0.25229650  0.94694650  0.25184500  1
  O  O52  1  0.75229650  0.55305350  0.75184500  1
  O  O53  1  0.24770350  0.55305350  0.75184500  1
  O  O54  1  0.00000000  0.60051100  0.39667300  1
  O  O55  1  0.50000000  0.89948900  0.89667300  1
