# generated using pymatgen
data_NaV(SiO3)2
_symmetry_space_group_name_H-M   'P 1'
_cell_length_a   9.80537031
_cell_length_b   8.86699391
_cell_length_c   5.38220427
_cell_angle_alpha   90.00000000
_cell_angle_beta   107.03108671
_cell_angle_gamma   90.00000000
_symmetry_Int_Tables_number   1
_chemical_formula_structural   NaV(SiO3)2
_chemical_formula_sum   'Na4 V4 Si8 O24'
_cell_volume   447.42968227
_cell_formula_units_Z   4
loop_
 _symmetry_equiv_pos_site_id
 _symmetry_equiv_pos_as_xyz
  1  'x, y, z'
loop_
 _atom_site_type_symbol
 _atom_site_label
 _atom_site_symmetry_multiplicity
 _atom_site_fract_x
 _atom_site_fract_y
 _atom_site_fract_z
 _atom_site_occupancy
  Na  Na0  1  0.00000000  0.70096300  0.75000000  1
  Na  Na1  1  0.00000000  0.29903700  0.25000000  1
  Na  Na2  1  0.50000000  0.20096300  0.75000000  1
  Na  Na3  1  0.50000000  0.79903700  0.25000000  1
  V  V4  1  0.00000000  0.09448575  0.75000000  1
  V  V5  1  0.00000000  0.90551425  0.25000000  1
  V  V6  1  0.50000000  0.59448575  0.75000000  1
  V  V7  1  0.50000000  0.40551425  0.25000000  1
  Si  Si8  1  0.20816775  0.59011675  0.25713250  1
  Si  Si9  1  0.20816775  0.40988325  0.75713250  1
  Si  Si10  1  0.79183225  0.59011675  0.24286750  1
  Si  Si11  1  0.79183225  0.40988325  0.74286750  1
  Si  Si12  1  0.70816775  0.09011675  0.25713250  1
  Si  Si13  1  0.70816775  0.90988325  0.75713250  1
  Si  Si14  1  0.29183225  0.09011675  0.24286750  1
  Si  Si15  1  0.29183225  0.90988325  0.74286750  1
  O  O16  1  0.61650050  0.42012150  0.64844850  1
  O  O17  1  0.38349950  0.57987850  0.35155150  1
  O  O18  1  0.61650050  0.57987850  0.14844850  1
  O  O19  1  0.38349950  0.42012150  0.85155150  1
  O  O20  1  0.13721600  0.24500700  0.69358100  1
  O  O21  1  0.86278400  0.75499300  0.30641900  1
  O  O22  1  0.86278400  0.24500700  0.80641900  1
  O  O23  1  0.13721600  0.75499300  0.19358100  1
  O  O24  1  0.14859550  0.49338850  0.98086000  1
  O  O25  1  0.85140450  0.49338850  0.51914000  1
  O  O26  1  0.14859550  0.50661150  0.48086000  1
  O  O27  1  0.85140450  0.50661150  0.01914000  1
  O  O28  1  0.11650050  0.92012150  0.64844850  1
  O  O29  1  0.88349950  0.07987850  0.35155150  1
  O  O30  1  0.11650050  0.07987850  0.14844850  1
  O  O31  1  0.88349950  0.92012150  0.85155150  1
  O  O32  1  0.63721600  0.74500700  0.69358100  1
  O  O33  1  0.36278400  0.25499300  0.30641900  1
  O  O34  1  0.36278400  0.74500700  0.80641900  1
  O  O35  1  0.63721600  0.25499300  0.19358100  1
  O  O36  1  0.64859550  0.99338850  0.98086000  1
  O  O37  1  0.35140450  0.99338850  0.51914000  1
  O  O38  1  0.64859550  0.00661150  0.48086000  1
  O  O39  1  0.35140450  0.00661150  0.01914000  1
