# generated using pymatgen
data_Sr2CaWO6
_symmetry_space_group_name_H-M   'P 1'
_cell_length_a   5.83868000
_cell_length_b   6.10664400
_cell_length_c   8.36580900
_cell_angle_alpha   90.00000000
_cell_angle_beta   90.00000000
_cell_angle_gamma   90.00000000
_symmetry_Int_Tables_number   1
_chemical_formula_structural   Sr2CaWO6
_chemical_formula_sum   'Sr4 Ca2 W2 O12'
_cell_volume   298.28074637
_cell_formula_units_Z   2
loop_
 _symmetry_equiv_pos_site_id
 _symmetry_equiv_pos_as_xyz
  1  'x, y, z'
loop_
 _atom_site_type_symbol
 _atom_site_label
 _atom_site_symmetry_multiplicity
 _atom_site_fract_x
 _atom_site_fract_y
 _atom_site_fract_z
 _atom_site_occupancy
  Sr  Sr0  1  0.50000000  0.20426100  0.76762700  1
  Sr  Sr1  1  0.00000000  0.79573900  0.26762700  1
  Sr  Sr2  1  0.50000000  0.20426100  0.23237300  1
  Sr  Sr3  1  0.00000000  0.79573900  0.73237300  1
  Ca  Ca4  1  0.00000000  0.27539800  0.50000000  1
  Ca  Ca5  1  0.50000000  0.72460200  0.00000000  1
  W  W6  1  0.50000000  0.76503500  0.50000000  1
  W  W7  1  0.00000000  0.23496500  0.00000000  1
  O  O8  1  0.50000000  0.78205000  0.73262800  1
  O  O9  1  0.50000000  0.78205000  0.26737200  1
  O  O10  1  0.00000000  0.21795000  0.76737200  1
  O  O11  1  0.00000000  0.21795000  0.23262800  1
  O  O12  1  0.73298500  0.00196200  0.50000000  1
  O  O13  1  0.26701500  0.00196200  0.50000000  1
  O  O14  1  0.74460100  0.55517000  0.50000000  1
  O  O15  1  0.25539900  0.55517000  0.50000000  1
  O  O16  1  0.24460100  0.44483000  0.00000000  1
  O  O17  1  0.75539900  0.44483000  0.00000000  1
  O  O18  1  0.76701500  0.99803800  0.00000000  1
  O  O19  1  0.23298500  0.99803800  0.00000000  1
