# generated using pymatgen
data_RbNpN3O11
_symmetry_space_group_name_H-M   'P 1'
_cell_length_a   9.67069564
_cell_length_b   9.67069564
_cell_length_c   19.44981933
_cell_angle_alpha   90.00000000
_cell_angle_beta   90.00000000
_cell_angle_gamma   120.00000000
_symmetry_Int_Tables_number   1
_chemical_formula_structural   RbNpN3O11
_chemical_formula_sum   'Rb6 Np6 N18 O66'
_cell_volume   1575.29405336
_cell_formula_units_Z   6
loop_
 _symmetry_equiv_pos_site_id
 _symmetry_equiv_pos_as_xyz
  1  'x, y, z'
loop_
 _atom_site_type_symbol
 _atom_site_label
 _atom_site_symmetry_multiplicity
 _atom_site_fract_x
 _atom_site_fract_y
 _atom_site_fract_z
 _atom_site_occupancy
  Rb  Rb0  1  0.33333333  0.66666667  0.16666667  1
  Rb  Rb1  1  0.00000000  0.00000000  0.00000000  1
  Rb  Rb2  1  1.00000000  0.00000000  0.50000000  1
  Rb  Rb3  1  0.66666667  0.33333333  0.33333333  1
  Rb  Rb4  1  0.66666667  0.33333333  0.83333333  1
  Rb  Rb5  1  0.33333333  0.66666667  0.66666667  1
  Np  Np6  1  0.33333333  0.66666667  0.91666667  1
  Np  Np7  1  0.33333333  0.66666667  0.41666667  1
  Np  Np8  1  0.00000000  0.00000000  0.25000000  1
  Np  Np9  1  0.00000000  0.00000000  0.75000000  1
  Np  Np10  1  0.66666667  0.33333333  0.58333333  1
  Np  Np11  1  0.66666667  0.33333333  0.08333333  1
  N  N12  1  0.30232900  0.30232900  0.25000000  1
  N  N13  1  0.69767100  0.00000000  0.25000000  1
  N  N14  1  0.66666667  0.63566233  0.08333333  1
  N  N15  1  0.36433767  0.03100433  0.08333333  1
  N  N16  1  0.96899567  0.33333333  0.08333333  1
  N  N17  1  0.00000000  0.69767100  0.25000000  1
  N  N18  1  0.96899567  0.63566233  0.58333333  1
  N  N19  1  0.36433767  0.33333333  0.58333333  1
  N  N20  1  0.33333333  0.96899567  0.41666667  1
  N  N21  1  0.03100433  0.36433767  0.41666667  1
  N  N22  1  0.63566233  0.66666667  0.41666667  1
  N  N23  1  0.66666667  0.03100433  0.58333333  1
  N  N24  1  0.63566233  0.96899567  0.91666667  1
  N  N25  1  0.03100433  0.66666667  0.91666667  1
  N  N26  1  0.00000000  0.30232900  0.75000000  1
  N  N27  1  0.69767100  0.69767100  0.75000000  1
  N  N28  1  0.30232900  0.00000000  0.75000000  1
  N  N29  1  0.33333333  0.36433767  0.91666667  1
  O  O30  1  0.50054133  0.03781767  0.08947067  1
  O  O31  1  0.23729067  0.90395733  0.08333333  1
  O  O32  1  0.66666667  0.76270933  0.08333333  1
  O  O33  1  0.57062400  0.00000000  0.25000000  1
  O  O34  1  0.42937600  0.42937600  0.25000000  1
  O  O35  1  1.00000000  0.57062400  0.25000000  1
  O  O36  1  0.96218233  0.46272367  0.08947067  1
  O  O37  1  0.53727633  0.49945867  0.08947067  1
  O  O38  1  0.09604267  0.33333333  0.08333333  1
  O  O39  1  0.49945867  0.53727633  0.41052933  1
  O  O40  1  0.70448433  0.87060967  0.24386267  1
  O  O41  1  0.46272367  0.96218233  0.41052933  1
  O  O42  1  0.03781767  0.50054133  0.41052933  1
  O  O43  1  0.16612533  0.29551567  0.24386267  1
  O  O44  1  0.12939033  0.83387467  0.24386267  1
  O  O45  1  0.16720800  0.79605700  0.92280400  1
  O  O46  1  0.62884900  0.83279200  0.92280400  1
  O  O47  1  0.20394300  0.37115100  0.92280400  1
  O  O48  1  0.33333333  0.66666667  0.82460667  1
  O  O49  1  0.33333333  0.66666667  0.32460667  1
  O  O50  1  0.33333333  0.66666667  0.50872667  1
  O  O51  1  0.33333333  0.66666667  0.00872667  1
  O  O52  1  0.16720800  0.37115100  0.42280400  1
  O  O53  1  0.90395733  0.23729067  0.41666667  1
  O  O54  1  0.33333333  0.09604267  0.41666667  1
  O  O55  1  0.23729067  0.33333333  0.58333333  1
  O  O56  1  0.09604267  0.76270933  0.58333333  1
  O  O57  1  0.66666667  0.90395733  0.58333333  1
  O  O58  1  0.62884900  0.79605700  0.42280400  1
  O  O59  1  0.20394300  0.83279200  0.42280400  1
  O  O60  1  0.76270933  0.66666667  0.41666667  1
  O  O61  1  0.16612533  0.87060967  0.74386267  1
  O  O62  1  0.37115100  0.20394300  0.57719600  1
  O  O63  1  0.12939033  0.29551567  0.74386267  1
  O  O64  1  0.70448433  0.83387467  0.74386267  1
  O  O65  1  0.83279200  0.62884900  0.57719600  1
  O  O66  1  0.79605700  0.16720800  0.57719600  1
  O  O67  1  0.83387467  0.12939033  0.25613733  1
  O  O68  1  0.29551567  0.16612533  0.25613733  1
  O  O69  1  0.87060967  0.70448433  0.25613733  1
  O  O70  1  0.00000000  0.00000000  0.15794000  1
  O  O71  1  0.00000000  0.00000000  0.65794000  1
  O  O72  1  0.00000000  0.00000000  0.84206000  1
  O  O73  1  1.00000000  0.00000000  0.34206000  1
  O  O74  1  0.83387467  0.70448433  0.75613733  1
  O  O75  1  0.57062400  0.57062400  0.75000000  1
  O  O76  1  0.00000000  0.42937600  0.75000000  1
  O  O77  1  0.90395733  0.66666667  0.91666667  1
  O  O78  1  0.76270933  0.09604267  0.91666667  1
  O  O79  1  0.33333333  0.23729067  0.91666667  1
  O  O80  1  0.29551567  0.12939033  0.75613733  1
  O  O81  1  0.87060967  0.16612533  0.75613733  1
  O  O82  1  0.42937600  1.00000000  0.75000000  1
  O  O83  1  0.83279200  0.20394300  0.07719600  1
  O  O84  1  0.03781767  0.53727633  0.91052933  1
  O  O85  1  0.79605700  0.62884900  0.07719600  1
  O  O86  1  0.37115100  0.16720800  0.07719600  1
  O  O87  1  0.49945867  0.96218233  0.91052933  1
  O  O88  1  0.46272367  0.50054133  0.91052933  1
  O  O89  1  0.50054133  0.46272367  0.58947067  1
  O  O90  1  0.96218233  0.49945867  0.58947067  1
  O  O91  1  0.53727633  0.03781767  0.58947067  1
  O  O92  1  0.66666667  0.33333333  0.49127333  1
  O  O93  1  0.66666667  0.33333333  0.99127333  1
  O  O94  1  0.66666667  0.33333333  0.17539333  1
  O  O95  1  0.66666667  0.33333333  0.67539333  1
