# generated using pymatgen
data_Ga2O3
_symmetry_space_group_name_H-M   'P 1'
_cell_length_a   5.05952240
_cell_length_b   5.05952240
_cell_length_c   13.62479850
_cell_angle_alpha   90.00000000
_cell_angle_beta   90.00000000
_cell_angle_gamma   120.00000000
_symmetry_Int_Tables_number   1
_chemical_formula_structural   Ga2O3
_chemical_formula_sum   'Ga12 O18'
_cell_volume   302.05064333
_cell_formula_units_Z   6
loop_
 _symmetry_equiv_pos_site_id
 _symmetry_equiv_pos_as_xyz
  1  'x, y, z'
loop_
 _atom_site_type_symbol
 _atom_site_label
 _atom_site_symmetry_multiplicity
 _atom_site_fract_x
 _atom_site_fract_y
 _atom_site_fract_z
 _atom_site_occupancy
  Ga  Ga0  1  0.00000000  0.00000000  0.14408900  1
  Ga  Ga1  1  0.33333333  0.66666667  0.02257767  1
  Ga  Ga2  1  0.66666667  0.33333333  0.18924433  1
  Ga  Ga3  1  0.33333333  0.66666667  0.31075567  1
  Ga  Ga4  1  0.66666667  0.33333333  0.47742233  1
  Ga  Ga5  1  0.00000000  0.00000000  0.35591100  1
  Ga  Ga6  1  0.33333333  0.66666667  0.52257767  1
  Ga  Ga7  1  0.00000000  0.00000000  0.64408900  1
  Ga  Ga8  1  0.33333333  0.66666667  0.81075567  1
  Ga  Ga9  1  0.66666667  0.33333333  0.68924433  1
  Ga  Ga10  1  0.00000000  0.00000000  0.85591100  1
  Ga  Ga11  1  0.66666667  0.33333333  0.97742233  1
  O  O12  1  0.00000000  0.30312900  0.25000000  1
  O  O13  1  0.30312900  0.00000000  0.25000000  1
  O  O14  1  0.69687100  0.69687100  0.25000000  1
  O  O15  1  0.66666667  0.03020433  0.08333333  1
  O  O16  1  0.96979567  0.63646233  0.08333333  1
  O  O17  1  0.36353767  0.33333333  0.08333333  1
  O  O18  1  0.66666667  0.63646233  0.58333333  1
  O  O19  1  0.96979567  0.33333333  0.58333333  1
  O  O20  1  0.36353767  0.03020433  0.58333333  1
  O  O21  1  0.33333333  0.36353767  0.41666667  1
  O  O22  1  0.63646233  0.96979567  0.41666667  1
  O  O23  1  0.03020433  0.66666667  0.41666667  1
  O  O24  1  0.33333333  0.96979567  0.91666667  1
  O  O25  1  0.63646233  0.66666667  0.91666667  1
  O  O26  1  0.03020433  0.36353767  0.91666667  1
  O  O27  1  0.00000000  0.69687100  0.75000000  1
  O  O28  1  0.30312900  0.30312900  0.75000000  1
  O  O29  1  0.69687100  0.00000000  0.75000000  1
