# generated using pymatgen
data_Ge3Sb2O9
_symmetry_space_group_name_H-M   'P 1'
_cell_length_a   7.19718436
_cell_length_b   7.19718436
_cell_length_c   10.05123800
_cell_angle_alpha   90.00000000
_cell_angle_beta   90.00000000
_cell_angle_gamma   120.00000000
_symmetry_Int_Tables_number   1
_chemical_formula_structural   Ge3Sb2O9
_chemical_formula_sum   'Ge6 Sb4 O18'
_cell_volume   450.89502428
_cell_formula_units_Z   2
loop_
 _symmetry_equiv_pos_site_id
 _symmetry_equiv_pos_as_xyz
  1  'x, y, z'
loop_
 _atom_site_type_symbol
 _atom_site_label
 _atom_site_symmetry_multiplicity
 _atom_site_fract_x
 _atom_site_fract_y
 _atom_site_fract_z
 _atom_site_occupancy
  Ge  Ge0  1  0.92189000  0.71316900  0.75000000  1
  Ge  Ge1  1  0.20872100  0.92189000  0.25000000  1
  Ge  Ge2  1  0.71316900  0.79127900  0.25000000  1
  Ge  Ge3  1  0.28683100  0.20872100  0.75000000  1
  Ge  Ge4  1  0.07811000  0.28683100  0.25000000  1
  Ge  Ge5  1  0.79127900  0.07811000  0.75000000  1
  Sb  Sb6  1  0.33333333  0.66666667  0.99664600  1
  Sb  Sb7  1  0.66666667  0.33333333  0.49664600  1
  Sb  Sb8  1  0.66666667  0.33333333  0.00335400  1
  Sb  Sb9  1  0.33333333  0.66666667  0.50335400  1
  O  O10  1  0.09574700  0.43067100  0.39552400  1
  O  O11  1  0.66507600  0.09574700  0.89552400  1
  O  O12  1  0.43067100  0.33492400  0.89552400  1
  O  O13  1  0.56932900  0.66507600  0.39552400  1
  O  O14  1  0.33492400  0.90425300  0.39552400  1
  O  O15  1  0.90425300  0.56932900  0.89552400  1
  O  O16  1  0.90425300  0.56932900  0.60447600  1
  O  O17  1  0.33492400  0.90425300  0.10447600  1
  O  O18  1  0.56932900  0.66507600  0.10447600  1
  O  O19  1  0.43067100  0.33492400  0.60447600  1
  O  O20  1  0.66507600  0.09574700  0.60447600  1
  O  O21  1  0.09574700  0.43067100  0.10447600  1
  O  O22  1  0.80756000  0.07100700  0.25000000  1
  O  O23  1  0.73655300  0.80756000  0.75000000  1
  O  O24  1  0.07100700  0.26344700  0.75000000  1
  O  O25  1  0.92899300  0.73655300  0.25000000  1
  O  O26  1  0.26344700  0.19244000  0.25000000  1
  O  O27  1  0.19244000  0.92899300  0.75000000  1
