# generated using pymatgen
data_NaCr(SiO3)2
_symmetry_space_group_name_H-M   'P 1'
_cell_length_a   9.74485000
_cell_length_b   8.86108600
_cell_length_c   5.35555220
_cell_angle_alpha   90.00000000
_cell_angle_beta   107.91546585
_cell_angle_gamma   90.00000000
_symmetry_Int_Tables_number   1
_chemical_formula_structural   NaCr(SiO3)2
_chemical_formula_sum   'Na4 Cr4 Si8 O24'
_cell_volume   440.02805327
_cell_formula_units_Z   4
loop_
 _symmetry_equiv_pos_site_id
 _symmetry_equiv_pos_as_xyz
  1  'x, y, z'
loop_
 _atom_site_type_symbol
 _atom_site_label
 _atom_site_symmetry_multiplicity
 _atom_site_fract_x
 _atom_site_fract_y
 _atom_site_fract_z
 _atom_site_occupancy
  Na  Na0  1  0.00000000  0.70301800  0.75000000  1
  Na  Na1  1  0.00000000  0.29698200  0.25000000  1
  Na  Na2  1  0.50000000  0.20301800  0.75000000  1
  Na  Na3  1  0.50000000  0.79698200  0.25000000  1
  Cr  Cr4  1  0.00000000  0.09361600  0.75000000  1
  Cr  Cr5  1  0.00000000  0.90638400  0.25000000  1
  Cr  Cr6  1  0.50000000  0.59361600  0.75000000  1
  Cr  Cr7  1  0.50000000  0.40638400  0.25000000  1
  Si  Si8  1  0.79259900  0.40927000  0.73513100  1
  Si  Si9  1  0.79259900  0.59073000  0.23513100  1
  Si  Si10  1  0.20740100  0.40927000  0.76486900  1
  Si  Si11  1  0.20740100  0.59073000  0.26486900  1
  Si  Si12  1  0.29259900  0.90927000  0.73513100  1
  Si  Si13  1  0.29259900  0.09073000  0.23513100  1
  Si  Si14  1  0.70740100  0.90927000  0.76486900  1
  Si  Si15  1  0.70740100  0.09073000  0.26486900  1
  O  O16  1  0.85237950  0.49371150  0.51366100  1
  O  O17  1  0.14762050  0.49371150  0.98633900  1
  O  O18  1  0.14762050  0.50628850  0.48633900  1
  O  O19  1  0.85237950  0.50628850  0.01366100  1
  O  O20  1  0.86015900  0.24299200  0.80186700  1
  O  O21  1  0.13984100  0.24299200  0.69813300  1
  O  O22  1  0.13984100  0.75700800  0.19813300  1
  O  O23  1  0.86015900  0.75700800  0.30186700  1
  O  O24  1  0.61432300  0.57927100  0.13840400  1
  O  O25  1  0.38567700  0.57927100  0.36159600  1
  O  O26  1  0.38567700  0.42072900  0.86159600  1
  O  O27  1  0.61432300  0.42072900  0.63840400  1
  O  O28  1  0.35237950  0.99371150  0.51366100  1
  O  O29  1  0.64762050  0.99371150  0.98633900  1
  O  O30  1  0.64762050  0.00628850  0.48633900  1
  O  O31  1  0.35237950  0.00628850  0.01366100  1
  O  O32  1  0.36015900  0.74299200  0.80186700  1
  O  O33  1  0.63984100  0.74299200  0.69813300  1
  O  O34  1  0.63984100  0.25700800  0.19813300  1
  O  O35  1  0.36015900  0.25700800  0.30186700  1
  O  O36  1  0.11432300  0.07927100  0.13840400  1
  O  O37  1  0.88567700  0.07927100  0.36159600  1
  O  O38  1  0.88567700  0.92072900  0.86159600  1
  O  O39  1  0.11432300  0.92072900  0.63840400  1
