# generated using pymatgen
data_Rb2As2Pt
_symmetry_space_group_name_H-M   'P 1'
_cell_length_a   6.80493600
_cell_length_b   14.75314800
_cell_length_c   6.41497900
_cell_angle_alpha   90.00000000
_cell_angle_beta   90.00000000
_cell_angle_gamma   90.00000000
_symmetry_Int_Tables_number   1
_chemical_formula_structural   Rb2As2Pt
_chemical_formula_sum   'Rb8 As8 Pt4'
_cell_volume   644.02686395
_cell_formula_units_Z   4
loop_
 _symmetry_equiv_pos_site_id
 _symmetry_equiv_pos_as_xyz
  1  'x, y, z'
loop_
 _atom_site_type_symbol
 _atom_site_label
 _atom_site_symmetry_multiplicity
 _atom_site_fract_x
 _atom_site_fract_y
 _atom_site_fract_z
 _atom_site_occupancy
  Rb  Rb0  1  0.50000000  0.29419100  0.25000000  1
  Rb  Rb1  1  0.00000000  0.41754800  0.25000000  1
  Rb  Rb2  1  0.00000000  0.20580900  0.75000000  1
  Rb  Rb3  1  0.50000000  0.08245200  0.75000000  1
  Rb  Rb4  1  0.00000000  0.79419100  0.25000000  1
  Rb  Rb5  1  0.50000000  0.91754800  0.25000000  1
  Rb  Rb6  1  0.50000000  0.70580900  0.75000000  1
  Rb  Rb7  1  0.00000000  0.58245200  0.75000000  1
  As  As8  1  0.18041300  0.10403800  0.25000000  1
  As  As9  1  0.68041300  0.39596200  0.75000000  1
  As  As10  1  0.31958700  0.39596200  0.75000000  1
  As  As11  1  0.81958700  0.10403800  0.25000000  1
  As  As12  1  0.68041300  0.60403800  0.25000000  1
  As  As13  1  0.18041300  0.89596200  0.75000000  1
  As  As14  1  0.81958700  0.89596200  0.75000000  1
  As  As15  1  0.31958700  0.60403800  0.25000000  1
  Pt  Pt16  1  0.00000000  0.00000000  0.50000000  1
  Pt  Pt17  1  0.00000000  0.00000000  0.00000000  1
  Pt  Pt18  1  0.50000000  0.50000000  0.50000000  1
  Pt  Pt19  1  0.50000000  0.50000000  0.00000000  1
