# generated using pymatgen
data_BaV2O6
_symmetry_space_group_name_H-M   'P 1'
_cell_length_a   8.63349429
_cell_length_b   12.92796438
_cell_length_c   8.07465132
_cell_angle_alpha   90.00000000
_cell_angle_beta   90.00000000
_cell_angle_gamma   90.00000000
_symmetry_Int_Tables_number   1
_chemical_formula_structural   BaV2O6
_chemical_formula_sum   'Ba6 V12 O36'
_cell_volume   901.24014900
_cell_formula_units_Z   6
loop_
 _symmetry_equiv_pos_site_id
 _symmetry_equiv_pos_as_xyz
  1  'x, y, z'
loop_
 _atom_site_type_symbol
 _atom_site_label
 _atom_site_symmetry_multiplicity
 _atom_site_fract_x
 _atom_site_fract_y
 _atom_site_fract_z
 _atom_site_occupancy
  Ba  Ba0  1  0.00000000  0.66453573  0.50000000  1
  Ba  Ba1  1  0.00000000  0.33546427  0.50000000  1
  Ba  Ba2  1  0.50000000  0.00000000  0.00000000  1
  Ba  Ba3  1  0.50000000  0.16453572  0.50000000  1
  Ba  Ba4  1  0.50000000  0.83546427  0.50000000  1
  Ba  Ba5  1  0.00000000  0.50000000  0.00000000  1
  V  V6  1  0.25000000  0.75000000  0.93388105  1
  V  V7  1  0.25000000  0.25000000  0.06611895  1
  V  V8  1  0.82455421  0.07403685  0.25894346  1
  V  V9  1  0.17544579  0.92596315  0.25894346  1
  V  V10  1  0.17544579  0.07403685  0.74105654  1
  V  V11  1  0.82455421  0.92596315  0.74105654  1
  V  V12  1  0.75000000  0.25000000  0.93388105  1
  V  V13  1  0.75000000  0.75000000  0.06611895  1
  V  V14  1  0.32455421  0.57403685  0.25894346  1
  V  V15  1  0.67544579  0.42596315  0.25894346  1
  V  V16  1  0.67544579  0.57403685  0.74105654  1
  V  V17  1  0.32455421  0.42596315  0.74105654  1
  O  O18  1  0.22275479  0.86644700  0.06044996  1
  O  O19  1  0.77724521  0.13355300  0.06044996  1
  O  O20  1  0.22275479  0.13355300  0.93955004  1
  O  O21  1  0.77724521  0.86644700  0.93955004  1
  O  O22  1  0.16810393  0.83906014  0.41141784  1
  O  O23  1  0.83189607  0.16093986  0.41141784  1
  O  O24  1  0.16810393  0.16093986  0.58858216  1
  O  O25  1  0.83189607  0.83906014  0.58858216  1
  O  O26  1  0.90572535  0.27614449  0.81661501  1
  O  O27  1  0.00000000  0.00000000  0.75285465  1
  O  O28  1  0.00000000  0.00000000  0.24714535  1
  O  O29  1  0.66600986  0.99949073  0.70135546  1
  O  O30  1  0.33399014  0.00050927  0.70135546  1
  O  O31  1  0.09427465  0.72385551  0.81661501  1
  O  O32  1  0.33399014  0.99949073  0.29864454  1
  O  O33  1  0.09427465  0.27614449  0.18338499  1
  O  O34  1  0.90572535  0.72385551  0.18338499  1
  O  O35  1  0.66600986  0.00050927  0.29864454  1
  O  O36  1  0.72275479  0.36644700  0.06044996  1
  O  O37  1  0.27724521  0.63355300  0.06044996  1
  O  O38  1  0.72275479  0.63355300  0.93955004  1
  O  O39  1  0.27724521  0.36644700  0.93955004  1
  O  O40  1  0.66810393  0.33906014  0.41141784  1
  O  O41  1  0.33189607  0.66093986  0.41141784  1
  O  O42  1  0.66810393  0.66093986  0.58858216  1
  O  O43  1  0.33189607  0.33906014  0.58858216  1
  O  O44  1  0.40572535  0.77614449  0.81661501  1
  O  O45  1  0.50000000  0.50000000  0.75285465  1
  O  O46  1  0.50000000  0.50000000  0.24714535  1
  O  O47  1  0.16600986  0.49949073  0.70135546  1
  O  O48  1  0.83399014  0.50050927  0.70135546  1
  O  O49  1  0.59427465  0.22385551  0.81661501  1
  O  O50  1  0.83399014  0.49949073  0.29864454  1
  O  O51  1  0.59427465  0.77614449  0.18338499  1
  O  O52  1  0.40572535  0.22385551  0.18338499  1
  O  O53  1  0.16600986  0.50050927  0.29864454  1
