# generated using pymatgen
data_EuMg3SiN4
_symmetry_space_group_name_H-M   'P 1'
_cell_length_a   11.61548600
_cell_length_b   11.61548600
_cell_length_c   13.59017600
_cell_angle_alpha   90.00000000
_cell_angle_beta   90.00000000
_cell_angle_gamma   90.00000000
_symmetry_Int_Tables_number   1
_chemical_formula_structural   EuMg3SiN4
_chemical_formula_sum   'Eu16 Mg48 Si16 N64'
_cell_volume   1833.57995490
_cell_formula_units_Z   16
loop_
 _symmetry_equiv_pos_site_id
 _symmetry_equiv_pos_as_xyz
  1  'x, y, z'
loop_
 _atom_site_type_symbol
 _atom_site_label
 _atom_site_symmetry_multiplicity
 _atom_site_fract_x
 _atom_site_fract_y
 _atom_site_fract_z
 _atom_site_occupancy
  Eu  Eu0  1  0.23869800  0.26903300  0.96194900  1
  Eu  Eu1  1  0.26130200  0.23096700  0.46194900  1
  Eu  Eu2  1  0.23096700  0.23869800  0.71194900  1
  Eu  Eu3  1  0.26903300  0.26130200  0.21194900  1
  Eu  Eu4  1  0.26130200  0.73096700  0.78805100  1
  Eu  Eu5  1  0.23869800  0.76903300  0.28805100  1
  Eu  Eu6  1  0.76903300  0.26130200  0.53805100  1
  Eu  Eu7  1  0.73096700  0.23869800  0.03805100  1
  Eu  Eu8  1  0.73869800  0.76903300  0.46194900  1
  Eu  Eu9  1  0.76130200  0.73096700  0.96194900  1
  Eu  Eu10  1  0.73096700  0.73869800  0.21194900  1
  Eu  Eu11  1  0.76903300  0.76130200  0.71194900  1
  Eu  Eu12  1  0.76130200  0.23096700  0.28805100  1
  Eu  Eu13  1  0.73869800  0.26903300  0.78805100  1
  Eu  Eu14  1  0.26903300  0.76130200  0.03805100  1
  Eu  Eu15  1  0.23096700  0.73869800  0.53805100  1
  Mg  Mg16  1  0.00041450  0.13808250  0.80441350  1
  Mg  Mg17  1  0.49958550  0.36191750  0.30441350  1
  Mg  Mg18  1  0.36191750  0.00041450  0.55441350  1
  Mg  Mg19  1  0.13808250  0.49958550  0.05441350  1
  Mg  Mg20  1  0.99958550  0.36191750  0.44558650  1
  Mg  Mg21  1  0.50041450  0.13808250  0.94558650  1
  Mg  Mg22  1  0.13808250  0.99958550  0.19558650  1
  Mg  Mg23  1  0.36191750  0.50041450  0.69558650  1
  Mg  Mg24  1  0.66029200  0.48017800  0.43490400  1
  Mg  Mg25  1  0.33970800  0.51982200  0.43490400  1
  Mg  Mg26  1  0.01982200  0.66029200  0.18490400  1
  Mg  Mg27  1  0.98017800  0.33970800  0.18490400  1
  Mg  Mg28  1  0.83970800  0.51982200  0.31509600  1
  Mg  Mg29  1  0.16029200  0.48017800  0.31509600  1
  Mg  Mg30  1  0.98017800  0.83970800  0.06509600  1
  Mg  Mg31  1  0.01982200  0.16029200  0.06509600  1
  Mg  Mg32  1  0.34545450  0.52756050  0.93642150  1
  Mg  Mg33  1  0.15454550  0.97243950  0.43642150  1
  Mg  Mg34  1  0.47243950  0.84545450  0.18642150  1
  Mg  Mg35  1  0.52756050  0.15454550  0.18642150  1
  Mg  Mg36  1  0.65454550  0.97243950  0.31357850  1
  Mg  Mg37  1  0.34545450  0.02756050  0.31357850  1
  Mg  Mg38  1  0.02756050  0.15454550  0.56357850  1
  Mg  Mg39  1  0.47243950  0.34545450  0.06357850  1
  Mg  Mg40  1  0.50041450  0.63808250  0.30441350  1
  Mg  Mg41  1  0.99958550  0.86191750  0.80441350  1
  Mg  Mg42  1  0.86191750  0.50041450  0.05441350  1
  Mg  Mg43  1  0.63808250  0.99958550  0.55441350  1
  Mg  Mg44  1  0.49958550  0.86191750  0.94558650  1
  Mg  Mg45  1  0.00041450  0.63808250  0.44558650  1
  Mg  Mg46  1  0.63808250  0.49958550  0.69558650  1
  Mg  Mg47  1  0.86191750  0.00041450  0.19558650  1
  Mg  Mg48  1  0.16029200  0.98017800  0.93490400  1
  Mg  Mg49  1  0.83970800  0.01982200  0.93490400  1
  Mg  Mg50  1  0.51982200  0.16029200  0.68490400  1
  Mg  Mg51  1  0.48017800  0.83970800  0.68490400  1
  Mg  Mg52  1  0.33970800  0.01982200  0.81509600  1
  Mg  Mg53  1  0.66029200  0.98017800  0.81509600  1
  Mg  Mg54  1  0.48017800  0.33970800  0.56509600  1
  Mg  Mg55  1  0.51982200  0.66029200  0.56509600  1
  Mg  Mg56  1  0.84545450  0.02756050  0.43642150  1
  Mg  Mg57  1  0.65454550  0.47243950  0.93642150  1
  Mg  Mg58  1  0.97243950  0.34545450  0.68642150  1
  Mg  Mg59  1  0.02756050  0.65454550  0.68642150  1
  Mg  Mg60  1  0.15454550  0.47243950  0.81357850  1
  Mg  Mg61  1  0.84545450  0.52756050  0.81357850  1
  Mg  Mg62  1  0.52756050  0.65454550  0.06357850  1
  Mg  Mg63  1  0.97243950  0.84545450  0.56357850  1
  Si  Si64  1  0.46314350  0.32161150  0.81982350  1
  Si  Si65  1  0.03685650  0.17838850  0.31982350  1
  Si  Si66  1  0.67838850  0.96314350  0.06982350  1
  Si  Si67  1  0.32161150  0.03685650  0.06982350  1
  Si  Si68  1  0.53685650  0.17838850  0.43017650  1
  Si  Si69  1  0.46314350  0.82161150  0.43017650  1
  Si  Si70  1  0.32161150  0.53685650  0.18017650  1
  Si  Si71  1  0.17838850  0.96314350  0.68017650  1
  Si  Si72  1  0.96314350  0.82161150  0.31982350  1
  Si  Si73  1  0.53685650  0.67838850  0.81982350  1
  Si  Si74  1  0.17838850  0.46314350  0.56982350  1
  Si  Si75  1  0.82161150  0.53685650  0.56982350  1
  Si  Si76  1  0.03685650  0.67838850  0.93017650  1
  Si  Si77  1  0.96314350  0.32161150  0.93017650  1
  Si  Si78  1  0.82161150  0.03685650  0.68017650  1
  Si  Si79  1  0.67838850  0.46314350  0.18017650  1
  N  N80  1  0.33524150  0.40487150  0.82536850  1
  N  N81  1  0.16475850  0.09512850  0.32536850  1
  N  N82  1  0.09512850  0.33524150  0.57536850  1
  N  N83  1  0.40487150  0.16475850  0.07536850  1
  N  N84  1  0.16475850  0.59512850  0.92463150  1
  N  N85  1  0.33524150  0.90487150  0.42463150  1
  N  N86  1  0.90487150  0.16475850  0.67463150  1
  N  N87  1  0.59512850  0.33524150  0.17463150  1
  N  N88  1  0.04332800  0.34726000  0.04020300  1
  N  N89  1  0.45667200  0.15274000  0.54020300  1
  N  N90  1  0.15274000  0.04332800  0.79020300  1
  N  N91  1  0.34726000  0.45667200  0.29020300  1
  N  N92  1  0.95667200  0.15274000  0.20979700  1
  N  N93  1  0.54332800  0.34726000  0.70979700  1
  N  N94  1  0.84726000  0.45667200  0.45979700  1
  N  N95  1  0.65274000  0.04332800  0.95979700  1
  N  N96  1  0.91746150  0.67501650  0.31021050  1
  N  N97  1  0.08253850  0.32498350  0.31021050  1
  N  N98  1  0.32498350  0.41746150  0.56021050  1
  N  N99  1  0.17501650  0.08253850  0.06021050  1
  N  N100  1  0.08253850  0.82498350  0.93978950  1
  N  N101  1  0.41746150  0.67501650  0.43978950  1
  N  N102  1  0.17501650  0.58253850  0.18978950  1
  N  N103  1  0.82498350  0.41746150  0.18978950  1
  N  N104  1  0.55419450  0.82435750  0.32444350  1
  N  N105  1  0.44580550  0.17564250  0.32444350  1
  N  N106  1  0.17564250  0.05419450  0.57444350  1
  N  N107  1  0.32435750  0.44580550  0.07444350  1
  N  N108  1  0.94580550  0.17564250  0.42555650  1
  N  N109  1  0.55419450  0.32435750  0.92555650  1
  N  N110  1  0.32435750  0.94580550  0.17555650  1
  N  N111  1  0.67564250  0.05419450  0.17555650  1
  N  N112  1  0.83524150  0.90487150  0.32536850  1
  N  N113  1  0.66475850  0.59512850  0.82536850  1
  N  N114  1  0.59512850  0.83524150  0.07536850  1
  N  N115  1  0.90487150  0.66475850  0.57536850  1
  N  N116  1  0.66475850  0.09512850  0.42463150  1
  N  N117  1  0.83524150  0.40487150  0.92463150  1
  N  N118  1  0.40487150  0.66475850  0.17463150  1
  N  N119  1  0.09512850  0.83524150  0.67463150  1
  N  N120  1  0.54332800  0.84726000  0.54020300  1
  N  N121  1  0.95667200  0.65274000  0.04020300  1
  N  N122  1  0.65274000  0.54332800  0.29020300  1
  N  N123  1  0.84726000  0.95667200  0.79020300  1
  N  N124  1  0.45667200  0.65274000  0.70979700  1
  N  N125  1  0.04332800  0.84726000  0.20979700  1
  N  N126  1  0.34726000  0.95667200  0.95979700  1
  N  N127  1  0.15274000  0.54332800  0.45979700  1
  N  N128  1  0.41746150  0.17501650  0.81021050  1
  N  N129  1  0.58253850  0.82498350  0.81021050  1
  N  N130  1  0.82498350  0.91746150  0.06021050  1
  N  N131  1  0.67501650  0.58253850  0.56021050  1
  N  N132  1  0.58253850  0.32498350  0.43978950  1
  N  N133  1  0.91746150  0.17501650  0.93978950  1
  N  N134  1  0.67501650  0.08253850  0.68978950  1
  N  N135  1  0.32498350  0.91746150  0.68978950  1
  N  N136  1  0.05419450  0.32435750  0.82444350  1
  N  N137  1  0.94580550  0.67564250  0.82444350  1
  N  N138  1  0.67564250  0.55419450  0.07444350  1
  N  N139  1  0.82435750  0.94580550  0.57444350  1
  N  N140  1  0.44580550  0.67564250  0.92555650  1
  N  N141  1  0.05419450  0.82435750  0.42555650  1
  N  N142  1  0.82435750  0.44580550  0.67555650  1
  N  N143  1  0.17564250  0.55419450  0.67555650  1
