# generated using pymatgen
data_NaSr4(BN2)3
_symmetry_space_group_name_H-M   'P 1'
_cell_length_a   7.59149000
_cell_length_b   7.59149000
_cell_length_c   7.59149000
_cell_angle_alpha   90.00000000
_cell_angle_beta   90.00000000
_cell_angle_gamma   90.00000000
_symmetry_Int_Tables_number   1
_chemical_formula_structural   NaSr4(BN2)3
_chemical_formula_sum   'Na2 Sr8 B6 N12'
_cell_volume   437.50303776
_cell_formula_units_Z   2
loop_
 _symmetry_equiv_pos_site_id
 _symmetry_equiv_pos_as_xyz
  1  'x, y, z'
loop_
 _atom_site_type_symbol
 _atom_site_label
 _atom_site_symmetry_multiplicity
 _atom_site_fract_x
 _atom_site_fract_y
 _atom_site_fract_z
 _atom_site_occupancy
  Na  Na0  1  0.00000000  0.00000000  0.00000000  1
  Na  Na1  1  0.50000000  0.50000000  0.50000000  1
  Sr  Sr2  1  0.75000000  0.25000000  0.25000000  1
  Sr  Sr3  1  0.25000000  0.25000000  0.75000000  1
  Sr  Sr4  1  0.25000000  0.25000000  0.25000000  1
  Sr  Sr5  1  0.25000000  0.75000000  0.25000000  1
  Sr  Sr6  1  0.25000000  0.75000000  0.75000000  1
  Sr  Sr7  1  0.75000000  0.75000000  0.25000000  1
  Sr  Sr8  1  0.75000000  0.75000000  0.75000000  1
  Sr  Sr9  1  0.75000000  0.25000000  0.75000000  1
  B  B10  1  0.00000000  0.50000000  0.00000000  1
  B  B11  1  0.50000000  0.00000000  0.00000000  1
  B  B12  1  0.00000000  0.00000000  0.50000000  1
  B  B13  1  0.50000000  0.00000000  0.50000000  1
  B  B14  1  0.00000000  0.50000000  0.50000000  1
  B  B15  1  0.50000000  0.50000000  0.00000000  1
  N  N16  1  0.67754500  0.00000000  0.00000000  1
  N  N17  1  0.32245500  0.00000000  0.00000000  1
  N  N18  1  0.00000000  0.67754500  0.00000000  1
  N  N19  1  0.00000000  0.32245500  0.00000000  1
  N  N20  1  0.00000000  0.00000000  0.67754500  1
  N  N21  1  0.00000000  0.00000000  0.32245500  1
  N  N22  1  0.17754500  0.50000000  0.50000000  1
  N  N23  1  0.82245500  0.50000000  0.50000000  1
  N  N24  1  0.50000000  0.17754500  0.50000000  1
  N  N25  1  0.50000000  0.82245500  0.50000000  1
  N  N26  1  0.50000000  0.50000000  0.17754500  1
  N  N27  1  0.50000000  0.50000000  0.82245500  1
