# generated using pymatgen
data_SiAs
_symmetry_space_group_name_H-M   'P 1'
_cell_length_a   17.73290000
_cell_length_b   3.69632000
_cell_length_c   10.22790168
_cell_angle_alpha   90.00000000
_cell_angle_beta   112.34162477
_cell_angle_gamma   90.00000000
_symmetry_Int_Tables_number   1
_chemical_formula_structural   SiAs
_chemical_formula_sum   'Si12 As12'
_cell_volume   620.07828603
_cell_formula_units_Z   12
loop_
 _symmetry_equiv_pos_site_id
 _symmetry_equiv_pos_as_xyz
  1  'x, y, z'
loop_
 _atom_site_type_symbol
 _atom_site_label
 _atom_site_symmetry_multiplicity
 _atom_site_fract_x
 _atom_site_fract_y
 _atom_site_fract_z
 _atom_site_occupancy
  Si  Si0  1  0.36312400  0.50000000  0.59020500  1
  Si  Si1  1  0.13687600  0.00000000  0.40979500  1
  Si  Si2  1  0.26890600  0.50000000  0.70073000  1
  Si  Si3  1  0.23109400  0.00000000  0.29927000  1
  Si  Si4  1  0.43496400  0.00000000  0.90818200  1
  Si  Si5  1  0.06503600  0.50000000  0.09181800  1
  Si  Si6  1  0.86312400  0.00000000  0.59020500  1
  Si  Si7  1  0.63687600  0.50000000  0.40979500  1
  Si  Si8  1  0.76890600  0.00000000  0.70073000  1
  Si  Si9  1  0.73109400  0.50000000  0.29927000  1
  Si  Si10  1  0.93496400  0.50000000  0.90818200  1
  Si  Si11  1  0.56503600  0.00000000  0.09181800  1
  As  As12  1  0.35760500  0.50000000  0.94552500  1
  As  As13  1  0.14239500  0.00000000  0.05447500  1
  As  As14  1  0.32398600  0.50000000  0.33804000  1
  As  As15  1  0.17601400  0.00000000  0.66196000  1
  As  As16  1  0.45479100  0.00000000  0.68586500  1
  As  As17  1  0.04520900  0.50000000  0.31413500  1
  As  As18  1  0.85760500  0.00000000  0.94552500  1
  As  As19  1  0.64239500  0.50000000  0.05447500  1
  As  As20  1  0.82398600  0.00000000  0.33804000  1
  As  As21  1  0.67601400  0.50000000  0.66196000  1
  As  As22  1  0.95479100  0.50000000  0.68586500  1
  As  As23  1  0.54520900  0.00000000  0.31413500  1
