# generated using pymatgen
data_MgSiO3
_symmetry_space_group_name_H-M   'P 1'
_cell_length_a   5.25606000
_cell_length_b   8.98205500
_cell_length_c   18.53142194
_cell_angle_alpha   90.00000000
_cell_angle_beta   90.22504163
_cell_angle_gamma   90.00000000
_symmetry_Int_Tables_number   1
_chemical_formula_structural   MgSiO3
_chemical_formula_sum   'Mg16 Si16 O48'
_cell_volume   874.86575853
_cell_formula_units_Z   16
loop_
 _symmetry_equiv_pos_site_id
 _symmetry_equiv_pos_as_xyz
  1  'x, y, z'
loop_
 _atom_site_type_symbol
 _atom_site_label
 _atom_site_symmetry_multiplicity
 _atom_site_fract_x
 _atom_site_fract_y
 _atom_site_fract_z
 _atom_site_occupancy
  Mg  Mg0  1  0.57075800  0.34876000  0.12573600  1
  Mg  Mg1  1  0.92924200  0.84876000  0.87426400  1
  Mg  Mg2  1  0.42924200  0.65124000  0.87426400  1
  Mg  Mg3  1  0.07075800  0.15124000  0.12573600  1
  Mg  Mg4  1  0.56949600  0.99096700  0.12576200  1
  Mg  Mg5  1  0.93050400  0.49096700  0.87423800  1
  Mg  Mg6  1  0.43050400  0.00903300  0.87423800  1
  Mg  Mg7  1  0.06949600  0.50903300  0.12576200  1
  Mg  Mg8  1  0.86680000  0.34872200  0.62538700  1
  Mg  Mg9  1  0.63320000  0.84872200  0.37461300  1
  Mg  Mg10  1  0.13320000  0.65127800  0.37461300  1
  Mg  Mg11  1  0.36680000  0.15127800  0.62538700  1
  Mg  Mg12  1  0.86448500  0.99097800  0.62059400  1
  Mg  Mg13  1  0.63551500  0.49097800  0.37940600  1
  Mg  Mg14  1  0.13551500  0.00902200  0.37940600  1
  Mg  Mg15  1  0.36448500  0.50902200  0.62059400  1
  Si  Si16  1  0.26767600  0.83962300  0.02283300  1
  Si  Si17  1  0.23232400  0.33962300  0.97716700  1
  Si  Si18  1  0.73232400  0.16037700  0.97716700  1
  Si  Si19  1  0.76767600  0.66037700  0.02283300  1
  Si  Si20  1  0.08376700  0.66131300  0.72625500  1
  Si  Si21  1  0.41623300  0.16131300  0.27374500  1
  Si  Si22  1  0.91623300  0.33868700  0.27374500  1
  Si  Si23  1  0.58376700  0.83868700  0.72625500  1
  Si  Si24  1  0.52338000  0.33874800  0.77244900  1
  Si  Si25  1  0.97662000  0.83874800  0.22755100  1
  Si  Si26  1  0.47662000  0.66125200  0.22755100  1
  Si  Si27  1  0.02338000  0.16125200  0.77244900  1
  Si  Si28  1  0.30240300  0.83640800  0.52605400  1
  Si  Si29  1  0.19759700  0.33640800  0.47394600  1
  Si  Si30  1  0.69759700  0.16359200  0.47394600  1
  Si  Si31  1  0.80240300  0.66359200  0.52605400  1
  O  O32  1  0.26013900  0.83993700  0.93480400  1
  O  O33  1  0.23986100  0.33993700  0.06519600  1
  O  O34  1  0.73986100  0.16006300  0.06519600  1
  O  O35  1  0.76013900  0.66006300  0.93480400  1
  O  O36  1  0.24851800  0.99714200  0.06341800  1
  O  O37  1  0.25148200  0.49714200  0.93658200  1
  O  O38  1  0.75148200  0.00285800  0.93658200  1
  O  O39  1  0.74851800  0.50285800  0.06341800  1
  O  O40  1  0.05316700  0.71801300  0.05309400  1
  O  O41  1  0.44683300  0.21801300  0.94690600  1
  O  O42  1  0.94683300  0.28198700  0.94690600  1
  O  O43  1  0.55316700  0.78198700  0.05309400  1
  O  O44  1  0.08930200  0.66200700  0.81449900  1
  O  O45  1  0.41069800  0.16200700  0.18550100  1
  O  O46  1  0.91069800  0.33799300  0.18550100  1
  O  O47  1  0.58930200  0.83799300  0.81449900  1
  O  O48  1  0.05221000  0.50534100  0.68556600  1
  O  O49  1  0.44779000  0.00534100  0.31443400  1
  O  O50  1  0.94779000  0.49465900  0.31443400  1
  O  O51  1  0.55221000  0.99465900  0.68556600  1
  O  O52  1  0.37316500  0.71341600  0.69693100  1
  O  O53  1  0.12683500  0.21341600  0.30306900  1
  O  O54  1  0.62683500  0.28658400  0.30306900  1
  O  O55  1  0.87316500  0.78658400  0.69693100  1
  O  O56  1  0.53129100  0.34170700  0.68391200  1
  O  O57  1  0.96870900  0.84170700  0.31608800  1
  O  O58  1  0.46870900  0.65829300  0.31608800  1
  O  O59  1  0.03129100  0.15829300  0.68391200  1
  O  O60  1  0.61152000  0.48799300  0.81448600  1
  O  O61  1  0.88848000  0.98799300  0.18551400  1
  O  O62  1  0.38848000  0.51200700  0.18551400  1
  O  O63  1  0.11152000  0.01200700  0.81448600  1
  O  O64  1  0.23000200  0.29297900  0.79948000  1
  O  O65  1  0.26999800  0.79297900  0.20052000  1
  O  O66  1  0.76999800  0.70702100  0.20052000  1
  O  O67  1  0.73000200  0.20702100  0.79948000  1
  O  O68  1  0.30186600  0.83881600  0.43758400  1
  O  O69  1  0.19813400  0.33881600  0.56241600  1
  O  O70  1  0.69813400  0.16118400  0.56241600  1
  O  O71  1  0.80186600  0.66118400  0.43758400  1
  O  O72  1  0.19440700  0.98162200  0.56664600  1
  O  O73  1  0.30559300  0.48162200  0.43335400  1
  O  O74  1  0.80559300  0.01837800  0.43335400  1
  O  O75  1  0.69440700  0.51837800  0.56664600  1
  O  O76  1  0.10696000  0.69627000  0.55174700  1
  O  O77  1  0.39304000  0.19627000  0.44825300  1
  O  O78  1  0.89304000  0.30373000  0.44825300  1
  O  O79  1  0.60696000  0.80373000  0.55174700  1
