# generated using pymatgen
data_NaAlAsO4F
_symmetry_space_group_name_H-M   'P 1'
_cell_length_a   6.69328400
_cell_length_b   8.61975600
_cell_length_c   7.14089443
_cell_angle_alpha   90.00000000
_cell_angle_beta   115.78643380
_cell_angle_gamma   90.00000000
_symmetry_Int_Tables_number   1
_chemical_formula_structural   NaAlAsO4F
_chemical_formula_sum   'Na4 Al4 As4 O16 F4'
_cell_volume   370.96491564
_cell_formula_units_Z   4
loop_
 _symmetry_equiv_pos_site_id
 _symmetry_equiv_pos_as_xyz
  1  'x, y, z'
loop_
 _atom_site_type_symbol
 _atom_site_label
 _atom_site_symmetry_multiplicity
 _atom_site_fract_x
 _atom_site_fract_y
 _atom_site_fract_z
 _atom_site_occupancy
  Na  Na0  1  0.50000000  0.17142200  0.25000000  1
  Na  Na1  1  0.50000000  0.82857800  0.75000000  1
  Na  Na2  1  0.00000000  0.67142200  0.25000000  1
  Na  Na3  1  0.00000000  0.32857800  0.75000000  1
  Al  Al4  1  0.00000000  0.00000000  0.00000000  1
  Al  Al5  1  0.00000000  0.00000000  0.50000000  1
  Al  Al6  1  0.50000000  0.50000000  0.00000000  1
  Al  Al7  1  0.50000000  0.50000000  0.50000000  1
  As  As8  1  0.50000000  0.18648400  0.75000000  1
  As  As9  1  0.50000000  0.81351600  0.25000000  1
  As  As10  1  0.00000000  0.68648400  0.75000000  1
  As  As11  1  0.00000000  0.31351600  0.25000000  1
  O  O12  1  0.60147750  0.29783650  0.60992900  1
  O  O13  1  0.39852250  0.29783650  0.89007100  1
  O  O14  1  0.39852250  0.70216350  0.39007100  1
  O  O15  1  0.60147750  0.70216350  0.10992900  1
  O  O16  1  0.70025200  0.93708700  0.41420900  1
  O  O17  1  0.29974800  0.06291300  0.58579100  1
  O  O18  1  0.29974800  0.93708700  0.08579100  1
  O  O19  1  0.70025200  0.06291300  0.91420900  1
  O  O20  1  0.10147750  0.79783650  0.60992900  1
  O  O21  1  0.89852250  0.79783650  0.89007100  1
  O  O22  1  0.89852250  0.20216350  0.39007100  1
  O  O23  1  0.10147750  0.20216350  0.10992900  1
  O  O24  1  0.20025200  0.43708700  0.41420900  1
  O  O25  1  0.79974800  0.56291300  0.58579100  1
  O  O26  1  0.79974800  0.43708700  0.08579100  1
  O  O27  1  0.20025200  0.56291300  0.91420900  1
  F  F28  1  0.50000000  0.43483800  0.25000000  1
  F  F29  1  0.50000000  0.56516200  0.75000000  1
  F  F30  1  0.00000000  0.93483800  0.25000000  1
  F  F31  1  0.00000000  0.06516200  0.75000000  1
