# generated using pymatgen
data_Li3AlF6
_symmetry_space_group_name_H-M   'P 1'
_cell_length_a   14.45676400
_cell_length_b   8.53065600
_cell_length_c   10.04853126
_cell_angle_alpha   90.00000000
_cell_angle_beta   94.10628647
_cell_angle_gamma   90.00000000
_symmetry_Int_Tables_number   1
_chemical_formula_structural   Li3AlF6
_chemical_formula_sum   'Li36 Al12 F72'
_cell_volume   1236.06073824
_cell_formula_units_Z   12
loop_
 _symmetry_equiv_pos_site_id
 _symmetry_equiv_pos_as_xyz
  1  'x, y, z'
loop_
 _atom_site_type_symbol
 _atom_site_label
 _atom_site_symmetry_multiplicity
 _atom_site_fract_x
 _atom_site_fract_y
 _atom_site_fract_z
 _atom_site_occupancy
  Li  Li0  1  0.50000000  0.69170300  0.75000000  1
  Li  Li1  1  0.50000000  0.30829700  0.25000000  1
  Li  Li2  1  0.20220100  0.85914400  0.43158200  1
  Li  Li3  1  0.79779900  0.85914400  0.06841800  1
  Li  Li4  1  0.79779900  0.14085600  0.56841800  1
  Li  Li5  1  0.20220100  0.14085600  0.93158200  1
  Li  Li6  1  0.66686050  0.21614850  0.05443100  1
  Li  Li7  1  0.33313950  0.21614850  0.44556900  1
  Li  Li8  1  0.33313950  0.78385150  0.94556900  1
  Li  Li9  1  0.66686050  0.78385150  0.55443100  1
  Li  Li10  1  0.47478850  0.85089550  0.45587800  1
  Li  Li11  1  0.52521150  0.85089550  0.04412200  1
  Li  Li12  1  0.52521150  0.14910450  0.54412200  1
  Li  Li13  1  0.47478850  0.14910450  0.95587800  1
  Li  Li14  1  0.36136700  0.35640500  0.73217900  1
  Li  Li15  1  0.63863300  0.35640500  0.76782100  1
  Li  Li16  1  0.63863300  0.64359500  0.26782100  1
  Li  Li17  1  0.36136700  0.64359500  0.23217900  1
  Li  Li18  1  0.00000000  0.19170300  0.75000000  1
  Li  Li19  1  0.00000000  0.80829700  0.25000000  1
  Li  Li20  1  0.70220100  0.35914400  0.43158200  1
  Li  Li21  1  0.29779900  0.35914400  0.06841800  1
  Li  Li22  1  0.29779900  0.64085600  0.56841800  1
  Li  Li23  1  0.70220100  0.64085600  0.93158200  1
  Li  Li24  1  0.16686050  0.71614850  0.05443100  1
  Li  Li25  1  0.83313950  0.71614850  0.44556900  1
  Li  Li26  1  0.83313950  0.28385150  0.94556900  1
  Li  Li27  1  0.16686050  0.28385150  0.55443100  1
  Li  Li28  1  0.97478850  0.35089550  0.45587800  1
  Li  Li29  1  0.02521150  0.35089550  0.04412200  1
  Li  Li30  1  0.02521150  0.64910450  0.54412200  1
  Li  Li31  1  0.97478850  0.64910450  0.95587800  1
  Li  Li32  1  0.86136700  0.85640500  0.73217900  1
  Li  Li33  1  0.13863300  0.85640500  0.76782100  1
  Li  Li34  1  0.13863300  0.14359500  0.26782100  1
  Li  Li35  1  0.86136700  0.14359500  0.23217900  1
  Al  Al36  1  0.00000000  0.00000000  0.00000000  1
  Al  Al37  1  0.66362700  0.99795000  0.79948600  1
  Al  Al38  1  0.33637300  0.99795000  0.70051400  1
  Al  Al39  1  0.33637300  0.00205000  0.20051400  1
  Al  Al40  1  0.66362700  0.00205000  0.29948600  1
  Al  Al41  1  0.00000000  0.00000000  0.50000000  1
  Al  Al42  1  0.50000000  0.50000000  0.00000000  1
  Al  Al43  1  0.16362700  0.49795000  0.79948600  1
  Al  Al44  1  0.83637300  0.49795000  0.70051400  1
  Al  Al45  1  0.83637300  0.50205000  0.20051400  1
  Al  Al46  1  0.16362700  0.50205000  0.29948600  1
  Al  Al47  1  0.50000000  0.50000000  0.50000000  1
  F  F48  1  0.59901400  0.15542900  0.20585000  1
  F  F49  1  0.93188450  0.99522950  0.34188600  1
  F  F50  1  0.06811550  0.99522950  0.15811400  1
  F  F51  1  0.06811550  0.00477050  0.65811400  1
  F  F52  1  0.93188450  0.00477050  0.84188600  1
  F  F53  1  0.73336950  0.85177250  0.89594300  1
  F  F54  1  0.40098600  0.84457100  0.79415000  1
  F  F55  1  0.59901400  0.84457100  0.70585000  1
  F  F56  1  0.42862900  0.65834800  0.56154800  1
  F  F57  1  0.40098600  0.15542900  0.29415000  1
  F  F58  1  0.27163350  0.84538950  0.10933300  1
  F  F59  1  0.72836650  0.84538950  0.39066700  1
  F  F60  1  0.72836650  0.15461050  0.89066700  1
  F  F61  1  0.27163350  0.15461050  0.60933300  1
  F  F62  1  0.39516000  0.84809300  0.29990500  1
  F  F63  1  0.60484000  0.84809300  0.20009500  1
  F  F64  1  0.60484000  0.15190700  0.70009500  1
  F  F65  1  0.39516000  0.15190700  0.79990500  1
  F  F66  1  0.75213450  0.01672450  0.17451500  1
  F  F67  1  0.24786550  0.01672450  0.32548500  1
  F  F68  1  0.24786550  0.98327550  0.82548500  1
  F  F69  1  0.26663050  0.14822750  0.10405700  1
  F  F70  1  0.42489400  0.65466900  0.06175000  1
  F  F71  1  0.57510600  0.65466900  0.43825000  1
  F  F72  1  0.57510600  0.34533100  0.93825000  1
  F  F73  1  0.42489400  0.34533100  0.56175000  1
  F  F74  1  0.57137100  0.65834800  0.93845200  1
  F  F75  1  0.75213450  0.98327550  0.67451500  1
  F  F76  1  0.42862900  0.34165200  0.06154800  1
  F  F77  1  0.57137100  0.34165200  0.43845200  1
  F  F78  1  0.57926000  0.99287300  0.42757200  1
  F  F79  1  0.42074000  0.99287300  0.07242800  1
  F  F80  1  0.42074000  0.00712700  0.57242800  1
  F  F81  1  0.57926000  0.00712700  0.92757200  1
  F  F82  1  0.73336950  0.14822750  0.39594300  1
  F  F83  1  0.26663050  0.85177250  0.60405700  1
  F  F84  1  0.09901400  0.65542900  0.20585000  1
  F  F85  1  0.43188450  0.49522950  0.34188600  1
  F  F86  1  0.56811550  0.49522950  0.15811400  1
  F  F87  1  0.56811550  0.50477050  0.65811400  1
  F  F88  1  0.43188450  0.50477050  0.84188600  1
  F  F89  1  0.23336950  0.35177250  0.89594300  1
  F  F90  1  0.90098600  0.34457100  0.79415000  1
  F  F91  1  0.09901400  0.34457100  0.70585000  1
  F  F92  1  0.92862900  0.15834800  0.56154800  1
  F  F93  1  0.90098600  0.65542900  0.29415000  1
  F  F94  1  0.77163350  0.34538950  0.10933300  1
  F  F95  1  0.22836650  0.34538950  0.39066700  1
  F  F96  1  0.22836650  0.65461050  0.89066700  1
  F  F97  1  0.77163350  0.65461050  0.60933300  1
  F  F98  1  0.89516000  0.34809300  0.29990500  1
  F  F99  1  0.10484000  0.34809300  0.20009500  1
  F  F100  1  0.10484000  0.65190700  0.70009500  1
  F  F101  1  0.89516000  0.65190700  0.79990500  1
  F  F102  1  0.25213450  0.51672450  0.17451500  1
  F  F103  1  0.74786550  0.51672450  0.32548500  1
  F  F104  1  0.74786550  0.48327550  0.82548500  1
  F  F105  1  0.76663050  0.64822750  0.10405700  1
  F  F106  1  0.92489400  0.15466900  0.06175000  1
  F  F107  1  0.07510600  0.15466900  0.43825000  1
  F  F108  1  0.07510600  0.84533100  0.93825000  1
  F  F109  1  0.92489400  0.84533100  0.56175000  1
  F  F110  1  0.07137100  0.15834800  0.93845200  1
  F  F111  1  0.25213450  0.48327550  0.67451500  1
  F  F112  1  0.92862900  0.84165200  0.06154800  1
  F  F113  1  0.07137100  0.84165200  0.43845200  1
  F  F114  1  0.07926000  0.49287300  0.42757200  1
  F  F115  1  0.92074000  0.49287300  0.07242800  1
  F  F116  1  0.92074000  0.50712700  0.57242800  1
  F  F117  1  0.07926000  0.50712700  0.92757200  1
  F  F118  1  0.23336950  0.64822750  0.39594300  1
  F  F119  1  0.76663050  0.35177250  0.60405700  1
