# generated using pymatgen
data_Hg2GeO4
_symmetry_space_group_name_H-M   'P 1'
_cell_length_a   6.73869400
_cell_length_b   11.25599800
_cell_length_c   11.66157600
_cell_angle_alpha   90.00000000
_cell_angle_beta   90.00000000
_cell_angle_gamma   90.00000000
_symmetry_Int_Tables_number   1
_chemical_formula_structural   Hg2GeO4
_chemical_formula_sum   'Hg16 Ge8 O32'
_cell_volume   884.53900808
_cell_formula_units_Z   8
loop_
 _symmetry_equiv_pos_site_id
 _symmetry_equiv_pos_as_xyz
  1  'x, y, z'
loop_
 _atom_site_type_symbol
 _atom_site_label
 _atom_site_symmetry_multiplicity
 _atom_site_fract_x
 _atom_site_fract_y
 _atom_site_fract_z
 _atom_site_occupancy
  Hg  Hg0  1  0.50000000  0.18206200  0.00000000  1
  Hg  Hg1  1  0.50000000  0.81793800  0.00000000  1
  Hg  Hg2  1  0.75000000  0.06793800  0.25000000  1
  Hg  Hg3  1  0.75000000  0.43206200  0.25000000  1
  Hg  Hg4  1  0.50000000  0.68206200  0.50000000  1
  Hg  Hg5  1  0.50000000  0.31793800  0.50000000  1
  Hg  Hg6  1  0.75000000  0.56793800  0.75000000  1
  Hg  Hg7  1  0.75000000  0.93206200  0.75000000  1
  Hg  Hg8  1  0.00000000  0.18206200  0.50000000  1
  Hg  Hg9  1  0.00000000  0.81793800  0.50000000  1
  Hg  Hg10  1  0.25000000  0.06793800  0.75000000  1
  Hg  Hg11  1  0.25000000  0.43206200  0.75000000  1
  Hg  Hg12  1  0.00000000  0.68206200  0.00000000  1
  Hg  Hg13  1  0.00000000  0.31793800  0.00000000  1
  Hg  Hg14  1  0.25000000  0.56793800  0.25000000  1
  Hg  Hg15  1  0.25000000  0.93206200  0.25000000  1
  Ge  Ge16  1  0.00000000  0.00000000  0.00000000  1
  Ge  Ge17  1  0.75000000  0.75000000  0.25000000  1
  Ge  Ge18  1  0.00000000  0.50000000  0.50000000  1
  Ge  Ge19  1  0.75000000  0.25000000  0.75000000  1
  Ge  Ge20  1  0.50000000  0.00000000  0.50000000  1
  Ge  Ge21  1  0.25000000  0.75000000  0.75000000  1
  Ge  Ge22  1  0.50000000  0.50000000  0.00000000  1
  Ge  Ge23  1  0.25000000  0.25000000  0.25000000  1
  O  O24  1  0.85407250  0.39946250  0.41697100  1
  O  O25  1  0.85407250  0.10053750  0.08302900  1
  O  O26  1  0.64592750  0.39946250  0.08302900  1
  O  O27  1  0.64592750  0.10053750  0.41697100  1
  O  O28  1  0.89592750  0.85053750  0.33302900  1
  O  O29  1  0.39592750  0.14946250  0.16697100  1
  O  O30  1  0.10407250  0.14946250  0.33302900  1
  O  O31  1  0.60407250  0.85053750  0.16697100  1
  O  O32  1  0.85407250  0.89946250  0.91697100  1
  O  O33  1  0.85407250  0.60053750  0.58302900  1
  O  O34  1  0.64592750  0.89946250  0.58302900  1
  O  O35  1  0.64592750  0.60053750  0.91697100  1
  O  O36  1  0.89592750  0.35053750  0.83302900  1
  O  O37  1  0.39592750  0.64946250  0.66697100  1
  O  O38  1  0.10407250  0.64946250  0.83302900  1
  O  O39  1  0.60407250  0.35053750  0.66697100  1
  O  O40  1  0.35407250  0.39946250  0.91697100  1
  O  O41  1  0.35407250  0.10053750  0.58302900  1
  O  O42  1  0.14592750  0.39946250  0.58302900  1
  O  O43  1  0.14592750  0.10053750  0.91697100  1
  O  O44  1  0.39592750  0.85053750  0.83302900  1
  O  O45  1  0.89592750  0.14946250  0.66697100  1
  O  O46  1  0.60407250  0.14946250  0.83302900  1
  O  O47  1  0.10407250  0.85053750  0.66697100  1
  O  O48  1  0.35407250  0.89946250  0.41697100  1
  O  O49  1  0.35407250  0.60053750  0.08302900  1
  O  O50  1  0.14592750  0.89946250  0.08302900  1
  O  O51  1  0.14592750  0.60053750  0.41697100  1
  O  O52  1  0.39592750  0.35053750  0.33302900  1
  O  O53  1  0.89592750  0.64946250  0.16697100  1
  O  O54  1  0.60407250  0.64946250  0.33302900  1
  O  O55  1  0.10407250  0.35053750  0.16697100  1
