# generated using pymatgen
data_Rb2Cu2SnS4
_symmetry_space_group_name_H-M   'P 1'
_cell_length_a   5.48069000
_cell_length_b   11.75516800
_cell_length_c   13.85798200
_cell_angle_alpha   90.00000000
_cell_angle_beta   90.00000000
_cell_angle_gamma   90.00000000
_symmetry_Int_Tables_number   1
_chemical_formula_structural   Rb2Cu2SnS4
_chemical_formula_sum   'Rb8 Cu8 Sn4 S16'
_cell_volume   892.82033090
_cell_formula_units_Z   4
loop_
 _symmetry_equiv_pos_site_id
 _symmetry_equiv_pos_as_xyz
  1  'x, y, z'
loop_
 _atom_site_type_symbol
 _atom_site_label
 _atom_site_symmetry_multiplicity
 _atom_site_fract_x
 _atom_site_fract_y
 _atom_site_fract_z
 _atom_site_occupancy
  Rb  Rb0  1  0.77164650  0.62433250  0.00000000  1
  Rb  Rb1  1  0.27164650  0.87566750  0.00000000  1
  Rb  Rb2  1  0.72835350  0.12433250  0.00000000  1
  Rb  Rb3  1  0.22835350  0.37566750  0.00000000  1
  Rb  Rb4  1  0.27164650  0.12433250  0.50000000  1
  Rb  Rb5  1  0.77164650  0.37566750  0.50000000  1
  Rb  Rb6  1  0.22835350  0.62433250  0.50000000  1
  Rb  Rb7  1  0.72835350  0.87566750  0.50000000  1
  Cu  Cu8  1  0.00000000  0.27454000  0.75000000  1
  Cu  Cu9  1  0.00000000  0.72546000  0.75000000  1
  Cu  Cu10  1  0.00000000  0.72546000  0.25000000  1
  Cu  Cu11  1  0.00000000  0.27454000  0.25000000  1
  Cu  Cu12  1  0.50000000  0.77454000  0.25000000  1
  Cu  Cu13  1  0.50000000  0.22546000  0.25000000  1
  Cu  Cu14  1  0.50000000  0.22546000  0.75000000  1
  Cu  Cu15  1  0.50000000  0.77454000  0.75000000  1
  Sn  Sn16  1  0.50000000  0.50000000  0.25000000  1
  Sn  Sn17  1  0.50000000  0.50000000  0.75000000  1
  Sn  Sn18  1  0.00000000  0.00000000  0.75000000  1
  Sn  Sn19  1  0.00000000  0.00000000  0.25000000  1
  S  S20  1  0.27037500  0.36781500  0.35117800  1
  S  S21  1  0.27037500  0.63218500  0.14882200  1
  S  S22  1  0.72962500  0.36781500  0.14882200  1
  S  S23  1  0.72962500  0.63218500  0.35117800  1
  S  S24  1  0.72962500  0.63218500  0.64882200  1
  S  S25  1  0.72962500  0.36781500  0.85117800  1
  S  S26  1  0.27037500  0.36781500  0.64882200  1
  S  S27  1  0.27037500  0.63218500  0.85117800  1
  S  S28  1  0.77037500  0.86781500  0.85117800  1
  S  S29  1  0.77037500  0.13218500  0.64882200  1
  S  S30  1  0.22962500  0.86781500  0.64882200  1
  S  S31  1  0.22962500  0.13218500  0.85117800  1
  S  S32  1  0.22962500  0.13218500  0.14882200  1
  S  S33  1  0.22962500  0.86781500  0.35117800  1
  S  S34  1  0.77037500  0.86781500  0.14882200  1
  S  S35  1  0.77037500  0.13218500  0.35117800  1
