# generated using pymatgen
data_SrLuCuS3
_symmetry_space_group_name_H-M   'P 1'
_cell_length_a   3.89972400
_cell_length_b   13.02409400
_cell_length_c   10.03607200
_cell_angle_alpha   90.00000000
_cell_angle_beta   90.00000000
_cell_angle_gamma   90.00000000
_symmetry_Int_Tables_number   1
_chemical_formula_structural   SrLuCuS3
_chemical_formula_sum   'Sr4 Lu4 Cu4 S12'
_cell_volume   509.73582980
_cell_formula_units_Z   4
loop_
 _symmetry_equiv_pos_site_id
 _symmetry_equiv_pos_as_xyz
  1  'x, y, z'
loop_
 _atom_site_type_symbol
 _atom_site_label
 _atom_site_symmetry_multiplicity
 _atom_site_fract_x
 _atom_site_fract_y
 _atom_site_fract_z
 _atom_site_occupancy
  Sr  Sr0  1  0.00000000  0.25110300  0.25000000  1
  Sr  Sr1  1  0.50000000  0.24889700  0.75000000  1
  Sr  Sr2  1  0.50000000  0.75110300  0.25000000  1
  Sr  Sr3  1  0.00000000  0.74889700  0.75000000  1
  Lu  Lu4  1  0.00000000  0.00000000  0.50000000  1
  Lu  Lu5  1  0.00000000  0.00000000  0.00000000  1
  Lu  Lu6  1  0.50000000  0.50000000  0.50000000  1
  Lu  Lu7  1  0.50000000  0.50000000  0.00000000  1
  Cu  Cu8  1  0.00000000  0.47204000  0.75000000  1
  Cu  Cu9  1  0.50000000  0.02796000  0.25000000  1
  Cu  Cu10  1  0.50000000  0.97204000  0.75000000  1
  Cu  Cu11  1  0.00000000  0.52796000  0.25000000  1
  S  S12  1  0.50000000  0.42466900  0.25000000  1
  S  S13  1  0.00000000  0.07533100  0.75000000  1
  S  S14  1  0.00000000  0.36523900  0.56441900  1
  S  S15  1  0.00000000  0.36523900  0.93558100  1
  S  S16  1  0.50000000  0.13476100  0.06441900  1
  S  S17  1  0.50000000  0.13476100  0.43558100  1
  S  S18  1  0.00000000  0.92466900  0.25000000  1
  S  S19  1  0.50000000  0.57533100  0.75000000  1
  S  S20  1  0.50000000  0.86523900  0.56441900  1
  S  S21  1  0.50000000  0.86523900  0.93558100  1
  S  S22  1  0.00000000  0.63476100  0.06441900  1
  S  S23  1  0.00000000  0.63476100  0.43558100  1
