# generated using pymatgen
data_Sr3Sc2Cu2S2O5
_symmetry_space_group_name_H-M   'P 1'
_cell_length_a   4.09630200
_cell_length_b   4.09630200
_cell_length_c   26.15836200
_cell_angle_alpha   90.00000000
_cell_angle_beta   90.00000000
_cell_angle_gamma   90.00000000
_symmetry_Int_Tables_number   1
_chemical_formula_structural   Sr3Sc2Cu2S2O5
_chemical_formula_sum   'Sr6 Sc4 Cu4 S4 O10'
_cell_volume   438.92920723
_cell_formula_units_Z   2
loop_
 _symmetry_equiv_pos_site_id
 _symmetry_equiv_pos_as_xyz
  1  'x, y, z'
loop_
 _atom_site_type_symbol
 _atom_site_label
 _atom_site_symmetry_multiplicity
 _atom_site_fract_x
 _atom_site_fract_y
 _atom_site_fract_z
 _atom_site_occupancy
  Sr  Sr0  1  0.50000000  0.50000000  0.00000000  1
  Sr  Sr1  1  0.50000000  0.50000000  0.14488100  1
  Sr  Sr2  1  0.00000000  0.00000000  0.35511900  1
  Sr  Sr3  1  0.00000000  0.00000000  0.50000000  1
  Sr  Sr4  1  0.00000000  0.00000000  0.64488100  1
  Sr  Sr5  1  0.50000000  0.50000000  0.85511900  1
  Sc  Sc6  1  0.50000000  0.50000000  0.42370900  1
  Sc  Sc7  1  0.00000000  0.00000000  0.07629100  1
  Sc  Sc8  1  0.00000000  0.00000000  0.92370900  1
  Sc  Sc9  1  0.50000000  0.50000000  0.57629100  1
  Cu  Cu10  1  0.00000000  0.50000000  0.25000000  1
  Cu  Cu11  1  0.50000000  0.00000000  0.25000000  1
  Cu  Cu12  1  0.50000000  0.00000000  0.75000000  1
  Cu  Cu13  1  0.00000000  0.50000000  0.75000000  1
  S  S14  1  0.50000000  0.50000000  0.30081900  1
  S  S15  1  0.00000000  0.00000000  0.19918100  1
  S  S16  1  0.00000000  0.00000000  0.80081900  1
  S  S17  1  0.50000000  0.50000000  0.69918100  1
  O  O18  1  0.00000000  0.00000000  0.00000000  1
  O  O19  1  0.00000000  0.50000000  0.41328100  1
  O  O20  1  0.50000000  0.00000000  0.41328100  1
  O  O21  1  0.00000000  0.50000000  0.08671900  1
  O  O22  1  0.50000000  0.00000000  0.08671900  1
  O  O23  1  0.50000000  0.50000000  0.50000000  1
  O  O24  1  0.50000000  0.00000000  0.91328100  1
  O  O25  1  0.00000000  0.50000000  0.91328100  1
  O  O26  1  0.50000000  0.00000000  0.58671900  1
  O  O27  1  0.00000000  0.50000000  0.58671900  1
