# generated using pymatgen
data_Tl2Cu2SnS4
_symmetry_space_group_name_H-M   'P 1'
_cell_length_a   5.31857200
_cell_length_b   11.64525400
_cell_length_c   13.69673200
_cell_angle_alpha   90.00000000
_cell_angle_beta   90.00000000
_cell_angle_gamma   90.00000000
_symmetry_Int_Tables_number   1
_chemical_formula_structural   Tl2Cu2SnS4
_chemical_formula_sum   'Tl8 Cu8 Sn4 S16'
_cell_volume   848.32246220
_cell_formula_units_Z   4
loop_
 _symmetry_equiv_pos_site_id
 _symmetry_equiv_pos_as_xyz
  1  'x, y, z'
loop_
 _atom_site_type_symbol
 _atom_site_label
 _atom_site_symmetry_multiplicity
 _atom_site_fract_x
 _atom_site_fract_y
 _atom_site_fract_z
 _atom_site_occupancy
  Tl  Tl0  1  0.73673900  0.37958100  0.00000000  1
  Tl  Tl1  1  0.23673900  0.12041900  0.00000000  1
  Tl  Tl2  1  0.26326100  0.62041900  0.00000000  1
  Tl  Tl3  1  0.76326100  0.87958100  0.00000000  1
  Tl  Tl4  1  0.23673900  0.87958100  0.50000000  1
  Tl  Tl5  1  0.73673900  0.62041900  0.50000000  1
  Tl  Tl6  1  0.76326100  0.12041900  0.50000000  1
  Tl  Tl7  1  0.26326100  0.37958100  0.50000000  1
  Cu  Cu8  1  0.50000000  0.72620700  0.25000000  1
  Cu  Cu9  1  0.50000000  0.72620700  0.75000000  1
  Cu  Cu10  1  0.50000000  0.27379300  0.75000000  1
  Cu  Cu11  1  0.50000000  0.27379300  0.25000000  1
  Cu  Cu12  1  0.00000000  0.22620700  0.75000000  1
  Cu  Cu13  1  0.00000000  0.22620700  0.25000000  1
  Cu  Cu14  1  0.00000000  0.77379300  0.25000000  1
  Cu  Cu15  1  0.00000000  0.77379300  0.75000000  1
  Sn  Sn16  1  0.00000000  0.50000000  0.25000000  1
  Sn  Sn17  1  0.00000000  0.50000000  0.75000000  1
  Sn  Sn18  1  0.50000000  0.00000000  0.75000000  1
  Sn  Sn19  1  0.50000000  0.00000000  0.25000000  1
  S  S20  1  0.76771550  0.63146050  0.85524150  1
  S  S21  1  0.76771550  0.36853950  0.64475850  1
  S  S22  1  0.23228450  0.63146050  0.64475850  1
  S  S23  1  0.23228450  0.36853950  0.85524150  1
  S  S24  1  0.76771550  0.36853950  0.35524150  1
  S  S25  1  0.23228450  0.63146050  0.35524150  1
  S  S26  1  0.23228450  0.36853950  0.14475850  1
  S  S27  1  0.76771550  0.63146050  0.14475850  1
  S  S28  1  0.26771550  0.13146050  0.35524150  1
  S  S29  1  0.26771550  0.86853950  0.14475850  1
  S  S30  1  0.73228450  0.13146050  0.14475850  1
  S  S31  1  0.73228450  0.86853950  0.35524150  1
  S  S32  1  0.26771550  0.86853950  0.85524150  1
  S  S33  1  0.73228450  0.13146050  0.85524150  1
  S  S34  1  0.73228450  0.86853950  0.64475850  1
  S  S35  1  0.26771550  0.13146050  0.64475850  1
