# generated using pymatgen
data_MgSn(BO3)2
_symmetry_space_group_name_H-M   'P 1'
_cell_length_a   4.76885717
_cell_length_b   4.76885717
_cell_length_c   15.16743770
_cell_angle_alpha   90.00000000
_cell_angle_beta   90.00000000
_cell_angle_gamma   120.00000000
_symmetry_Int_Tables_number   1
_chemical_formula_structural   MgSn(BO3)2
_chemical_formula_sum   'Mg3 Sn3 B6 O18'
_cell_volume   298.72494010
_cell_formula_units_Z   3
loop_
 _symmetry_equiv_pos_site_id
 _symmetry_equiv_pos_as_xyz
  1  'x, y, z'
loop_
 _atom_site_type_symbol
 _atom_site_label
 _atom_site_symmetry_multiplicity
 _atom_site_fract_x
 _atom_site_fract_y
 _atom_site_fract_z
 _atom_site_occupancy
  Mg  Mg0  1  0.00000000  0.00000000  0.00000000  1
  Mg  Mg1  1  0.66666667  0.33333333  0.33333333  1
  Mg  Mg2  1  0.33333333  0.66666667  0.66666667  1
  Sn  Sn3  1  0.33333333  0.66666667  0.16666667  1
  Sn  Sn4  1  1.00000000  0.00000000  0.50000000  1
  Sn  Sn5  1  0.66666667  0.33333333  0.83333333  1
  B  B6  1  0.66666667  0.33333333  0.08572933  1
  B  B7  1  0.00000000  0.00000000  0.24760400  1
  B  B8  1  0.33333333  0.66666667  0.41906267  1
  B  B9  1  0.66666667  0.33333333  0.58093733  1
  B  B10  1  0.00000000  0.00000000  0.75239600  1
  B  B11  1  0.33333333  0.66666667  0.91427067  1
  O  O12  1  0.66499900  0.62328100  0.08493300  1
  O  O13  1  0.95828200  0.33500100  0.08493300  1
  O  O14  1  0.28994767  0.29161533  0.24840033  1
  O  O15  1  0.00166767  0.71005233  0.24840033  1
  O  O16  1  0.70838467  0.99833233  0.24840033  1
  O  O17  1  0.37671900  0.04171800  0.08493300  1
  O  O18  1  0.33166567  0.95661433  0.41826633  1
  O  O19  1  0.62494867  0.66833433  0.41826633  1
  O  O20  1  0.95661433  0.62494867  0.58173367  1
  O  O21  1  0.66833433  0.04338567  0.58173367  1
  O  O22  1  0.37505133  0.33166567  0.58173367  1
  O  O23  1  0.04338567  0.37505133  0.41826633  1
  O  O24  1  0.99833233  0.28994767  0.75159967  1
  O  O25  1  0.29161533  0.00166767  0.75159967  1
  O  O26  1  0.62328100  0.95828200  0.91506700  1
  O  O27  1  0.33500100  0.37671900  0.91506700  1
  O  O28  1  0.04171800  0.66499900  0.91506700  1
  O  O29  1  0.71005233  0.70838467  0.75159967  1
