# generated using pymatgen
data_Mg3V2O8
_symmetry_space_group_name_H-M   'P 1'
_cell_length_a   6.12633400
_cell_length_b   11.61721800
_cell_length_c   8.42351400
_cell_angle_alpha   90.00000000
_cell_angle_beta   90.00000000
_cell_angle_gamma   90.00000000
_symmetry_Int_Tables_number   1
_chemical_formula_structural   Mg3V2O8
_chemical_formula_sum   'Mg12 V8 O32'
_cell_volume   599.50955790
_cell_formula_units_Z   4
loop_
 _symmetry_equiv_pos_site_id
 _symmetry_equiv_pos_as_xyz
  1  'x, y, z'
loop_
 _atom_site_type_symbol
 _atom_site_label
 _atom_site_symmetry_multiplicity
 _atom_site_fract_x
 _atom_site_fract_y
 _atom_site_fract_z
 _atom_site_occupancy
  Mg  Mg0  1  0.50000000  0.50000000  0.50000000  1
  Mg  Mg1  1  0.00000000  0.50000000  0.00000000  1
  Mg  Mg2  1  0.25000000  0.63576900  0.25000000  1
  Mg  Mg3  1  0.75000000  0.86423100  0.75000000  1
  Mg  Mg4  1  0.75000000  0.63576900  0.25000000  1
  Mg  Mg5  1  0.25000000  0.86423100  0.75000000  1
  Mg  Mg6  1  0.00000000  0.00000000  0.50000000  1
  Mg  Mg7  1  0.50000000  0.00000000  0.00000000  1
  Mg  Mg8  1  0.75000000  0.13576900  0.25000000  1
  Mg  Mg9  1  0.25000000  0.36423100  0.75000000  1
  Mg  Mg10  1  0.25000000  0.13576900  0.25000000  1
  Mg  Mg11  1  0.75000000  0.36423100  0.75000000  1
  V  V12  1  0.50000000  0.88000900  0.38035300  1
  V  V13  1  0.00000000  0.61999100  0.61964700  1
  V  V14  1  0.50000000  0.61999100  0.88035300  1
  V  V15  1  0.00000000  0.88000900  0.11964700  1
  V  V16  1  0.00000000  0.38000900  0.38035300  1
  V  V17  1  0.50000000  0.11999100  0.61964700  1
  V  V18  1  0.00000000  0.11999100  0.88035300  1
  V  V19  1  0.50000000  0.38000900  0.11964700  1
  O  O20  1  0.22918200  0.88296400  0.99997700  1
  O  O21  1  0.72918200  0.61703600  0.00002300  1
  O  O22  1  0.77081800  0.61703600  0.49997700  1
  O  O23  1  0.27081800  0.88296400  0.50002300  1
  O  O24  1  0.27081800  0.61703600  0.00002300  1
  O  O25  1  0.77081800  0.88296400  0.99997700  1
  O  O26  1  0.72918200  0.88296400  0.50002300  1
  O  O27  1  0.22918200  0.61703600  0.49997700  1
  O  O28  1  0.00000000  0.50268900  0.24492600  1
  O  O29  1  0.50000000  0.99731100  0.75507400  1
  O  O30  1  0.50000000  0.75090200  0.27467900  1
  O  O31  1  0.00000000  0.74909800  0.72532100  1
  O  O32  1  0.50000000  0.74909800  0.77467900  1
  O  O33  1  0.00000000  0.75090200  0.22532100  1
  O  O34  1  0.50000000  0.50268900  0.25507400  1
  O  O35  1  0.00000000  0.99731100  0.74492600  1
  O  O36  1  0.72918200  0.38296400  0.99997700  1
  O  O37  1  0.22918200  0.11703600  0.00002300  1
  O  O38  1  0.27081800  0.11703600  0.49997700  1
  O  O39  1  0.77081800  0.38296400  0.50002300  1
  O  O40  1  0.77081800  0.11703600  0.00002300  1
  O  O41  1  0.27081800  0.38296400  0.99997700  1
  O  O42  1  0.22918200  0.38296400  0.50002300  1
  O  O43  1  0.72918200  0.11703600  0.49997700  1
  O  O44  1  0.50000000  0.00268900  0.24492600  1
  O  O45  1  0.00000000  0.49731100  0.75507400  1
  O  O46  1  0.00000000  0.25090200  0.27467900  1
  O  O47  1  0.50000000  0.24909800  0.72532100  1
  O  O48  1  0.00000000  0.24909800  0.77467900  1
  O  O49  1  0.50000000  0.25090200  0.22532100  1
  O  O50  1  0.00000000  0.00268900  0.25507400  1
  O  O51  1  0.50000000  0.49731100  0.74492600  1
