# generated using pymatgen
data_K2Hg3(GeS4)2
_symmetry_space_group_name_H-M   'P 1'
_cell_length_a   9.79554400
_cell_length_b   8.70645800
_cell_length_c   9.88572211
_cell_angle_alpha   90.00000000
_cell_angle_beta   94.72316109
_cell_angle_gamma   90.00000000
_symmetry_Int_Tables_number   1
_chemical_formula_structural   K2Hg3(GeS4)2
_chemical_formula_sum   'K4 Hg6 Ge4 S16'
_cell_volume   840.23578260
_cell_formula_units_Z   2
loop_
 _symmetry_equiv_pos_site_id
 _symmetry_equiv_pos_as_xyz
  1  'x, y, z'
loop_
 _atom_site_type_symbol
 _atom_site_label
 _atom_site_symmetry_multiplicity
 _atom_site_fract_x
 _atom_site_fract_y
 _atom_site_fract_z
 _atom_site_occupancy
  K  K0  1  0.21646000  0.85025000  0.23012300  1
  K  K1  1  0.78354000  0.85025000  0.76987700  1
  K  K2  1  0.71646000  0.35025000  0.23012300  1
  K  K3  1  0.28354000  0.35025000  0.76987700  1
  Hg  Hg4  1  0.50000000  0.97591100  0.00000000  1
  Hg  Hg5  1  0.50000000  0.65685100  0.50000000  1
  Hg  Hg6  1  0.50000000  0.13994800  0.50000000  1
  Hg  Hg7  1  0.00000000  0.47591100  0.00000000  1
  Hg  Hg8  1  0.00000000  0.15685100  0.50000000  1
  Hg  Hg9  1  0.00000000  0.63994800  0.50000000  1
  Ge  Ge10  1  0.26742700  0.83725000  0.72523300  1
  Ge  Ge11  1  0.73257300  0.83725000  0.27476700  1
  Ge  Ge12  1  0.76742700  0.33725000  0.72523300  1
  Ge  Ge13  1  0.23257300  0.33725000  0.27476700  1
  S  S14  1  0.73520000  0.97956100  0.08130800  1
  S  S15  1  0.26480000  0.97956100  0.91869200  1
  S  S16  1  0.46158200  0.69746300  0.74127200  1
  S  S17  1  0.53841800  0.69746300  0.25872800  1
  S  S18  1  0.41918000  0.18726600  0.26075800  1
  S  S19  1  0.74981200  0.97985900  0.45839400  1
  S  S20  1  0.25018800  0.97985900  0.54160600  1
  S  S21  1  0.58082000  0.18726600  0.73924200  1
  S  S22  1  0.23520000  0.47956100  0.08130800  1
  S  S23  1  0.76480000  0.47956100  0.91869200  1
  S  S24  1  0.96158200  0.19746300  0.74127200  1
  S  S25  1  0.03841800  0.19746300  0.25872800  1
  S  S26  1  0.91918000  0.68726600  0.26075800  1
  S  S27  1  0.24981200  0.47985900  0.45839400  1
  S  S28  1  0.75018800  0.47985900  0.54160600  1
  S  S29  1  0.08082000  0.68726600  0.73924200  1
