# generated using pymatgen
data_Rb2UF6
_symmetry_space_group_name_H-M   'P 1'
_cell_length_a   7.06695400
_cell_length_b   12.43486200
_cell_length_c   7.60089100
_cell_angle_alpha   90.00000000
_cell_angle_beta   90.00000000
_cell_angle_gamma   90.00000000
_symmetry_Int_Tables_number   1
_chemical_formula_structural   Rb2UF6
_chemical_formula_sum   'Rb8 U4 F24'
_cell_volume   667.94044095
_cell_formula_units_Z   4
loop_
 _symmetry_equiv_pos_site_id
 _symmetry_equiv_pos_as_xyz
  1  'x, y, z'
loop_
 _atom_site_type_symbol
 _atom_site_label
 _atom_site_symmetry_multiplicity
 _atom_site_fract_x
 _atom_site_fract_y
 _atom_site_fract_z
 _atom_site_occupancy
  Rb  Rb0  1  0.50000000  0.15782000  0.00162300  1
  Rb  Rb1  1  0.00000000  0.34218000  0.50162300  1
  Rb  Rb2  1  0.00000000  0.34218000  0.99837700  1
  Rb  Rb3  1  0.50000000  0.15782000  0.49837700  1
  Rb  Rb4  1  0.00000000  0.65782000  0.00162300  1
  Rb  Rb5  1  0.50000000  0.84218000  0.50162300  1
  Rb  Rb6  1  0.50000000  0.84218000  0.99837700  1
  Rb  Rb7  1  0.00000000  0.65782000  0.49837700  1
  U  U8  1  0.00000000  0.05172900  0.75000000  1
  U  U9  1  0.50000000  0.44827100  0.25000000  1
  U  U10  1  0.50000000  0.55172900  0.75000000  1
  U  U11  1  0.00000000  0.94827100  0.25000000  1
  F  F12  1  0.50000000  0.40049600  0.54183400  1
  F  F13  1  0.00000000  0.09950400  0.04183400  1
  F  F14  1  0.00000000  0.09950400  0.45816600  1
  F  F15  1  0.50000000  0.40049600  0.95816600  1
  F  F16  1  0.30680100  0.30133200  0.25000000  1
  F  F17  1  0.19319900  0.19866800  0.75000000  1
  F  F18  1  0.29428750  0.00861450  0.25000000  1
  F  F19  1  0.20571250  0.49138550  0.75000000  1
  F  F20  1  0.79428750  0.49138550  0.75000000  1
  F  F21  1  0.70571250  0.00861450  0.25000000  1
  F  F22  1  0.69319900  0.30133200  0.25000000  1
  F  F23  1  0.80680100  0.19866800  0.75000000  1
  F  F24  1  0.00000000  0.90049600  0.54183400  1
  F  F25  1  0.50000000  0.59950400  0.04183400  1
  F  F26  1  0.50000000  0.59950400  0.45816600  1
  F  F27  1  0.00000000  0.90049600  0.95816600  1
  F  F28  1  0.80680100  0.80133200  0.25000000  1
  F  F29  1  0.69319900  0.69866800  0.75000000  1
  F  F30  1  0.79428750  0.50861450  0.25000000  1
  F  F31  1  0.70571250  0.99138550  0.75000000  1
  F  F32  1  0.29428750  0.99138550  0.75000000  1
  F  F33  1  0.20571250  0.50861450  0.25000000  1
  F  F34  1  0.19319900  0.80133200  0.25000000  1
  F  F35  1  0.30680100  0.69866800  0.75000000  1
