# generated using pymatgen
data_Li2WO4
_symmetry_space_group_name_H-M   'P 1'
_cell_length_a   12.22861200
_cell_length_b   12.22861200
_cell_length_c   8.49523200
_cell_angle_alpha   90.00000000
_cell_angle_beta   90.00000000
_cell_angle_gamma   90.00000000
_symmetry_Int_Tables_number   1
_chemical_formula_structural   Li2WO4
_chemical_formula_sum   'Li32 W16 O64'
_cell_volume   1270.36808558
_cell_formula_units_Z   16
loop_
 _symmetry_equiv_pos_site_id
 _symmetry_equiv_pos_as_xyz
  1  'x, y, z'
loop_
 _atom_site_type_symbol
 _atom_site_label
 _atom_site_symmetry_multiplicity
 _atom_site_fract_x
 _atom_site_fract_y
 _atom_site_fract_z
 _atom_site_occupancy
  Li  Li0  1  0.86524900  0.25000000  0.37500000  1
  Li  Li1  1  0.25000000  0.86524900  0.62500000  1
  Li  Li2  1  0.75000000  0.13475100  0.62500000  1
  Li  Li3  1  0.13475100  0.75000000  0.37500000  1
  Li  Li4  1  0.13475100  0.25000000  0.37500000  1
  Li  Li5  1  0.25000000  0.13475100  0.62500000  1
  Li  Li6  1  0.75000000  0.86524900  0.62500000  1
  Li  Li7  1  0.86524900  0.75000000  0.37500000  1
  Li  Li8  1  0.36944650  0.13055350  0.25000000  1
  Li  Li9  1  0.13055350  0.13055350  0.00000000  1
  Li  Li10  1  0.13055350  0.63055350  0.75000000  1
  Li  Li11  1  0.86944650  0.13055350  0.00000000  1
  Li  Li12  1  0.13055350  0.86944650  0.00000000  1
  Li  Li13  1  0.36944650  0.86944650  0.25000000  1
  Li  Li14  1  0.86944650  0.86944650  0.00000000  1
  Li  Li15  1  0.13055350  0.36944650  0.75000000  1
  Li  Li16  1  0.36524900  0.75000000  0.87500000  1
  Li  Li17  1  0.75000000  0.36524900  0.12500000  1
  Li  Li18  1  0.25000000  0.63475100  0.12500000  1
  Li  Li19  1  0.63475100  0.25000000  0.87500000  1
  Li  Li20  1  0.63475100  0.75000000  0.87500000  1
  Li  Li21  1  0.75000000  0.63475100  0.12500000  1
  Li  Li22  1  0.25000000  0.36524900  0.12500000  1
  Li  Li23  1  0.36524900  0.25000000  0.87500000  1
  Li  Li24  1  0.86944650  0.63055350  0.75000000  1
  Li  Li25  1  0.63055350  0.63055350  0.50000000  1
  Li  Li26  1  0.63055350  0.13055350  0.25000000  1
  Li  Li27  1  0.36944650  0.63055350  0.50000000  1
  Li  Li28  1  0.63055350  0.36944650  0.50000000  1
  Li  Li29  1  0.86944650  0.36944650  0.75000000  1
  Li  Li30  1  0.36944650  0.36944650  0.50000000  1
  Li  Li31  1  0.63055350  0.86944650  0.25000000  1
  W  W32  1  0.00000000  0.13580900  0.65050400  1
  W  W33  1  0.00000000  0.86419100  0.65050400  1
  W  W34  1  0.36419100  0.00000000  0.90050400  1
  W  W35  1  0.63580900  0.00000000  0.90050400  1
  W  W36  1  0.00000000  0.63580900  0.09949600  1
  W  W37  1  0.86419100  0.00000000  0.34949600  1
  W  W38  1  0.13580900  0.00000000  0.34949600  1
  W  W39  1  0.00000000  0.36419100  0.09949600  1
  W  W40  1  0.50000000  0.63580900  0.15050400  1
  W  W41  1  0.50000000  0.36419100  0.15050400  1
  W  W42  1  0.86419100  0.50000000  0.40050400  1
  W  W43  1  0.13580900  0.50000000  0.40050400  1
  W  W44  1  0.50000000  0.13580900  0.59949600  1
  W  W45  1  0.36419100  0.50000000  0.84949600  1
  W  W46  1  0.63580900  0.50000000  0.84949600  1
  W  W47  1  0.50000000  0.86419100  0.59949600  1
  O  O48  1  0.00000000  0.12304400  0.86200300  1
  O  O49  1  0.10661300  0.00000000  0.61025200  1
  O  O50  1  0.89338700  0.00000000  0.61025200  1
  O  O51  1  0.00000000  0.60661300  0.36025200  1
  O  O52  1  0.60661300  0.00000000  0.63974800  1
  O  O53  1  0.39338700  0.00000000  0.63974800  1
  O  O54  1  0.00000000  0.89338700  0.38974800  1
  O  O55  1  0.00000000  0.39338700  0.36025200  1
  O  O56  1  0.11540000  0.27017900  0.13034400  1
  O  O57  1  0.22982100  0.11540000  0.38034400  1
  O  O58  1  0.77017900  0.88460000  0.38034400  1
  O  O59  1  0.88460000  0.72982100  0.13034400  1
  O  O60  1  0.72982100  0.88460000  0.86965600  1
  O  O61  1  0.27017900  0.11540000  0.86965600  1
  O  O62  1  0.88460000  0.77017900  0.61965600  1
  O  O63  1  0.11540000  0.22982100  0.61965600  1
  O  O64  1  0.88460000  0.22982100  0.61965600  1
  O  O65  1  0.27017900  0.88460000  0.86965600  1
  O  O66  1  0.72982100  0.11540000  0.86965600  1
  O  O67  1  0.11540000  0.77017900  0.61965600  1
  O  O68  1  0.77017900  0.11540000  0.38034400  1
  O  O69  1  0.22982100  0.88460000  0.38034400  1
  O  O70  1  0.11540000  0.72982100  0.13034400  1
  O  O71  1  0.88460000  0.27017900  0.13034400  1
  O  O72  1  0.37695600  0.00000000  0.11200300  1
  O  O73  1  0.62304400  0.00000000  0.11200300  1
  O  O74  1  0.00000000  0.62304400  0.88799700  1
  O  O75  1  0.87695600  0.00000000  0.13799700  1
  O  O76  1  0.12304400  0.00000000  0.13799700  1
  O  O77  1  0.00000000  0.37695600  0.88799700  1
  O  O78  1  0.00000000  0.10661300  0.38974800  1
  O  O79  1  0.00000000  0.87695600  0.86200300  1
  O  O80  1  0.50000000  0.62304400  0.36200300  1
  O  O81  1  0.60661300  0.50000000  0.11025200  1
  O  O82  1  0.39338700  0.50000000  0.11025200  1
  O  O83  1  0.50000000  0.10661300  0.86025200  1
  O  O84  1  0.10661300  0.50000000  0.13974800  1
  O  O85  1  0.89338700  0.50000000  0.13974800  1
  O  O86  1  0.50000000  0.39338700  0.88974800  1
  O  O87  1  0.50000000  0.89338700  0.86025200  1
  O  O88  1  0.61540000  0.77017900  0.63034400  1
  O  O89  1  0.72982100  0.61540000  0.88034400  1
  O  O90  1  0.27017900  0.38460000  0.88034400  1
  O  O91  1  0.38460000  0.22982100  0.63034400  1
  O  O92  1  0.22982100  0.38460000  0.36965600  1
  O  O93  1  0.77017900  0.61540000  0.36965600  1
  O  O94  1  0.38460000  0.27017900  0.11965600  1
  O  O95  1  0.61540000  0.72982100  0.11965600  1
  O  O96  1  0.38460000  0.72982100  0.11965600  1
  O  O97  1  0.77017900  0.38460000  0.36965600  1
  O  O98  1  0.22982100  0.61540000  0.36965600  1
  O  O99  1  0.61540000  0.27017900  0.11965600  1
  O  O100  1  0.27017900  0.61540000  0.88034400  1
  O  O101  1  0.72982100  0.38460000  0.88034400  1
  O  O102  1  0.61540000  0.22982100  0.63034400  1
  O  O103  1  0.38460000  0.77017900  0.63034400  1
  O  O104  1  0.87695600  0.50000000  0.61200300  1
  O  O105  1  0.12304400  0.50000000  0.61200300  1
  O  O106  1  0.50000000  0.12304400  0.38799700  1
  O  O107  1  0.37695600  0.50000000  0.63799700  1
  O  O108  1  0.62304400  0.50000000  0.63799700  1
  O  O109  1  0.50000000  0.87695600  0.38799700  1
  O  O110  1  0.50000000  0.60661300  0.88974800  1
  O  O111  1  0.50000000  0.37695600  0.36200300  1
