# generated using pymatgen
data_Mn5O8
_symmetry_space_group_name_H-M   'P 1'
_cell_length_a   10.46289400
_cell_length_b   5.81607200
_cell_length_c   4.94467995
_cell_angle_alpha   90.00000000
_cell_angle_beta   109.41081729
_cell_angle_gamma   90.00000000
_symmetry_Int_Tables_number   1
_chemical_formula_structural   Mn5O8
_chemical_formula_sum   'Mn10 O16'
_cell_volume   283.79525399
_cell_formula_units_Z   2
loop_
 _symmetry_equiv_pos_site_id
 _symmetry_equiv_pos_as_xyz
  1  'x, y, z'
loop_
 _atom_site_type_symbol
 _atom_site_label
 _atom_site_symmetry_multiplicity
 _atom_site_fract_x
 _atom_site_fract_y
 _atom_site_fract_z
 _atom_site_occupancy
  Mn  Mn0  1  0.27923200  0.00000000  0.34371900  1
  Mn  Mn1  1  0.22076800  0.50000000  0.65628100  1
  Mn  Mn2  1  0.00000000  0.00000000  0.50000000  1
  Mn  Mn3  1  0.00000000  0.74070900  0.00000000  1
  Mn  Mn4  1  0.00000000  0.25929100  0.00000000  1
  Mn  Mn5  1  0.77923200  0.50000000  0.34371900  1
  Mn  Mn6  1  0.72076800  0.00000000  0.65628100  1
  Mn  Mn7  1  0.50000000  0.50000000  0.50000000  1
  Mn  Mn8  1  0.50000000  0.24070900  0.00000000  1
  Mn  Mn9  1  0.50000000  0.75929100  0.00000000  1
  O  O10  1  0.11159600  0.77419200  0.39471300  1
  O  O11  1  0.38840400  0.27419200  0.60528700  1
  O  O12  1  0.11159600  0.22580800  0.39471300  1
  O  O13  1  0.38840400  0.72580800  0.60528700  1
  O  O14  1  0.39666200  0.50000000  0.09176600  1
  O  O15  1  0.10333800  0.00000000  0.90823400  1
  O  O16  1  0.39464000  0.00000000  0.06737300  1
  O  O17  1  0.10536000  0.50000000  0.93262700  1
  O  O18  1  0.61159600  0.27419200  0.39471300  1
  O  O19  1  0.88840400  0.77419200  0.60528700  1
  O  O20  1  0.61159600  0.72580800  0.39471300  1
  O  O21  1  0.88840400  0.22580800  0.60528700  1
  O  O22  1  0.89666200  0.00000000  0.09176600  1
  O  O23  1  0.60333800  0.50000000  0.90823400  1
  O  O24  1  0.89464000  0.50000000  0.06737300  1
  O  O25  1  0.60536000  0.00000000  0.93262700  1
