# generated using pymatgen
data_Na2Si3O7
_symmetry_space_group_name_H-M   'P 1'
_cell_length_a   9.00913600
_cell_length_b   4.90549800
_cell_length_c   11.70504039
_cell_angle_alpha   90.00000000
_cell_angle_beta   102.23650995
_cell_angle_gamma   90.00000000
_symmetry_Int_Tables_number   1
_chemical_formula_structural   Na2Si3O7
_chemical_formula_sum   'Na8 Si12 O28'
_cell_volume   505.54362018
_cell_formula_units_Z   4
loop_
 _symmetry_equiv_pos_site_id
 _symmetry_equiv_pos_as_xyz
  1  'x, y, z'
loop_
 _atom_site_type_symbol
 _atom_site_label
 _atom_site_symmetry_multiplicity
 _atom_site_fract_x
 _atom_site_fract_y
 _atom_site_fract_z
 _atom_site_occupancy
  Na  Na0  1  0.85374150  0.70641350  0.31806700  1
  Na  Na1  1  0.64625850  0.20641350  0.18193300  1
  Na  Na2  1  0.64625850  0.79358650  0.68193300  1
  Na  Na3  1  0.85374150  0.29358650  0.81806700  1
  Na  Na4  1  0.35374150  0.20641350  0.31806700  1
  Na  Na5  1  0.14625850  0.70641350  0.18193300  1
  Na  Na6  1  0.14625850  0.29358650  0.68193300  1
  Na  Na7  1  0.35374150  0.79358650  0.81806700  1
  Si  Si8  1  0.75000000  0.75000000  0.00000000  1
  Si  Si9  1  0.75000000  0.25000000  0.50000000  1
  Si  Si10  1  0.54315700  0.71610600  0.38481800  1
  Si  Si11  1  0.95684300  0.21610600  0.11518200  1
  Si  Si12  1  0.95684300  0.78389400  0.61518200  1
  Si  Si13  1  0.54315700  0.28389400  0.88481800  1
  Si  Si14  1  0.25000000  0.25000000  0.00000000  1
  Si  Si15  1  0.25000000  0.75000000  0.50000000  1
  Si  Si16  1  0.04315700  0.21610600  0.38481800  1
  Si  Si17  1  0.45684300  0.71610600  0.11518200  1
  Si  Si18  1  0.45684300  0.28389400  0.61518200  1
  Si  Si19  1  0.04315700  0.78389400  0.88481800  1
  O  O20  1  0.00000000  0.35229600  0.25000000  1
  O  O21  1  0.00000000  0.64770400  0.75000000  1
  O  O22  1  0.62293850  0.63268550  0.08913000  1
  O  O23  1  0.87706150  0.13268550  0.41087000  1
  O  O24  1  0.87706150  0.86731450  0.91087000  1
  O  O25  1  0.62293850  0.36731450  0.58913000  1
  O  O26  1  0.63514700  0.95437400  0.46340000  1
  O  O27  1  0.86485300  0.45437400  0.03660000  1
  O  O28  1  0.86485300  0.54562600  0.53660000  1
  O  O29  1  0.63514700  0.04562600  0.96340000  1
  O  O30  1  0.64091750  0.56233450  0.87272700  1
  O  O31  1  0.85908250  0.06233450  0.62727300  1
  O  O32  1  0.85908250  0.93766550  0.12727300  1
  O  O33  1  0.64091750  0.43766550  0.37272700  1
  O  O34  1  0.50000000  0.85229600  0.25000000  1
  O  O35  1  0.50000000  0.14770400  0.75000000  1
  O  O36  1  0.12293850  0.13268550  0.08913000  1
  O  O37  1  0.37706150  0.63268550  0.41087000  1
  O  O38  1  0.37706150  0.36731450  0.91087000  1
  O  O39  1  0.12293850  0.86731450  0.58913000  1
  O  O40  1  0.13514700  0.45437400  0.46340000  1
  O  O41  1  0.36485300  0.95437400  0.03660000  1
  O  O42  1  0.36485300  0.04562600  0.53660000  1
  O  O43  1  0.13514700  0.54562600  0.96340000  1
  O  O44  1  0.14091750  0.06233450  0.87272700  1
  O  O45  1  0.35908250  0.56233450  0.62727300  1
  O  O46  1  0.35908250  0.43766550  0.12727300  1
  O  O47  1  0.14091750  0.93766550  0.37272700  1
