# generated using pymatgen
data_NaMnO2
_symmetry_space_group_name_H-M   'P 1'
_cell_length_a   5.74489929
_cell_length_b   2.91535081
_cell_length_c   5.86965153
_cell_angle_alpha   90.00000000
_cell_angle_beta   113.08869696
_cell_angle_gamma   90.00000000
_symmetry_Int_Tables_number   1
_chemical_formula_structural   NaMnO2
_chemical_formula_sum   'Na2 Mn2 O4'
_cell_volume   90.43273173
_cell_formula_units_Z   2
loop_
 _symmetry_equiv_pos_site_id
 _symmetry_equiv_pos_as_xyz
  1  'x, y, z'
loop_
 _atom_site_type_symbol
 _atom_site_label
 _atom_site_symmetry_multiplicity
 _atom_site_fract_x
 _atom_site_fract_y
 _atom_site_fract_z
 _atom_site_occupancy
  Na  Na0  1  0.00000000  0.50000000  0.00000000  1
  Na  Na1  1  0.50000000  0.00000000  0.00000000  1
  Mn  Mn2  1  0.50000000  0.50000000  0.50000000  1
  Mn  Mn3  1  0.00000000  0.00000000  0.50000000  1
  O  O4  1  0.70645575  0.00000000  0.70533200  1
  O  O5  1  0.29354425  0.00000000  0.29466800  1
  O  O6  1  0.20645575  0.50000000  0.70533200  1
  O  O7  1  0.79354425  0.50000000  0.29466800  1
