# generated using pymatgen
data_NaTa3O8
_symmetry_space_group_name_H-M   'P 1'
_cell_length_a   7.08557800
_cell_length_b   7.31216000
_cell_length_c   10.51904800
_cell_angle_alpha   90.00000000
_cell_angle_beta   90.00000000
_cell_angle_gamma   90.00000000
_symmetry_Int_Tables_number   1
_chemical_formula_structural   NaTa3O8
_chemical_formula_sum   'Na4 Ta12 O32'
_cell_volume   545.00113394
_cell_formula_units_Z   4
loop_
 _symmetry_equiv_pos_site_id
 _symmetry_equiv_pos_as_xyz
  1  'x, y, z'
loop_
 _atom_site_type_symbol
 _atom_site_label
 _atom_site_symmetry_multiplicity
 _atom_site_fract_x
 _atom_site_fract_y
 _atom_site_fract_z
 _atom_site_occupancy
  Na  Na0  1  0.75000000  0.00000000  0.00000000  1
  Na  Na1  1  0.25000000  0.00000000  0.00000000  1
  Na  Na2  1  0.25000000  0.50000000  0.50000000  1
  Na  Na3  1  0.75000000  0.50000000  0.50000000  1
  Ta  Ta4  1  0.00000000  0.73895950  0.23716250  1
  Ta  Ta5  1  0.50000000  0.76104050  0.26283750  1
  Ta  Ta6  1  0.00000000  0.23895950  0.26283750  1
  Ta  Ta7  1  0.50000000  0.26104050  0.23716250  1
  Ta  Ta8  1  0.75000000  0.50000000  0.00000000  1
  Ta  Ta9  1  0.25000000  0.50000000  0.00000000  1
  Ta  Ta10  1  0.50000000  0.23895950  0.73716250  1
  Ta  Ta11  1  0.00000000  0.26104050  0.76283750  1
  Ta  Ta12  1  0.50000000  0.73895950  0.76283750  1
  Ta  Ta13  1  0.00000000  0.76104050  0.73716250  1
  Ta  Ta14  1  0.25000000  0.00000000  0.50000000  1
  Ta  Ta15  1  0.75000000  0.00000000  0.50000000  1
  O  O16  1  0.79628700  0.80575200  0.35766100  1
  O  O17  1  0.29628700  0.69424800  0.14233900  1
  O  O18  1  0.20371300  0.30575200  0.14233900  1
  O  O19  1  0.70371300  0.19424800  0.35766100  1
  O  O20  1  0.70371300  0.69424800  0.14233900  1
  O  O21  1  0.20371300  0.80575200  0.35766100  1
  O  O22  1  0.29628700  0.19424800  0.35766100  1
  O  O23  1  0.79628700  0.30575200  0.14233900  1
  O  O24  1  0.50000000  0.51085200  0.32631600  1
  O  O25  1  0.00000000  0.98914800  0.17368400  1
  O  O26  1  0.50000000  0.01085200  0.17368400  1
  O  O27  1  0.00000000  0.48914800  0.32631600  1
  O  O28  1  0.50000000  0.38407800  0.06948000  1
  O  O29  1  0.00000000  0.11592200  0.43052000  1
  O  O30  1  0.50000000  0.88407800  0.43052000  1
  O  O31  1  0.00000000  0.61592200  0.06948000  1
  O  O32  1  0.29628700  0.30575200  0.85766100  1
  O  O33  1  0.79628700  0.19424800  0.64233900  1
  O  O34  1  0.70371300  0.80575200  0.64233900  1
  O  O35  1  0.20371300  0.69424800  0.85766100  1
  O  O36  1  0.20371300  0.19424800  0.64233900  1
  O  O37  1  0.70371300  0.30575200  0.85766100  1
  O  O38  1  0.79628700  0.69424800  0.85766100  1
  O  O39  1  0.29628700  0.80575200  0.64233900  1
  O  O40  1  0.00000000  0.01085200  0.82631600  1
  O  O41  1  0.50000000  0.48914800  0.67368400  1
  O  O42  1  0.00000000  0.51085200  0.67368400  1
  O  O43  1  0.50000000  0.98914800  0.82631600  1
  O  O44  1  0.00000000  0.88407800  0.56948000  1
  O  O45  1  0.50000000  0.61592200  0.93052000  1
  O  O46  1  0.00000000  0.38407800  0.93052000  1
  O  O47  1  0.50000000  0.11592200  0.56948000  1
