# generated using pymatgen
data_Ba2SrWO6
_symmetry_space_group_name_H-M   'P 1'
_cell_length_a   10.58736000
_cell_length_b   6.12427400
_cell_length_c   6.21433298
_cell_angle_alpha   90.00000000
_cell_angle_beta   124.90465452
_cell_angle_gamma   90.00000000
_symmetry_Int_Tables_number   1
_chemical_formula_structural   Ba2SrWO6
_chemical_formula_sum   'Ba4 Sr2 W2 O12'
_cell_volume   330.45055234
_cell_formula_units_Z   2
loop_
 _symmetry_equiv_pos_site_id
 _symmetry_equiv_pos_as_xyz
  1  'x, y, z'
loop_
 _atom_site_type_symbol
 _atom_site_label
 _atom_site_symmetry_multiplicity
 _atom_site_fract_x
 _atom_site_fract_y
 _atom_site_fract_z
 _atom_site_occupancy
  Ba  Ba0  1  0.75263500  0.00000000  0.76092500  1
  Ba  Ba1  1  0.74736500  0.50000000  0.23907500  1
  Ba  Ba2  1  0.25263500  0.50000000  0.76092500  1
  Ba  Ba3  1  0.24736500  0.00000000  0.23907500  1
  Sr  Sr4  1  0.00000000  0.00000000  0.50000000  1
  Sr  Sr5  1  0.50000000  0.50000000  0.50000000  1
  W  W6  1  0.00000000  0.50000000  0.00000000  1
  W  W7  1  0.50000000  0.00000000  0.00000000  1
  O  O8  1  0.54144600  0.22612500  0.82316700  1
  O  O9  1  0.95855400  0.72612500  0.17683300  1
  O  O10  1  0.95855400  0.27387500  0.17683300  1
  O  O11  1  0.54144600  0.77387500  0.82316700  1
  O  O12  1  0.28085800  0.00000000  0.70677800  1
  O  O13  1  0.21914200  0.50000000  0.29322200  1
  O  O14  1  0.04144600  0.72612500  0.82316700  1
  O  O15  1  0.45855400  0.22612500  0.17683300  1
  O  O16  1  0.45855400  0.77387500  0.17683300  1
  O  O17  1  0.04144600  0.27387500  0.82316700  1
  O  O18  1  0.78085800  0.50000000  0.70677800  1
  O  O19  1  0.71914200  0.00000000  0.29322200  1
