# generated using pymatgen
data_CaMn(SiO3)2
_symmetry_space_group_name_H-M   'P 1'
_cell_length_a   10.07563818
_cell_length_b   9.26504263
_cell_length_c   5.36339181
_cell_angle_alpha   90.00000000
_cell_angle_beta   105.63935851
_cell_angle_gamma   90.00000000
_symmetry_Int_Tables_number   1
_chemical_formula_structural   CaMn(SiO3)2
_chemical_formula_sum   'Ca4 Mn4 Si8 O24'
_cell_volume   482.14281461
_cell_formula_units_Z   4
loop_
 _symmetry_equiv_pos_site_id
 _symmetry_equiv_pos_as_xyz
  1  'x, y, z'
loop_
 _atom_site_type_symbol
 _atom_site_label
 _atom_site_symmetry_multiplicity
 _atom_site_fract_x
 _atom_site_fract_y
 _atom_site_fract_z
 _atom_site_occupancy
  Ca  Ca0  1  0.00000000  0.70093300  0.25000000  1
  Ca  Ca1  1  0.00000000  0.29906700  0.75000000  1
  Ca  Ca2  1  0.50000000  0.20093300  0.25000000  1
  Ca  Ca3  1  0.50000000  0.79906700  0.75000000  1
  Mn  Mn4  1  0.00000000  0.09565000  0.25000000  1
  Mn  Mn5  1  0.00000000  0.90435000  0.75000000  1
  Mn  Mn6  1  0.50000000  0.59565000  0.25000000  1
  Mn  Mn7  1  0.50000000  0.40435000  0.75000000  1
  Si  Si8  1  0.78756600  0.59134400  0.74034300  1
  Si  Si9  1  0.78756600  0.40865600  0.24034300  1
  Si  Si10  1  0.21243400  0.40865600  0.25965700  1
  Si  Si11  1  0.21243400  0.59134400  0.75965700  1
  Si  Si12  1  0.28756600  0.09134400  0.74034300  1
  Si  Si13  1  0.28756600  0.90865600  0.24034300  1
  Si  Si14  1  0.71243400  0.90865600  0.25965700  1
  Si  Si15  1  0.71243400  0.09134400  0.75965700  1
  O  O16  1  0.37962600  0.40719200  0.34526500  1
  O  O17  1  0.37962600  0.59280800  0.84526500  1
  O  O18  1  0.62037400  0.40719200  0.15473500  1
  O  O19  1  0.62037400  0.59280800  0.65473500  1
  O  O20  1  0.13551400  0.74187300  0.67032000  1
  O  O21  1  0.86448600  0.74187300  0.82968000  1
  O  O22  1  0.86448600  0.25812700  0.32968000  1
  O  O23  1  0.13551400  0.25812700  0.17032000  1
  O  O24  1  0.84763900  0.51668700  0.50458800  1
  O  O25  1  0.84763900  0.48331300  0.00458800  1
  O  O26  1  0.15236100  0.51668700  0.99541200  1
  O  O27  1  0.15236100  0.48331300  0.49541200  1
  O  O28  1  0.87962600  0.90719200  0.34526500  1
  O  O29  1  0.87962600  0.09280800  0.84526500  1
  O  O30  1  0.12037400  0.90719200  0.15473500  1
  O  O31  1  0.12037400  0.09280800  0.65473500  1
  O  O32  1  0.63551400  0.24187300  0.67032000  1
  O  O33  1  0.36448600  0.24187300  0.82968000  1
  O  O34  1  0.36448600  0.75812700  0.32968000  1
  O  O35  1  0.63551400  0.75812700  0.17032000  1
  O  O36  1  0.34763900  0.01668700  0.50458800  1
  O  O37  1  0.34763900  0.98331300  0.00458800  1
  O  O38  1  0.65236100  0.01668700  0.99541200  1
  O  O39  1  0.65236100  0.98331300  0.49541200  1
