# generated using pymatgen
data_RbSm2CuSe4
_symmetry_space_group_name_H-M   'P 1'
_cell_length_a   4.20605800
_cell_length_b   14.55319000
_cell_length_c   14.60538900
_cell_angle_alpha   90.00000000
_cell_angle_beta   90.00000000
_cell_angle_gamma   90.00000000
_symmetry_Int_Tables_number   1
_chemical_formula_structural   RbSm2CuSe4
_chemical_formula_sum   'Rb4 Sm8 Cu4 Se16'
_cell_volume   894.01866299
_cell_formula_units_Z   4
loop_
 _symmetry_equiv_pos_site_id
 _symmetry_equiv_pos_as_xyz
  1  'x, y, z'
loop_
 _atom_site_type_symbol
 _atom_site_label
 _atom_site_symmetry_multiplicity
 _atom_site_fract_x
 _atom_site_fract_y
 _atom_site_fract_z
 _atom_site_occupancy
  Rb  Rb0  1  0.00000000  0.10904100  0.25000000  1
  Rb  Rb1  1  0.50000000  0.39095900  0.75000000  1
  Rb  Rb2  1  0.50000000  0.60904100  0.25000000  1
  Rb  Rb3  1  0.00000000  0.89095900  0.75000000  1
  Sm  Sm4  1  0.50000000  0.13442000  0.56320900  1
  Sm  Sm5  1  0.00000000  0.36558000  0.43679100  1
  Sm  Sm6  1  0.50000000  0.13442000  0.93679100  1
  Sm  Sm7  1  0.00000000  0.36558000  0.06320900  1
  Sm  Sm8  1  0.00000000  0.63442000  0.56320900  1
  Sm  Sm9  1  0.50000000  0.86558000  0.43679100  1
  Sm  Sm10  1  0.00000000  0.63442000  0.93679100  1
  Sm  Sm11  1  0.50000000  0.86558000  0.06320900  1
  Cu  Cu12  1  0.50000000  0.33779100  0.25000000  1
  Cu  Cu13  1  0.00000000  0.16220900  0.75000000  1
  Cu  Cu14  1  0.00000000  0.83779100  0.25000000  1
  Cu  Cu15  1  0.50000000  0.66220900  0.75000000  1
  Se  Se16  1  0.50000000  0.07061500  0.75000000  1
  Se  Se17  1  0.00000000  0.42938500  0.25000000  1
  Se  Se18  1  0.00000000  0.26228100  0.61196600  1
  Se  Se19  1  0.50000000  0.23771900  0.38803400  1
  Se  Se20  1  0.00000000  0.00000000  0.00000000  1
  Se  Se21  1  0.00000000  0.00000000  0.50000000  1
  Se  Se22  1  0.00000000  0.26228100  0.88803400  1
  Se  Se23  1  0.50000000  0.23771900  0.11196600  1
  Se  Se24  1  0.00000000  0.57061500  0.75000000  1
  Se  Se25  1  0.50000000  0.92938500  0.25000000  1
  Se  Se26  1  0.50000000  0.76228100  0.61196600  1
  Se  Se27  1  0.00000000  0.73771900  0.38803400  1
  Se  Se28  1  0.50000000  0.50000000  0.00000000  1
  Se  Se29  1  0.50000000  0.50000000  0.50000000  1
  Se  Se30  1  0.50000000  0.76228100  0.88803400  1
  Se  Se31  1  0.00000000  0.73771900  0.11196600  1
