# generated using pymatgen
data_ZnS
_symmetry_space_group_name_H-M   'P 1'
_cell_length_a   3.85938393
_cell_length_b   3.85938393
_cell_length_c   94.41226989
_cell_angle_alpha   90.00000000
_cell_angle_beta   90.00000000
_cell_angle_gamma   120.00000000
_symmetry_Int_Tables_number   1
_chemical_formula_structural   ZnS
_chemical_formula_sum   'Zn30 S30'
_cell_volume   1217.85347693
_cell_formula_units_Z   30
loop_
 _symmetry_equiv_pos_site_id
 _symmetry_equiv_pos_as_xyz
  1  'x, y, z'
loop_
 _atom_site_type_symbol
 _atom_site_label
 _atom_site_symmetry_multiplicity
 _atom_site_fract_x
 _atom_site_fract_y
 _atom_site_fract_z
 _atom_site_occupancy
  Zn  Zn0  1  0.33333333  0.66666667  0.03357967  1
  Zn  Zn1  1  0.00000000  0.00000000  0.06691500  1
  Zn  Zn2  1  0.66666667  0.33333333  0.10024933  1
  Zn  Zn3  1  0.00000000  0.00000000  0.13358500  1
  Zn  Zn4  1  0.33333333  0.66666667  0.16691367  1
  Zn  Zn5  1  0.00000000  0.00000000  0.20024700  1
  Zn  Zn6  1  0.66666667  0.33333333  0.23357433  1
  Zn  Zn7  1  0.00000000  0.00000000  0.26693300  1
  Zn  Zn8  1  0.33333333  0.66666667  0.30024667  1
  Zn  Zn9  1  0.00000000  0.00000000  0.00022500  1
  Zn  Zn10  1  0.00000000  0.00000000  0.36691300  1
  Zn  Zn11  1  0.66666667  0.33333333  0.40024833  1
  Zn  Zn12  1  0.33333333  0.66666667  0.43358267  1
  Zn  Zn13  1  0.66666667  0.33333333  0.46691833  1
  Zn  Zn14  1  0.00000000  0.00000000  0.50024700  1
  Zn  Zn15  1  0.66666667  0.33333333  0.53358033  1
  Zn  Zn16  1  0.33333333  0.66666667  0.56690767  1
  Zn  Zn17  1  0.66666667  0.33333333  0.60026633  1
  Zn  Zn18  1  0.00000000  0.00000000  0.63358000  1
  Zn  Zn19  1  0.66666667  0.33333333  0.33355833  1
  Zn  Zn20  1  0.66666667  0.33333333  0.70024633  1
  Zn  Zn21  1  0.33333333  0.66666667  0.73358167  1
  Zn  Zn22  1  0.00000000  0.00000000  0.76691600  1
  Zn  Zn23  1  0.33333333  0.66666667  0.80025167  1
  Zn  Zn24  1  0.66666667  0.33333333  0.83358033  1
  Zn  Zn25  1  0.33333333  0.66666667  0.86691367  1
  Zn  Zn26  1  0.00000000  0.00000000  0.90024100  1
  Zn  Zn27  1  0.33333333  0.66666667  0.93359967  1
  Zn  Zn28  1  0.66666667  0.33333333  0.96691333  1
  Zn  Zn29  1  0.33333333  0.66666667  0.66689167  1
  S  S30  1  0.33333333  0.66666667  0.00855667  1
  S  S31  1  0.00000000  0.00000000  0.04194400  1
  S  S32  1  0.66666667  0.33333333  0.07523133  1
  S  S33  1  0.00000000  0.00000000  0.10861300  1
  S  S34  1  0.33333333  0.66666667  0.14189867  1
  S  S35  1  0.00000000  0.00000000  0.17527700  1
  S  S36  1  0.66666667  0.33333333  0.20856233  1
  S  S37  1  0.00000000  0.00000000  0.24194900  1
  S  S38  1  0.33333333  0.66666667  0.27525767  1
  S  S39  1  0.66666667  0.33333333  0.30857633  1
  S  S40  1  0.00000000  0.00000000  0.34189000  1
  S  S41  1  0.66666667  0.33333333  0.37527733  1
  S  S42  1  0.33333333  0.66666667  0.40856467  1
  S  S43  1  0.66666667  0.33333333  0.44194633  1
  S  S44  1  0.00000000  0.00000000  0.47523200  1
  S  S45  1  0.66666667  0.33333333  0.50861033  1
  S  S46  1  0.33333333  0.66666667  0.54189567  1
  S  S47  1  0.66666667  0.33333333  0.57528233  1
  S  S48  1  0.00000000  0.00000000  0.60859100  1
  S  S49  1  0.33333333  0.66666667  0.64190967  1
  S  S50  1  0.66666667  0.33333333  0.67522333  1
  S  S51  1  0.33333333  0.66666667  0.70861067  1
  S  S52  1  0.00000000  0.00000000  0.74189800  1
  S  S53  1  0.33333333  0.66666667  0.77527967  1
  S  S54  1  0.66666667  0.33333333  0.80856533  1
  S  S55  1  0.33333333  0.66666667  0.84194367  1
  S  S56  1  0.00000000  0.00000000  0.87522900  1
  S  S57  1  0.33333333  0.66666667  0.90861567  1
  S  S58  1  0.66666667  0.33333333  0.94192433  1
  S  S59  1  0.00000000  0.00000000  0.97524300  1
