# generated using pymatgen
data_RbSm2CuS4
_symmetry_space_group_name_H-M   'P 1'
_cell_length_a   4.05288400
_cell_length_b   14.01648600
_cell_length_c   13.97038100
_cell_angle_alpha   90.00000000
_cell_angle_beta   90.00000000
_cell_angle_gamma   90.00000000
_symmetry_Int_Tables_number   1
_chemical_formula_structural   RbSm2CuS4
_chemical_formula_sum   'Rb4 Sm8 Cu4 S16'
_cell_volume   793.61811362
_cell_formula_units_Z   4
loop_
 _symmetry_equiv_pos_site_id
 _symmetry_equiv_pos_as_xyz
  1  'x, y, z'
loop_
 _atom_site_type_symbol
 _atom_site_label
 _atom_site_symmetry_multiplicity
 _atom_site_fract_x
 _atom_site_fract_y
 _atom_site_fract_z
 _atom_site_occupancy
  Rb  Rb0  1  0.50000000  0.39356600  0.75000000  1
  Rb  Rb1  1  0.00000000  0.10643400  0.25000000  1
  Rb  Rb2  1  0.00000000  0.89356600  0.75000000  1
  Rb  Rb3  1  0.50000000  0.60643400  0.25000000  1
  Sm  Sm4  1  0.00000000  0.36562400  0.43824600  1
  Sm  Sm5  1  0.50000000  0.13437600  0.93824600  1
  Sm  Sm6  1  0.00000000  0.36562400  0.06175400  1
  Sm  Sm7  1  0.50000000  0.13437600  0.56175400  1
  Sm  Sm8  1  0.50000000  0.86562400  0.43824600  1
  Sm  Sm9  1  0.00000000  0.63437600  0.93824600  1
  Sm  Sm10  1  0.50000000  0.86562400  0.06175400  1
  Sm  Sm11  1  0.00000000  0.63437600  0.56175400  1
  Cu  Cu12  1  0.50000000  0.33524100  0.25000000  1
  Cu  Cu13  1  0.00000000  0.16475900  0.75000000  1
  Cu  Cu14  1  0.00000000  0.83524100  0.25000000  1
  Cu  Cu15  1  0.50000000  0.66475900  0.75000000  1
  S  S16  1  0.00000000  0.00000000  0.00000000  1
  S  S17  1  0.00000000  0.00000000  0.50000000  1
  S  S18  1  0.50000000  0.07552700  0.75000000  1
  S  S19  1  0.00000000  0.42447300  0.25000000  1
  S  S20  1  0.00000000  0.25991600  0.88874500  1
  S  S21  1  0.50000000  0.24008400  0.38874500  1
  S  S22  1  0.50000000  0.24008400  0.11125500  1
  S  S23  1  0.00000000  0.25991600  0.61125500  1
  S  S24  1  0.50000000  0.50000000  0.00000000  1
  S  S25  1  0.50000000  0.50000000  0.50000000  1
  S  S26  1  0.00000000  0.57552700  0.75000000  1
  S  S27  1  0.50000000  0.92447300  0.25000000  1
  S  S28  1  0.50000000  0.75991600  0.88874500  1
  S  S29  1  0.00000000  0.74008400  0.38874500  1
  S  S30  1  0.00000000  0.74008400  0.11125500  1
  S  S31  1  0.50000000  0.75991600  0.61125500  1
