# generated using pymatgen
data_KCa(PO3)3
_symmetry_space_group_name_H-M   'P 1'
_cell_length_a   6.92176137
_cell_length_b   6.92176137
_cell_length_c   10.49772100
_cell_angle_alpha   90.00000000
_cell_angle_beta   90.00000000
_cell_angle_gamma   120.00000000
_symmetry_Int_Tables_number   1
_chemical_formula_structural   KCa(PO3)3
_chemical_formula_sum   'K2 Ca2 P6 O18'
_cell_volume   435.57094592
_cell_formula_units_Z   2
loop_
 _symmetry_equiv_pos_site_id
 _symmetry_equiv_pos_as_xyz
  1  'x, y, z'
loop_
 _atom_site_type_symbol
 _atom_site_label
 _atom_site_symmetry_multiplicity
 _atom_site_fract_x
 _atom_site_fract_y
 _atom_site_fract_z
 _atom_site_occupancy
  K  K0  1  0.66666667  0.33333333  0.50000000  1
  K  K1  1  0.66666667  0.33333333  0.00000000  1
  Ca  Ca2  1  0.33333333  0.66666667  0.50000000  1
  Ca  Ca3  1  0.33333333  0.66666667  0.00000000  1
  P  P4  1  0.73201167  0.77132633  0.25000000  1
  P  P5  1  0.22867367  0.96068533  0.25000000  1
  P  P6  1  0.03931467  0.26798833  0.25000000  1
  P  P7  1  0.03931467  0.77132633  0.75000000  1
  P  P8  1  0.22867367  0.26798833  0.75000000  1
  P  P9  1  0.73201167  0.96068533  0.75000000  1
  O  O10  1  0.05343767  0.38554233  0.37273100  1
  O  O11  1  0.61445767  0.94656233  0.62726900  1
  O  O12  1  0.61445767  0.66789533  0.37273100  1
  O  O13  1  0.33210467  0.94656233  0.37273100  1
  O  O14  1  0.61445767  0.66789533  0.12726900  1
  O  O15  1  0.33210467  0.94656233  0.12726900  1
  O  O16  1  0.05343767  0.38554233  0.12726900  1
  O  O17  1  0.33210467  0.38554233  0.87273100  1
  O  O18  1  0.05343767  0.66789533  0.87273100  1
  O  O19  1  0.05343767  0.66789533  0.62726900  1
  O  O20  1  0.80725167  0.77408033  0.75000000  1
  O  O21  1  0.96682867  0.19274833  0.75000000  1
  O  O22  1  0.22591967  0.03317133  0.75000000  1
  O  O23  1  0.22591967  0.19274833  0.25000000  1
  O  O24  1  0.96682867  0.77408033  0.25000000  1
  O  O25  1  0.80725167  0.03317133  0.25000000  1
  O  O26  1  0.61445767  0.94656233  0.87273100  1
  O  O27  1  0.33210467  0.38554233  0.62726900  1
