# generated using pymatgen
data_Sm2Si2O7
_symmetry_space_group_name_H-M   'P 1'
_cell_length_a   6.66276300
_cell_length_b   6.77073900
_cell_length_c   12.78995248
_cell_angle_alpha   90.00000000
_cell_angle_beta   108.33302430
_cell_angle_gamma   90.00000000
_symmetry_Int_Tables_number   1
_chemical_formula_structural   Sm2Si2O7
_chemical_formula_sum   'Sm8 Si8 O28'
_cell_volume   547.69324595
_cell_formula_units_Z   4
loop_
 _symmetry_equiv_pos_site_id
 _symmetry_equiv_pos_as_xyz
  1  'x, y, z'
loop_
 _atom_site_type_symbol
 _atom_site_label
 _atom_site_symmetry_multiplicity
 _atom_site_fract_x
 _atom_site_fract_y
 _atom_site_fract_z
 _atom_site_occupancy
  Sm  Sm0  1  0.15046900  0.67534300  0.34663500  1
  Sm  Sm1  1  0.84953100  0.17534300  0.15336500  1
  Sm  Sm2  1  0.84953100  0.32465700  0.65336500  1
  Sm  Sm3  1  0.15046900  0.82465700  0.84663500  1
  Sm  Sm4  1  0.47183300  0.89059700  0.63791500  1
  Sm  Sm5  1  0.52816700  0.39059700  0.86208500  1
  Sm  Sm6  1  0.52816700  0.10940300  0.36208500  1
  Sm  Sm7  1  0.47183300  0.60940300  0.13791500  1
  Si  Si8  1  0.70886800  0.57931900  0.39006000  1
  Si  Si9  1  0.29113200  0.07931900  0.10994000  1
  Si  Si10  1  0.29113200  0.42068100  0.60994000  1
  Si  Si11  1  0.70886800  0.92068100  0.89006000  1
  Si  Si12  1  0.89615400  0.82753000  0.58542200  1
  Si  Si13  1  0.10384600  0.32753000  0.91457800  1
  Si  Si14  1  0.10384600  0.17247000  0.41457800  1
  Si  Si15  1  0.89615400  0.67247000  0.08542200  1
  O  O16  1  0.66302500  0.39433000  0.45941900  1
  O  O17  1  0.33697500  0.89433000  0.04058100  1
  O  O18  1  0.33697500  0.60567000  0.54058100  1
  O  O19  1  0.66302500  0.10567000  0.95941900  1
  O  O20  1  0.79041300  0.67055900  0.64981100  1
  O  O21  1  0.20958700  0.17055900  0.85018900  1
  O  O22  1  0.20958700  0.32944100  0.35018900  1
  O  O23  1  0.79041300  0.82944100  0.14981100  1
  O  O24  1  0.12570600  0.90855900  0.65979500  1
  O  O25  1  0.87429400  0.40855900  0.84020500  1
  O  O26  1  0.87429400  0.09144100  0.34020500  1
  O  O27  1  0.12570600  0.59144100  0.15979500  1
  O  O28  1  0.79657500  0.51444500  0.28916100  1
  O  O29  1  0.20342500  0.01444500  0.21083900  1
  O  O30  1  0.20342500  0.48555500  0.71083900  1
  O  O31  1  0.79657500  0.98555500  0.78916100  1
  O  O32  1  0.90517800  0.78015900  0.96908900  1
  O  O33  1  0.09482200  0.28015900  0.53091100  1
  O  O34  1  0.09482200  0.21984100  0.03091100  1
  O  O35  1  0.90517800  0.71984100  0.46908900  1
  O  O36  1  0.72453700  0.48743700  0.04976700  1
  O  O37  1  0.27546300  0.98743700  0.45023300  1
  O  O38  1  0.27546300  0.51256300  0.95023300  1
  O  O39  1  0.72453700  0.01256300  0.54976700  1
  O  O40  1  0.50145400  0.77826900  0.83290600  1
  O  O41  1  0.49854600  0.27826900  0.66709400  1
  O  O42  1  0.49854600  0.22173100  0.16709400  1
  O  O43  1  0.50145400  0.72173100  0.33290600  1
