# generated using pymatgen
data_K3Na(FeO4)2
_symmetry_space_group_name_H-M   'P 1'
_cell_length_a   5.90609767
_cell_length_b   5.90609767
_cell_length_c   7.65844300
_cell_angle_alpha   90.00000000
_cell_angle_beta   90.00000000
_cell_angle_gamma   120.00000000
_symmetry_Int_Tables_number   1
_chemical_formula_structural   K3Na(FeO4)2
_chemical_formula_sum   'K3 Na1 Fe2 O8'
_cell_volume   231.35152415
_cell_formula_units_Z   1
loop_
 _symmetry_equiv_pos_site_id
 _symmetry_equiv_pos_as_xyz
  1  'x, y, z'
loop_
 _atom_site_type_symbol
 _atom_site_label
 _atom_site_symmetry_multiplicity
 _atom_site_fract_x
 _atom_site_fract_y
 _atom_site_fract_z
 _atom_site_occupancy
  K  K0  1  0.00000000  0.00000000  0.50000000  1
  K  K1  1  0.66666667  0.33333333  0.83475400  1
  K  K2  1  0.33333333  0.66666667  0.16524600  1
  Na  Na3  1  0.00000000  0.00000000  0.00000000  1
  Fe  Fe4  1  0.33333333  0.66666667  0.72579500  1
  Fe  Fe5  1  0.66666667  0.33333333  0.27420500  1
  O  O6  1  0.66666667  0.33333333  0.48776600  1
  O  O7  1  0.33333333  0.66666667  0.51223400  1
  O  O8  1  0.81888625  0.18111375  0.19565300  1
  O  O9  1  0.81888625  0.63777250  0.19565300  1
  O  O10  1  0.36222750  0.18111375  0.19565300  1
  O  O11  1  0.18111375  0.81888625  0.80434700  1
  O  O12  1  0.63777250  0.81888625  0.80434700  1
  O  O13  1  0.18111375  0.36222750  0.80434700  1
