# generated using pymatgen
data_Ag2TeO3
_symmetry_space_group_name_H-M   'P 1'
_cell_length_a   4.97532800
_cell_length_b   10.77338400
_cell_length_c   7.28447713
_cell_angle_alpha   90.00000000
_cell_angle_beta   91.36400785
_cell_angle_gamma   90.00000000
_symmetry_Int_Tables_number   1
_chemical_formula_structural   Ag2TeO3
_chemical_formula_sum   'Ag8 Te4 O12'
_cell_volume   390.34548633
_cell_formula_units_Z   4
loop_
 _symmetry_equiv_pos_site_id
 _symmetry_equiv_pos_as_xyz
  1  'x, y, z'
loop_
 _atom_site_type_symbol
 _atom_site_label
 _atom_site_symmetry_multiplicity
 _atom_site_fract_x
 _atom_site_fract_y
 _atom_site_fract_z
 _atom_site_occupancy
  Ag  Ag0  1  0.74847100  0.07348700  0.38718500  1
  Ag  Ag1  1  0.24810700  0.26114700  0.63389300  1
  Ag  Ag2  1  0.24810700  0.23885300  0.13389300  1
  Ag  Ag3  1  0.75189300  0.73885300  0.36610700  1
  Ag  Ag4  1  0.25152900  0.92651300  0.61281500  1
  Ag  Ag5  1  0.74847100  0.42651300  0.88718500  1
  Ag  Ag6  1  0.25152900  0.57348700  0.11281500  1
  Ag  Ag7  1  0.75189300  0.76114700  0.86610700  1
  Te  Te8  1  0.25515000  0.60170100  0.63395400  1
  Te  Te9  1  0.74485000  0.10170100  0.86604600  1
  Te  Te10  1  0.74485000  0.39829900  0.36604600  1
  Te  Te11  1  0.25515000  0.89829900  0.13395400  1
  O  O12  1  0.63921000  0.61369400  0.62002400  1
  O  O13  1  0.36079000  0.11369400  0.87997600  1
  O  O14  1  0.36079000  0.38630600  0.37997600  1
  O  O15  1  0.63921000  0.88630600  0.12002400  1
  O  O16  1  0.75219600  0.97811900  0.67823300  1
  O  O17  1  0.24780400  0.47811900  0.82176700  1
  O  O18  1  0.24780400  0.02188100  0.32176700  1
  O  O19  1  0.75219600  0.52188100  0.17823300  1
  O  O20  1  0.21882800  0.74310500  0.79158400  1
  O  O21  1  0.21882800  0.75689500  0.29158400  1
  O  O22  1  0.78117200  0.25689500  0.20841600  1
  O  O23  1  0.78117200  0.24310500  0.70841600  1
