# generated using pymatgen
data_Zn4B6SeO12
_symmetry_space_group_name_H-M   'P 1'
_cell_length_a   7.75616600
_cell_length_b   7.75616600
_cell_length_c   7.75616600
_cell_angle_alpha   90.00000000
_cell_angle_beta   90.00000000
_cell_angle_gamma   90.00000000
_symmetry_Int_Tables_number   1
_chemical_formula_structural   Zn4B6SeO12
_chemical_formula_sum   'Zn8 B12 Se2 O24'
_cell_volume   466.59629531
_cell_formula_units_Z   2
loop_
 _symmetry_equiv_pos_site_id
 _symmetry_equiv_pos_as_xyz
  1  'x, y, z'
loop_
 _atom_site_type_symbol
 _atom_site_label
 _atom_site_symmetry_multiplicity
 _atom_site_fract_x
 _atom_site_fract_y
 _atom_site_fract_z
 _atom_site_occupancy
  Zn  Zn0  1  0.17738650  0.17738650  0.82261350  1
  Zn  Zn1  1  0.82261350  0.17738650  0.17738650  1
  Zn  Zn2  1  0.17738650  0.82261350  0.17738650  1
  Zn  Zn3  1  0.32261350  0.32261350  0.32261350  1
  Zn  Zn4  1  0.67738650  0.67738650  0.32261350  1
  Zn  Zn5  1  0.32261350  0.67738650  0.67738650  1
  Zn  Zn6  1  0.67738650  0.32261350  0.67738650  1
  Zn  Zn7  1  0.82261350  0.82261350  0.82261350  1
  B  B8  1  0.50000000  0.25000000  0.00000000  1
  B  B9  1  0.25000000  0.00000000  0.50000000  1
  B  B10  1  0.25000000  0.50000000  0.00000000  1
  B  B11  1  0.00000000  0.50000000  0.25000000  1
  B  B12  1  0.50000000  0.00000000  0.25000000  1
  B  B13  1  0.00000000  0.25000000  0.50000000  1
  B  B14  1  0.00000000  0.75000000  0.50000000  1
  B  B15  1  0.75000000  0.50000000  0.00000000  1
  B  B16  1  0.75000000  0.00000000  0.50000000  1
  B  B17  1  0.50000000  0.00000000  0.75000000  1
  B  B18  1  0.00000000  0.50000000  0.75000000  1
  B  B19  1  0.50000000  0.75000000  0.00000000  1
  Se  Se20  1  0.00000000  0.00000000  0.00000000  1
  Se  Se21  1  0.50000000  0.50000000  0.50000000  1
  O  O22  1  0.14407250  0.14407250  0.57049450  1
  O  O23  1  0.85592750  0.14407250  0.42950550  1
  O  O24  1  0.14407250  0.85592750  0.42950550  1
  O  O25  1  0.35592750  0.07049450  0.35592750  1
  O  O26  1  0.85592750  0.42950550  0.14407250  1
  O  O27  1  0.42950550  0.85592750  0.14407250  1
  O  O28  1  0.07049450  0.35592750  0.35592750  1
  O  O29  1  0.57049450  0.14407250  0.14407250  1
  O  O30  1  0.14407250  0.57049450  0.14407250  1
  O  O31  1  0.14407250  0.42950550  0.85592750  1
  O  O32  1  0.42950550  0.14407250  0.85592750  1
  O  O33  1  0.35592750  0.35592750  0.07049450  1
  O  O34  1  0.64407250  0.64407250  0.07049450  1
  O  O35  1  0.35592750  0.64407250  0.92950550  1
  O  O36  1  0.64407250  0.35592750  0.92950550  1
  O  O37  1  0.85592750  0.57049450  0.85592750  1
  O  O38  1  0.35592750  0.92950550  0.64407250  1
  O  O39  1  0.92950550  0.35592750  0.64407250  1
  O  O40  1  0.57049450  0.85592750  0.85592750  1
  O  O41  1  0.07049450  0.64407250  0.64407250  1
  O  O42  1  0.64407250  0.07049450  0.64407250  1
  O  O43  1  0.64407250  0.92950550  0.35592750  1
  O  O44  1  0.92950550  0.64407250  0.35592750  1
  O  O45  1  0.85592750  0.85592750  0.57049450  1
