# generated using pymatgen
data_SmCd(BO2)5
_symmetry_space_group_name_H-M   'P 1'
_cell_length_a   8.70857800
_cell_length_b   7.98028700
_cell_length_c   12.75591531
_cell_angle_alpha   90.00000000
_cell_angle_beta   130.97069857
_cell_angle_gamma   90.00000000
_symmetry_Int_Tables_number   1
_chemical_formula_structural   SmCd(BO2)5
_chemical_formula_sum   'Sm4 Cd4 B20 O40'
_cell_volume   669.34529692
_cell_formula_units_Z   4
loop_
 _symmetry_equiv_pos_site_id
 _symmetry_equiv_pos_as_xyz
  1  'x, y, z'
loop_
 _atom_site_type_symbol
 _atom_site_label
 _atom_site_symmetry_multiplicity
 _atom_site_fract_x
 _atom_site_fract_y
 _atom_site_fract_z
 _atom_site_occupancy
  Sm  Sm0  1  0.95203600  0.81690900  0.75969100  1
  Sm  Sm1  1  0.04796400  0.31690900  0.74030900  1
  Sm  Sm2  1  0.04796400  0.18309100  0.24030900  1
  Sm  Sm3  1  0.95203600  0.68309100  0.25969100  1
  Cd  Cd4  1  0.47308800  0.59495500  0.87125800  1
  Cd  Cd5  1  0.52691200  0.09495500  0.62874200  1
  Cd  Cd6  1  0.52691200  0.40504500  0.12874200  1
  Cd  Cd7  1  0.47308800  0.90504500  0.37125800  1
  B  B8  1  0.66834100  0.42620300  0.75218500  1
  B  B9  1  0.52918600  0.82538300  0.09445100  1
  B  B10  1  0.47081400  0.32538300  0.40554900  1
  B  B11  1  0.47081400  0.17461700  0.90554900  1
  B  B12  1  0.52918600  0.67461700  0.59445100  1
  B  B13  1  0.85472400  0.10553300  0.51105000  1
  B  B14  1  0.14527600  0.60553300  0.98895000  1
  B  B15  1  0.14527600  0.89446700  0.48895000  1
  B  B16  1  0.85472400  0.39446700  0.01105000  1
  B  B17  1  0.33165900  0.92620300  0.74781500  1
  B  B18  1  0.33165900  0.57379700  0.24781500  1
  B  B19  1  0.66834100  0.07379700  0.25218500  1
  B  B20  1  0.07762100  0.67618500  0.59480900  1
  B  B21  1  0.92237900  0.17618500  0.90519100  1
  B  B22  1  0.92237900  0.32381500  0.40519100  1
  B  B23  1  0.07762100  0.82381500  0.09480900  1
  B  B24  1  0.27905900  0.46965100  0.55821200  1
  B  B25  1  0.72094100  0.96965100  0.94178800  1
  B  B26  1  0.72094100  0.53034900  0.44178800  1
  B  B27  1  0.27905900  0.03034900  0.05821200  1
  O  O28  1  0.18492900  0.79463500  0.71769000  1
  O  O29  1  0.41350700  0.32912400  0.91943600  1
  O  O30  1  0.58649300  0.82912400  0.58056400  1
  O  O31  1  0.58649300  0.67087600  0.08056400  1
  O  O32  1  0.41350700  0.17087600  0.41943600  1
  O  O33  1  0.12286000  0.55992100  0.87665800  1
  O  O34  1  0.87714000  0.05992100  0.62334200  1
  O  O35  1  0.87714000  0.44007900  0.12334200  1
  O  O36  1  0.81507100  0.29463500  0.78231000  1
  O  O37  1  0.12286000  0.94007900  0.37665800  1
  O  O38  1  0.18492900  0.70536500  0.21769000  1
  O  O39  1  0.81507100  0.20536500  0.28231000  1
  O  O40  1  0.71258400  0.46788400  0.88345900  1
  O  O41  1  0.28741600  0.96788400  0.61654100  1
  O  O42  1  0.28741600  0.53211600  0.11654100  1
  O  O43  1  0.71258400  0.03211600  0.38345900  1
  O  O44  1  0.69308200  0.58137500  0.70239100  1
  O  O45  1  0.30691800  0.08137500  0.79760900  1
  O  O46  1  0.30691800  0.41862500  0.29760900  1
  O  O47  1  0.69308200  0.91862500  0.20239100  1
  O  O48  1  0.45892200  0.36226700  0.64950100  1
  O  O49  1  0.54107800  0.86226700  0.85049900  1
  O  O50  1  0.54107800  0.63773300  0.35049900  1
  O  O51  1  0.45892200  0.13773300  0.14950100  1
  O  O52  1  0.21840300  0.53387800  0.63721800  1
  O  O53  1  0.78159700  0.03387800  0.86278200  1
  O  O54  1  0.78159700  0.46612200  0.36278200  1
  O  O55  1  0.21840300  0.96612200  0.13721800  1
  O  O56  1  0.89700700  0.61608100  0.57302000  1
  O  O57  1  0.10299300  0.11608100  0.92698000  1
  O  O58  1  0.10299300  0.38391900  0.42698000  1
  O  O59  1  0.33236200  0.88291900  0.01213200  1
  O  O60  1  0.02272200  0.76579100  0.47292400  1
  O  O61  1  0.97727800  0.26579100  0.02707600  1
  O  O62  1  0.97727800  0.23420900  0.52707600  1
  O  O63  1  0.02272200  0.73420900  0.97292400  1
  O  O64  1  0.33236200  0.61708100  0.51213200  1
  O  O65  1  0.66763800  0.11708100  0.98786800  1
  O  O66  1  0.66763800  0.38291900  0.48786800  1
  O  O67  1  0.89700700  0.88391900  0.07302000  1
