# generated using pymatgen
data_LiFeAs2O7
_symmetry_space_group_name_H-M   'P 1'
_cell_length_a   6.78578400
_cell_length_b   8.41573400
_cell_length_c   4.82938765
_cell_angle_alpha   90.00000000
_cell_angle_beta   103.95836268
_cell_angle_gamma   90.00000000
_symmetry_Int_Tables_number   1
_chemical_formula_structural   LiFeAs2O7
_chemical_formula_sum   'Li2 Fe2 As4 O14'
_cell_volume   267.64971470
_cell_formula_units_Z   2
loop_
 _symmetry_equiv_pos_site_id
 _symmetry_equiv_pos_as_xyz
  1  'x, y, z'
loop_
 _atom_site_type_symbol
 _atom_site_label
 _atom_site_symmetry_multiplicity
 _atom_site_fract_x
 _atom_site_fract_y
 _atom_site_fract_z
 _atom_site_occupancy
  Li  Li0  1  0.50000000  0.12112300  0.00000000  1
  Li  Li1  1  0.00000000  0.62112300  0.00000000  1
  Fe  Fe2  1  0.50000000  0.50014400  0.00000000  1
  Fe  Fe3  1  0.00000000  0.00014400  0.00000000  1
  As  As4  1  0.71801950  0.83582850  0.40857300  1
  As  As5  1  0.28198050  0.83582850  0.59142700  1
  As  As6  1  0.21801950  0.33582850  0.40857300  1
  As  As7  1  0.78198050  0.33582850  0.59142700  1
  O  O8  1  0.75078000  0.98090300  0.17644700  1
  O  O9  1  0.24922000  0.98090300  0.82355300  1
  O  O10  1  0.17018350  0.15483550  0.25524600  1
  O  O11  1  0.82981650  0.15483550  0.74475400  1
  O  O12  1  0.39419050  0.31620550  0.72732500  1
  O  O13  1  0.60580950  0.31620550  0.27267500  1
  O  O14  1  0.50000000  0.91848700  0.50000000  1
  O  O15  1  0.25078000  0.48090300  0.17644700  1
  O  O16  1  0.74922000  0.48090300  0.82355300  1
  O  O17  1  0.67018350  0.65483550  0.25524600  1
  O  O18  1  0.32981650  0.65483550  0.74475400  1
  O  O19  1  0.89419050  0.81620550  0.72732500  1
  O  O20  1  0.10580950  0.81620550  0.27267500  1
  O  O21  1  0.00000000  0.41848700  0.50000000  1
