# generated using pymatgen
data_Ca4Mn2O7
_symmetry_space_group_name_H-M   'P 1'
_cell_length_a   5.42212100
_cell_length_b   12.33387201
_cell_length_c   10.10107100
_cell_angle_alpha   90.00000000
_cell_angle_beta   90.00000000
_cell_angle_gamma   90.00000000
_symmetry_Int_Tables_number   1
_chemical_formula_structural   Ca4Mn2O7
_chemical_formula_sum   'Ca16 Mn8 O28'
_cell_volume   675.51666296
_cell_formula_units_Z   4
loop_
 _symmetry_equiv_pos_site_id
 _symmetry_equiv_pos_as_xyz
  1  'x, y, z'
loop_
 _atom_site_type_symbol
 _atom_site_label
 _atom_site_symmetry_multiplicity
 _atom_site_fract_x
 _atom_site_fract_y
 _atom_site_fract_z
 _atom_site_occupancy
  Ca  Ca0  1  0.20686250  0.65219700  0.37485600  1
  Ca  Ca1  1  0.20686250  0.84780300  0.12514400  1
  Ca  Ca2  1  0.79313750  0.84780300  0.87485600  1
  Ca  Ca3  1  0.79313750  0.65219700  0.62514400  1
  Ca  Ca4  1  0.70686250  0.84780300  0.37485600  1
  Ca  Ca5  1  0.70686250  0.65219700  0.12514400  1
  Ca  Ca6  1  0.29313750  0.65219700  0.87485600  1
  Ca  Ca7  1  0.29313750  0.84780300  0.62514400  1
  Ca  Ca8  1  0.70686250  0.15219700  0.37485600  1
  Ca  Ca9  1  0.70686250  0.34780300  0.12514400  1
  Ca  Ca10  1  0.29313750  0.34780300  0.87485600  1
  Ca  Ca11  1  0.29313750  0.15219700  0.62514400  1
  Ca  Ca12  1  0.20686250  0.34780300  0.37485600  1
  Ca  Ca13  1  0.20686250  0.15219700  0.12514400  1
  Ca  Ca14  1  0.79313750  0.15219700  0.87485600  1
  Ca  Ca15  1  0.79313750  0.34780300  0.62514400  1
  Mn  Mn16  1  0.23229750  0.50000000  0.12468000  1
  Mn  Mn17  1  0.76770250  0.00000000  0.62468000  1
  Mn  Mn18  1  0.73229750  0.50000000  0.37532000  1
  Mn  Mn19  1  0.76770250  0.50000000  0.87532000  1
  Mn  Mn20  1  0.73229750  0.00000000  0.12468000  1
  Mn  Mn21  1  0.26770250  0.50000000  0.62468000  1
  Mn  Mn22  1  0.23229750  0.00000000  0.37532000  1
  Mn  Mn23  1  0.26770250  0.00000000  0.87532000  1
  O  O24  1  0.50000000  0.50000000  0.00000000  1
  O  O25  1  0.50000000  0.00000000  0.50000000  1
  O  O26  1  0.08735900  0.50000000  0.80698300  1
  O  O27  1  0.58735900  0.50000000  0.69301700  1
  O  O28  1  0.91264100  0.00000000  0.30698300  1
  O  O29  1  0.41264100  0.00000000  0.19301700  1
  O  O30  1  0.23868500  0.83893050  0.37979500  1
  O  O31  1  0.23868500  0.66106950  0.12020500  1
  O  O32  1  0.76131500  0.66106950  0.87979500  1
  O  O33  1  0.76131500  0.83893050  0.62020500  1
  O  O34  1  0.26131500  0.66106950  0.62020500  1
  O  O35  1  0.26131500  0.83893050  0.87979500  1
  O  O36  1  0.73868500  0.66106950  0.37979500  1
  O  O37  1  0.73868500  0.83893050  0.12020500  1
  O  O38  1  0.00000000  0.00000000  0.00000000  1
  O  O39  1  0.00000000  0.50000000  0.50000000  1
  O  O40  1  0.58735900  0.00000000  0.80698300  1
  O  O41  1  0.08735900  0.00000000  0.69301700  1
  O  O42  1  0.41264100  0.50000000  0.30698300  1
  O  O43  1  0.91264100  0.50000000  0.19301700  1
  O  O44  1  0.73868500  0.33893050  0.37979500  1
  O  O45  1  0.73868500  0.16106950  0.12020500  1
  O  O46  1  0.26131500  0.16106950  0.87979500  1
  O  O47  1  0.26131500  0.33893050  0.62020500  1
  O  O48  1  0.76131500  0.16106950  0.62020500  1
  O  O49  1  0.76131500  0.33893050  0.87979500  1
  O  O50  1  0.23868500  0.16106950  0.37979500  1
  O  O51  1  0.23868500  0.33893050  0.12020500  1
