# generated using pymatgen
data_KGe2(PO4)3
_symmetry_space_group_name_H-M   'P 1'
_cell_length_a   8.13150206
_cell_length_b   8.13150206
_cell_length_c   22.86469513
_cell_angle_alpha   90.00000000
_cell_angle_beta   90.00000000
_cell_angle_gamma   120.00000000
_symmetry_Int_Tables_number   1
_chemical_formula_structural   KGe2(PO4)3
_chemical_formula_sum   'K6 Ge12 P18 O72'
_cell_volume   1309.29527004
_cell_formula_units_Z   6
loop_
 _symmetry_equiv_pos_site_id
 _symmetry_equiv_pos_as_xyz
  1  'x, y, z'
loop_
 _atom_site_type_symbol
 _atom_site_label
 _atom_site_symmetry_multiplicity
 _atom_site_fract_x
 _atom_site_fract_y
 _atom_site_fract_z
 _atom_site_occupancy
  K  K0  1  0.00000000  0.00000000  0.00000000  1
  K  K1  1  0.33333333  0.66666667  0.16666667  1
  K  K2  1  0.66666667  0.33333333  0.33333333  1
  K  K3  1  1.00000000  0.00000000  0.50000000  1
  K  K4  1  0.33333333  0.66666667  0.66666667  1
  K  K5  1  0.66666667  0.33333333  0.83333333  1
  Ge  Ge6  1  0.66666667  0.33333333  0.18535533  1
  Ge  Ge7  1  0.00000000  0.00000000  0.14797800  1
  Ge  Ge8  1  0.33333333  0.66666667  0.31947967  1
  Ge  Ge9  1  0.33333333  0.66666667  0.01385367  1
  Ge  Ge10  1  0.33333333  0.66666667  0.51868867  1
  Ge  Ge11  1  0.66666667  0.33333333  0.48131133  1
  Ge  Ge12  1  0.00000000  0.00000000  0.65281300  1
  Ge  Ge13  1  0.00000000  0.00000000  0.34718700  1
  Ge  Ge14  1  0.00000000  0.00000000  0.85202200  1
  Ge  Ge15  1  0.33333333  0.66666667  0.81464467  1
  Ge  Ge16  1  0.66666667  0.33333333  0.98614633  1
  Ge  Ge17  1  0.66666667  0.33333333  0.68052033  1
  P  P18  1  0.95107833  0.33441067  0.08276067  1
  P  P19  1  0.66558933  0.61666767  0.08276067  1
  P  P20  1  0.38333233  0.04892167  0.08276067  1
  P  P21  1  0.71558833  0.99892267  0.25057267  1
  P  P22  1  0.00107733  0.71666567  0.25057267  1
  P  P23  1  0.28333433  0.28441167  0.25057267  1
  P  P24  1  0.61774500  0.66774400  0.41609400  1
  P  P25  1  0.33225600  0.95000100  0.41609400  1
  P  P26  1  0.04999900  0.38225500  0.41609400  1
  P  P27  1  0.38225500  0.33225600  0.58390600  1
  P  P28  1  0.66774400  0.04999900  0.58390600  1
  P  P29  1  0.95000100  0.61774500  0.58390600  1
  P  P30  1  0.28441167  0.00107733  0.74942733  1
  P  P31  1  0.99892267  0.28333433  0.74942733  1
  P  P32  1  0.71666567  0.71558833  0.74942733  1
  P  P33  1  0.04892167  0.66558933  0.91723933  1
  P  P34  1  0.33441067  0.38333233  0.91723933  1
  P  P35  1  0.61666767  0.95107833  0.91723933  1
  O  O36  1  0.40680167  0.87811833  0.06508933  1
  O  O37  1  0.12188167  0.52868333  0.06508933  1
  O  O38  1  0.47131667  0.59319833  0.06508933  1
  O  O39  1  0.25986500  0.45521500  0.26824400  1
  O  O40  1  0.54478500  0.80465000  0.26824400  1
  O  O41  1  0.19535000  0.74013500  0.26824400  1
  O  O42  1  0.64952633  0.14324067  0.23839267  1
  O  O43  1  0.85675933  0.50628567  0.23839267  1
  O  O44  1  0.49371433  0.35047367  0.23839267  1
  O  O45  1  0.01714033  0.19009267  0.09494067  1
  O  O46  1  0.80990733  0.82704767  0.09494067  1
  O  O47  1  0.17295233  0.98285967  0.09494067  1
  O  O48  1  0.17070267  0.20948833  0.19315433  1
  O  O49  1  0.03878567  0.82929733  0.19315433  1
  O  O50  1  0.79051167  0.96121433  0.19315433  1
  O  O51  1  0.49596400  0.12384500  0.14017900  1
  O  O52  1  0.62788100  0.50403600  0.14017900  1
  O  O53  1  0.87615500  0.37211900  0.14017900  1
  O  O54  1  0.75222500  0.55464800  0.03278700  1
  O  O55  1  0.80242300  0.24777500  0.03278700  1
  O  O56  1  0.44535200  0.19757700  0.03278700  1
  O  O57  1  0.91444167  0.77868533  0.30054633  1
  O  O58  1  0.86424367  0.08555833  0.30054633  1
  O  O59  1  0.22131467  0.13575633  0.30054633  1
  O  O60  1  0.07346833  0.21145167  0.39842267  1
  O  O61  1  0.78854833  0.86201667  0.39842267  1
  O  O62  1  0.13798333  0.92653167  0.39842267  1
  O  O63  1  0.92653167  0.78854833  0.60157733  1
  O  O64  1  0.21145167  0.13798333  0.60157733  1
  O  O65  1  0.86201667  0.07346833  0.60157733  1
  O  O66  1  0.31619300  0.47657400  0.57172600  1
  O  O67  1  0.52342600  0.83961900  0.57172600  1
  O  O68  1  0.16038100  0.68380700  0.57172600  1
  O  O69  1  0.68380700  0.52342600  0.42827400  1
  O  O70  1  0.47657400  0.16038100  0.42827400  1
  O  O71  1  0.83961900  0.31619300  0.42827400  1
  O  O72  1  0.83736933  0.54282167  0.52648767  1
  O  O73  1  0.70545233  0.16263067  0.52648767  1
  O  O74  1  0.45717833  0.29454767  0.52648767  1
  O  O75  1  0.16263067  0.45717833  0.47351233  1
  O  O76  1  0.29454767  0.83736933  0.47351233  1
  O  O77  1  0.54282167  0.70545233  0.47351233  1
  O  O78  1  0.41889167  0.88798133  0.36612033  1
  O  O79  1  0.46908967  0.58110833  0.36612033  1
  O  O80  1  0.11201867  0.53091033  0.36612033  1
  O  O81  1  0.58110833  0.11201867  0.63387967  1
  O  O82  1  0.53091033  0.41889167  0.63387967  1
  O  O83  1  0.88798133  0.46908967  0.63387967  1
  O  O84  1  0.74013500  0.54478500  0.73175600  1
  O  O85  1  0.45521500  0.19535000  0.73175600  1
  O  O86  1  0.80465000  0.25986500  0.73175600  1
  O  O87  1  0.59319833  0.12188167  0.93491067  1
  O  O88  1  0.87811833  0.47131667  0.93491067  1
  O  O89  1  0.52868333  0.40680167  0.93491067  1
  O  O90  1  0.98285967  0.80990733  0.90505933  1
  O  O91  1  0.19009267  0.17295233  0.90505933  1
  O  O92  1  0.82704767  0.01714033  0.90505933  1
  O  O93  1  0.35047367  0.85675933  0.76160733  1
  O  O94  1  0.14324067  0.49371433  0.76160733  1
  O  O95  1  0.50628567  0.64952633  0.76160733  1
  O  O96  1  0.50403600  0.87615500  0.85982100  1
  O  O97  1  0.37211900  0.49596400  0.85982100  1
  O  O98  1  0.12384500  0.62788100  0.85982100  1
  O  O99  1  0.82929733  0.79051167  0.80684567  1
  O  O100  1  0.96121433  0.17070267  0.80684567  1
  O  O101  1  0.20948833  0.03878567  0.80684567  1
  O  O102  1  0.08555833  0.22131467  0.69945367  1
  O  O103  1  0.13575633  0.91444167  0.69945367  1
  O  O104  1  0.77868533  0.86424367  0.69945367  1
  O  O105  1  0.24777500  0.44535200  0.96721300  1
  O  O106  1  0.19757700  0.75222500  0.96721300  1
  O  O107  1  0.55464800  0.80242300  0.96721300  1
