# generated using pymatgen
data_MgCrO4
_symmetry_space_group_name_H-M   'P 1'
_cell_length_a   5.55340400
_cell_length_b   8.47746000
_cell_length_c   6.48492500
_cell_angle_alpha   90.00000000
_cell_angle_beta   90.00000000
_cell_angle_gamma   90.00000000
_symmetry_Int_Tables_number   1
_chemical_formula_structural   MgCrO4
_chemical_formula_sum   'Mg4 Cr4 O16'
_cell_volume   305.30222947
_cell_formula_units_Z   4
loop_
 _symmetry_equiv_pos_site_id
 _symmetry_equiv_pos_as_xyz
  1  'x, y, z'
loop_
 _atom_site_type_symbol
 _atom_site_label
 _atom_site_symmetry_multiplicity
 _atom_site_fract_x
 _atom_site_fract_y
 _atom_site_fract_z
 _atom_site_occupancy
  Mg  Mg0  1  0.00000000  0.00000000  0.00000000  1
  Mg  Mg1  1  0.00000000  0.00000000  0.50000000  1
  Mg  Mg2  1  0.50000000  0.50000000  0.00000000  1
  Mg  Mg3  1  0.50000000  0.50000000  0.50000000  1
  Cr  Cr4  1  0.50000000  0.14310200  0.75000000  1
  Cr  Cr5  1  0.50000000  0.85689800  0.25000000  1
  Cr  Cr6  1  0.00000000  0.64310200  0.75000000  1
  Cr  Cr7  1  0.00000000  0.35689800  0.25000000  1
  O  O8  1  0.75356400  0.02977800  0.75000000  1
  O  O9  1  0.24643600  0.97022200  0.25000000  1
  O  O10  1  0.75356400  0.97022200  0.25000000  1
  O  O11  1  0.24643600  0.02977800  0.75000000  1
  O  O12  1  0.50000000  0.25567100  0.95429300  1
  O  O13  1  0.50000000  0.74432900  0.45429300  1
  O  O14  1  0.50000000  0.74432900  0.04570700  1
  O  O15  1  0.50000000  0.25567100  0.54570700  1
  O  O16  1  0.25356400  0.52977800  0.75000000  1
  O  O17  1  0.74643600  0.47022200  0.25000000  1
  O  O18  1  0.25356400  0.47022200  0.25000000  1
  O  O19  1  0.74643600  0.52977800  0.75000000  1
  O  O20  1  0.00000000  0.75567100  0.95429300  1
  O  O21  1  0.00000000  0.24432900  0.45429300  1
  O  O22  1  0.00000000  0.24432900  0.04570700  1
  O  O23  1  0.00000000  0.75567100  0.54570700  1
