# generated using pymatgen
data_TlV2AgO6
_symmetry_space_group_name_H-M   'P 1'
_cell_length_a   11.03067400
_cell_length_b   10.47106600
_cell_length_c   5.98907521
_cell_angle_alpha   90.00000000
_cell_angle_beta   105.00555903
_cell_angle_gamma   90.00000000
_symmetry_Int_Tables_number   1
_chemical_formula_structural   TlV2AgO6
_chemical_formula_sum   'Tl4 V8 Ag4 O24'
_cell_volume   668.16727161
_cell_formula_units_Z   4
loop_
 _symmetry_equiv_pos_site_id
 _symmetry_equiv_pos_as_xyz
  1  'x, y, z'
loop_
 _atom_site_type_symbol
 _atom_site_label
 _atom_site_symmetry_multiplicity
 _atom_site_fract_x
 _atom_site_fract_y
 _atom_site_fract_z
 _atom_site_occupancy
  Tl  Tl0  1  0.00000000  0.71526800  0.25000000  1
  Tl  Tl1  1  0.00000000  0.28473200  0.75000000  1
  Tl  Tl2  1  0.50000000  0.21526800  0.25000000  1
  Tl  Tl3  1  0.50000000  0.78473200  0.75000000  1
  V  V4  1  0.21451100  0.58171500  0.78249500  1
  V  V5  1  0.78548900  0.58171500  0.71750500  1
  V  V6  1  0.78548900  0.41828500  0.21750500  1
  V  V7  1  0.21451100  0.41828500  0.28249500  1
  V  V8  1  0.71451100  0.08171500  0.78249500  1
  V  V9  1  0.28548900  0.08171500  0.71750500  1
  V  V10  1  0.28548900  0.91828500  0.21750500  1
  V  V11  1  0.71451100  0.91828500  0.28249500  1
  Ag  Ag12  1  0.00000000  0.10391100  0.25000000  1
  Ag  Ag13  1  0.00000000  0.89608900  0.75000000  1
  Ag  Ag14  1  0.50000000  0.60391100  0.25000000  1
  Ag  Ag15  1  0.50000000  0.39608900  0.75000000  1
  O  O16  1  0.15924500  0.48973300  0.51664200  1
  O  O17  1  0.84075500  0.48973300  0.98335800  1
  O  O18  1  0.84075500  0.51026700  0.48335800  1
  O  O19  1  0.15924500  0.51026700  0.01664200  1
  O  O20  1  0.84179700  0.73042200  0.77295400  1
  O  O21  1  0.15820300  0.73042200  0.72704600  1
  O  O22  1  0.15820300  0.26957800  0.22704600  1
  O  O23  1  0.84179700  0.26957800  0.27295400  1
  O  O24  1  0.62557550  0.41883350  0.14400300  1
  O  O25  1  0.37442450  0.41883350  0.35599700  1
  O  O26  1  0.37442450  0.58116650  0.85599700  1
  O  O27  1  0.62557550  0.58116650  0.64400300  1
  O  O28  1  0.65924500  0.98973300  0.51664200  1
  O  O29  1  0.34075500  0.98973300  0.98335800  1
  O  O30  1  0.34075500  0.01026700  0.48335800  1
  O  O31  1  0.65924500  0.01026700  0.01664200  1
  O  O32  1  0.34179700  0.23042200  0.77295400  1
  O  O33  1  0.65820300  0.23042200  0.72704600  1
  O  O34  1  0.65820300  0.76957800  0.22704600  1
  O  O35  1  0.34179700  0.76957800  0.27295400  1
  O  O36  1  0.12557550  0.91883350  0.14400300  1
  O  O37  1  0.87442450  0.91883350  0.35599700  1
  O  O38  1  0.87442450  0.08116650  0.85599700  1
  O  O39  1  0.12557550  0.08116650  0.64400300  1
