# generated using pymatgen
data_Ca3Mn2O7
_symmetry_space_group_name_H-M   'P 1'
_cell_length_a   5.32174800
_cell_length_b   19.49061601
_cell_length_c   5.36143900
_cell_angle_alpha   90.00000000
_cell_angle_beta   90.00000000
_cell_angle_gamma   90.00000000
_symmetry_Int_Tables_number   1
_chemical_formula_structural   Ca3Mn2O7
_chemical_formula_sum   'Ca12 Mn8 O28'
_cell_volume   556.11068624
_cell_formula_units_Z   4
loop_
 _symmetry_equiv_pos_site_id
 _symmetry_equiv_pos_as_xyz
  1  'x, y, z'
loop_
 _atom_site_type_symbol
 _atom_site_label
 _atom_site_symmetry_multiplicity
 _atom_site_fract_x
 _atom_site_fract_y
 _atom_site_fract_z
 _atom_site_occupancy
  Ca  Ca0  1  0.75558250  0.50000000  0.79340500  1
  Ca  Ca1  1  0.74441750  0.00000000  0.29340500  1
  Ca  Ca2  1  0.75619950  0.31274500  0.71183800  1
  Ca  Ca3  1  0.24380050  0.31274500  0.21183800  1
  Ca  Ca4  1  0.74380050  0.18725500  0.21183800  1
  Ca  Ca5  1  0.25619950  0.18725500  0.71183800  1
  Ca  Ca6  1  0.25558250  0.00000000  0.79340500  1
  Ca  Ca7  1  0.24441750  0.50000000  0.29340500  1
  Ca  Ca8  1  0.25619950  0.81274500  0.71183800  1
  Ca  Ca9  1  0.74380050  0.81274500  0.21183800  1
  Ca  Ca10  1  0.24380050  0.68725500  0.21183800  1
  Ca  Ca11  1  0.75619950  0.68725500  0.71183800  1
  Mn  Mn12  1  0.25064050  0.40181200  0.75028500  1
  Mn  Mn13  1  0.74935950  0.40181200  0.25028500  1
  Mn  Mn14  1  0.24935950  0.09818800  0.25028500  1
  Mn  Mn15  1  0.75064050  0.09818800  0.75028500  1
  Mn  Mn16  1  0.75064050  0.90181200  0.75028500  1
  Mn  Mn17  1  0.24935950  0.90181200  0.25028500  1
  Mn  Mn18  1  0.74935950  0.59818800  0.25028500  1
  Mn  Mn19  1  0.25064050  0.59818800  0.75028500  1
  O  O20  1  0.81833200  0.00000000  0.73577600  1
  O  O21  1  0.18166800  0.00000000  0.23577600  1
  O  O22  1  0.45609000  0.08405450  0.54341800  1
  O  O23  1  0.54391000  0.08405450  0.04341800  1
  O  O24  1  0.04391000  0.41594550  0.04341800  1
  O  O25  1  0.95609000  0.41594550  0.54341800  1
  O  O26  1  0.95650150  0.11112900  0.45880900  1
  O  O27  1  0.04349850  0.11112900  0.95880900  1
  O  O28  1  0.54349850  0.38887100  0.95880900  1
  O  O29  1  0.45650150  0.38887100  0.45880900  1
  O  O30  1  0.69870200  0.19581650  0.76106300  1
  O  O31  1  0.30129800  0.19581650  0.26106300  1
  O  O32  1  0.80129800  0.30418350  0.26106300  1
  O  O33  1  0.19870200  0.30418350  0.76106300  1
  O  O34  1  0.31833200  0.50000000  0.73577600  1
  O  O35  1  0.68166800  0.50000000  0.23577600  1
  O  O36  1  0.95609000  0.58405450  0.54341800  1
  O  O37  1  0.04391000  0.58405450  0.04341800  1
  O  O38  1  0.54391000  0.91594550  0.04341800  1
  O  O39  1  0.45609000  0.91594550  0.54341800  1
  O  O40  1  0.45650150  0.61112900  0.45880900  1
  O  O41  1  0.54349850  0.61112900  0.95880900  1
  O  O42  1  0.04349850  0.88887100  0.95880900  1
  O  O43  1  0.95650150  0.88887100  0.45880900  1
  O  O44  1  0.19870200  0.69581650  0.76106300  1
  O  O45  1  0.80129800  0.69581650  0.26106300  1
  O  O46  1  0.30129800  0.80418350  0.26106300  1
  O  O47  1  0.69870200  0.80418350  0.76106300  1
