# generated using pymatgen
data_KPrSiSe4
_symmetry_space_group_name_H-M   'P 1'
_cell_length_a   6.87010500
_cell_length_b   7.08219400
_cell_length_c   9.17922785
_cell_angle_alpha   90.00000000
_cell_angle_beta   107.58057107
_cell_angle_gamma   90.00000000
_symmetry_Int_Tables_number   1
_chemical_formula_structural   KPrSiSe4
_chemical_formula_sum   'K2 Pr2 Si2 Se8'
_cell_volume   425.75897802
_cell_formula_units_Z   2
loop_
 _symmetry_equiv_pos_site_id
 _symmetry_equiv_pos_as_xyz
  1  'x, y, z'
loop_
 _atom_site_type_symbol
 _atom_site_label
 _atom_site_symmetry_multiplicity
 _atom_site_fract_x
 _atom_site_fract_y
 _atom_site_fract_z
 _atom_site_occupancy
  K  K0  1  0.76236600  0.70425300  0.06507700  1
  K  K1  1  0.23763400  0.20425300  0.93492300  1
  Pr  Pr2  1  0.72872500  0.69369400  0.55035600  1
  Pr  Pr3  1  0.27127500  0.19369400  0.44964400  1
  Si  Si4  1  0.71831600  0.22700000  0.32107300  1
  Si  Si5  1  0.28168400  0.72700000  0.67892700  1
  Se  Se6  1  0.52451100  0.96142000  0.72982700  1
  Se  Se7  1  0.08540900  0.72944600  0.83766000  1
  Se  Se8  1  0.91459100  0.22944600  0.16234000  1
  Se  Se9  1  0.47918300  0.45856500  0.71301000  1
  Se  Se10  1  0.52081700  0.95856500  0.28699000  1
  Se  Se11  1  0.08880900  0.77763200  0.43044500  1
  Se  Se12  1  0.91119100  0.27763200  0.56955500  1
  Se  Se13  1  0.47548900  0.46142000  0.27017300  1
