# generated using pymatgen
data_CsEr2Cu3S5
_symmetry_space_group_name_H-M   'P 1'
_cell_length_a   3.94562400
_cell_length_b   14.05242800
_cell_length_c   16.70246800
_cell_angle_alpha   90.00000000
_cell_angle_beta   90.00000000
_cell_angle_gamma   90.00000000
_symmetry_Int_Tables_number   1
_chemical_formula_structural   CsEr2Cu3S5
_chemical_formula_sum   'Cs4 Er8 Cu12 S20'
_cell_volume   926.07831256
_cell_formula_units_Z   4
loop_
 _symmetry_equiv_pos_site_id
 _symmetry_equiv_pos_as_xyz
  1  'x, y, z'
loop_
 _atom_site_type_symbol
 _atom_site_label
 _atom_site_symmetry_multiplicity
 _atom_site_fract_x
 _atom_site_fract_y
 _atom_site_fract_z
 _atom_site_occupancy
  Cs  Cs0  1  0.00000000  0.06377000  0.75000000  1
  Cs  Cs1  1  0.50000000  0.43623000  0.25000000  1
  Cs  Cs2  1  0.50000000  0.56377000  0.75000000  1
  Cs  Cs3  1  0.00000000  0.93623000  0.25000000  1
  Er  Er4  1  0.50000000  0.30794400  0.90823200  1
  Er  Er5  1  0.50000000  0.30794400  0.59176800  1
  Er  Er6  1  0.00000000  0.19205600  0.09176800  1
  Er  Er7  1  0.00000000  0.19205600  0.40823200  1
  Er  Er8  1  0.00000000  0.80794400  0.90823200  1
  Er  Er9  1  0.00000000  0.80794400  0.59176800  1
  Er  Er10  1  0.50000000  0.69205600  0.09176800  1
  Er  Er11  1  0.50000000  0.69205600  0.40823200  1
  Cu  Cu12  1  0.00000000  0.41571700  0.03611000  1
  Cu  Cu13  1  0.00000000  0.41571700  0.46389000  1
  Cu  Cu14  1  0.50000000  0.08428300  0.53611000  1
  Cu  Cu15  1  0.50000000  0.15606900  0.25000000  1
  Cu  Cu16  1  0.00000000  0.34393100  0.75000000  1
  Cu  Cu17  1  0.50000000  0.08428300  0.96389000  1
  Cu  Cu18  1  0.50000000  0.91571700  0.03611000  1
  Cu  Cu19  1  0.50000000  0.91571700  0.46389000  1
  Cu  Cu20  1  0.00000000  0.58428300  0.53611000  1
  Cu  Cu21  1  0.00000000  0.65606900  0.25000000  1
  Cu  Cu22  1  0.50000000  0.84393100  0.75000000  1
  Cu  Cu23  1  0.00000000  0.58428300  0.96389000  1
  S  S24  1  0.00000000  0.17019600  0.56823500  1
  S  S25  1  0.50000000  0.06277300  0.39153200  1
  S  S26  1  0.50000000  0.06277300  0.10846800  1
  S  S27  1  0.00000000  0.43722700  0.89153200  1
  S  S28  1  0.50000000  0.26836000  0.75000000  1
  S  S29  1  0.00000000  0.23164000  0.25000000  1
  S  S30  1  0.00000000  0.43722700  0.60846800  1
  S  S31  1  0.50000000  0.32980400  0.43176500  1
  S  S32  1  0.50000000  0.32980400  0.06823500  1
  S  S33  1  0.00000000  0.17019600  0.93176500  1
  S  S34  1  0.50000000  0.67019600  0.56823500  1
  S  S35  1  0.00000000  0.56277300  0.39153200  1
  S  S36  1  0.00000000  0.56277300  0.10846800  1
  S  S37  1  0.50000000  0.93722700  0.89153200  1
  S  S38  1  0.00000000  0.76836000  0.75000000  1
  S  S39  1  0.50000000  0.73164000  0.25000000  1
  S  S40  1  0.50000000  0.93722700  0.60846800  1
  S  S41  1  0.00000000  0.82980400  0.43176500  1
  S  S42  1  0.00000000  0.82980400  0.06823500  1
  S  S43  1  0.50000000  0.67019600  0.93176500  1
