# generated using pymatgen
data_BaNaLi3(BO2)6
_symmetry_space_group_name_H-M   'P 1'
_cell_length_a   9.56086188
_cell_length_b   9.56086188
_cell_length_c   18.99143492
_cell_angle_alpha   90.00000000
_cell_angle_beta   90.00000000
_cell_angle_gamma   120.00000000
_symmetry_Int_Tables_number   1
_chemical_formula_structural   BaNaLi3(BO2)6
_chemical_formula_sum   'Ba6 Na6 Li18 B36 O72'
_cell_volume   1503.42753372
_cell_formula_units_Z   6
loop_
 _symmetry_equiv_pos_site_id
 _symmetry_equiv_pos_as_xyz
  1  'x, y, z'
loop_
 _atom_site_type_symbol
 _atom_site_label
 _atom_site_symmetry_multiplicity
 _atom_site_fract_x
 _atom_site_fract_y
 _atom_site_fract_z
 _atom_site_occupancy
  Ba  Ba0  1  0.33333333  0.66666667  0.51902767  1
  Ba  Ba1  1  0.33333333  0.66666667  0.81430567  1
  Ba  Ba2  1  0.00000000  0.00000000  0.85236100  1
  Ba  Ba3  1  0.00000000  0.00000000  0.14763900  1
  Ba  Ba4  1  0.66666667  0.33333333  0.18569433  1
  Ba  Ba5  1  0.66666667  0.33333333  0.48097233  1
  Na  Na6  1  0.33333333  0.66666667  0.33529867  1
  Na  Na7  1  0.33333333  0.66666667  0.99803467  1
  Na  Na8  1  0.00000000  0.00000000  0.66863200  1
  Na  Na9  1  0.00000000  0.00000000  0.33136800  1
  Na  Na10  1  0.66666667  0.33333333  0.00196533  1
  Na  Na11  1  0.66666667  0.33333333  0.66470133  1
  Li  Li12  1  0.56230467  0.94044733  0.22038333  1
  Li  Li13  1  0.05955267  0.62185733  0.22038333  1
  Li  Li14  1  0.37814267  0.43769533  0.22038333  1
  Li  Li15  1  0.10436200  0.39288600  0.11295000  1
  Li  Li16  1  0.60711400  0.71147600  0.11295000  1
  Li  Li17  1  0.28852400  0.89563800  0.11295000  1
  Li  Li18  1  0.22897133  0.27378067  0.55371667  1
  Li  Li19  1  0.72621933  0.95519067  0.55371667  1
  Li  Li20  1  0.04480933  0.77102867  0.55371667  1
  Li  Li21  1  0.77102867  0.72621933  0.44628333  1
  Li  Li22  1  0.27378067  0.04480933  0.44628333  1
  Li  Li23  1  0.95519067  0.22897133  0.44628333  1
  Li  Li24  1  0.89563800  0.60711400  0.88705000  1
  Li  Li25  1  0.39288600  0.28852400  0.88705000  1
  Li  Li26  1  0.71147600  0.10436200  0.88705000  1
  Li  Li27  1  0.43769533  0.05955267  0.77961667  1
  Li  Li28  1  0.94044733  0.37814267  0.77961667  1
  Li  Li29  1  0.62185733  0.56230467  0.77961667  1
  B  B30  1  0.61124667  0.01426133  0.08161833  1
  B  B31  1  0.98573867  0.59698533  0.08161833  1
  B  B32  1  0.40301467  0.38875333  0.08161833  1
  B  B33  1  0.05542000  0.31907200  0.25171500  1
  B  B34  1  0.68092800  0.73634800  0.25171500  1
  B  B35  1  0.26365200  0.94458000  0.25171500  1
  B  B36  1  0.13744867  0.82846333  0.99506333  1
  B  B37  1  0.17153667  0.30898533  0.99506333  1
  B  B38  1  0.69101467  0.86255133  0.99506333  1
  B  B39  1  0.52921800  0.50487000  0.33827000  1
  B  B40  1  0.49513000  0.02434800  0.33827000  1
  B  B41  1  0.97565200  0.47078200  0.33827000  1
  B  B42  1  0.27791333  0.34759467  0.41495167  1
  B  B43  1  0.65240533  0.93031867  0.41495167  1
  B  B44  1  0.06968133  0.72208667  0.41495167  1
  B  B45  1  0.72208667  0.65240533  0.58504833  1
  B  B46  1  0.34759467  0.06968133  0.58504833  1
  B  B47  1  0.93031867  0.27791333  0.58504833  1
  B  B48  1  0.80411533  0.16179667  0.32839667  1
  B  B49  1  0.83820333  0.64231867  0.32839667  1
  B  B50  1  0.35768133  0.19588467  0.32839667  1
  B  B51  1  0.19588467  0.83820333  0.67160333  1
  B  B52  1  0.16179667  0.35768133  0.67160333  1
  B  B53  1  0.64231867  0.80411533  0.67160333  1
  B  B54  1  0.94458000  0.68092800  0.74828500  1
  B  B55  1  0.31907200  0.26365200  0.74828500  1
  B  B56  1  0.73634800  0.05542000  0.74828500  1
  B  B57  1  0.38875333  0.98573867  0.91838167  1
  B  B58  1  0.01426133  0.40301467  0.91838167  1
  B  B59  1  0.59698533  0.61124667  0.91838167  1
  B  B60  1  0.47078200  0.49513000  0.66173000  1
  B  B61  1  0.50487000  0.97565200  0.66173000  1
  B  B62  1  0.02434800  0.52921800  0.66173000  1
  B  B63  1  0.86255133  0.17153667  0.00493667  1
  B  B64  1  0.82846333  0.69101467  0.00493667  1
  B  B65  1  0.30898533  0.13744867  0.00493667  1
  O  O66  1  0.50893533  0.92406867  0.39481467  1
  O  O67  1  0.07593133  0.58486667  0.39481467  1
  O  O68  1  0.41513333  0.49106467  0.39481467  1
  O  O69  1  0.15773133  0.40926467  0.93851867  1
  O  O70  1  0.59073533  0.74846667  0.93851867  1
  O  O71  1  0.25153333  0.84226867  0.93851867  1
  O  O72  1  0.37140700  0.90818300  0.28627400  1
  O  O73  1  0.09181700  0.46322400  0.28627400  1
  O  O74  1  0.53677600  0.62859300  0.28627400  1
  O  O75  1  0.29525967  0.42515033  0.04705933  1
  O  O76  1  0.57484967  0.87010933  0.04705933  1
  O  O77  1  0.12989067  0.70474033  0.04705933  1
  O  O78  1  0.64643533  0.11001367  0.29647967  1
  O  O79  1  0.88998633  0.53642167  0.29647967  1
  O  O80  1  0.46357833  0.35356467  0.29647967  1
  O  O81  1  0.02023133  0.22331967  0.03685367  1
  O  O82  1  0.77668033  0.79691167  0.03685367  1
  O  O83  1  0.20308833  0.97976867  0.03685367  1
  O  O84  1  0.51747667  0.01633033  0.13430733  1
  O  O85  1  0.98366967  0.50114633  0.13430733  1
  O  O86  1  0.49885367  0.48252333  0.13430733  1
  O  O87  1  0.14919000  0.31700300  0.19902600  1
  O  O88  1  0.68299700  0.83218700  0.19902600  1
  O  O89  1  0.16781300  0.85081000  0.19902600  1
  O  O90  1  0.17560200  0.25740200  0.72814800  1
  O  O91  1  0.74259800  0.91820000  0.72814800  1
  O  O92  1  0.08180000  0.82439800  0.72814800  1
  O  O93  1  0.82439800  0.74259800  0.27185200  1
  O  O94  1  0.25740200  0.08180000  0.27185200  1
  O  O95  1  0.91820000  0.17560200  0.27185200  1
  O  O96  1  0.03807367  0.24151633  0.61960733  1
  O  O97  1  0.75848367  0.79655733  0.61960733  1
  O  O98  1  0.20344267  0.96192633  0.61960733  1
  O  O99  1  0.96192633  0.75848367  0.38039267  1
  O  O100  1  0.24151633  0.20344267  0.38039267  1
  O  O101  1  0.79655733  0.03807367  0.38039267  1
  O  O102  1  0.31310200  0.44334700  0.62981300  1
  O  O103  1  0.55665300  0.86975500  0.62981300  1
  O  O104  1  0.13024500  0.68689800  0.62981300  1
  O  O105  1  0.68689800  0.55665300  0.37018700  1
  O  O106  1  0.44334700  0.13024500  0.37018700  1
  O  O107  1  0.86975500  0.31310200  0.37018700  1
  O  O108  1  0.18414333  0.34966367  0.46764067  1
  O  O109  1  0.65033633  0.83447967  0.46764067  1
  O  O110  1  0.16552033  0.81585667  0.46764067  1
  O  O111  1  0.81585667  0.65033633  0.53235933  1
  O  O112  1  0.34966367  0.16552033  0.53235933  1
  O  O113  1  0.83447967  0.18414333  0.53235933  1
  O  O114  1  0.84226867  0.59073533  0.06148133  1
  O  O115  1  0.40926467  0.25153333  0.06148133  1
  O  O116  1  0.74846667  0.15773133  0.06148133  1
  O  O117  1  0.49106467  0.07593133  0.60518533  1
  O  O118  1  0.92406867  0.41513333  0.60518533  1
  O  O119  1  0.58486667  0.50893533  0.60518533  1
  O  O120  1  0.70474033  0.57484967  0.95294067  1
  O  O121  1  0.42515033  0.12989067  0.95294067  1
  O  O122  1  0.87010933  0.29525967  0.95294067  1
  O  O123  1  0.62859300  0.09181700  0.71372600  1
  O  O124  1  0.90818300  0.53677600  0.71372600  1
  O  O125  1  0.46322400  0.37140700  0.71372600  1
  O  O126  1  0.97976867  0.77668033  0.96314633  1
  O  O127  1  0.22331967  0.20308833  0.96314633  1
  O  O128  1  0.79691167  0.02023133  0.96314633  1
  O  O129  1  0.35356467  0.88998633  0.70352033  1
  O  O130  1  0.11001367  0.46357833  0.70352033  1
  O  O131  1  0.53642167  0.64643533  0.70352033  1
  O  O132  1  0.85081000  0.68299700  0.80097400  1
  O  O133  1  0.31700300  0.16781300  0.80097400  1
  O  O134  1  0.83218700  0.14919000  0.80097400  1
  O  O135  1  0.48252333  0.98366967  0.86569267  1
  O  O136  1  0.01633033  0.49885367  0.86569267  1
  O  O137  1  0.50114633  0.51747667  0.86569267  1
