# generated using pymatgen
data_Tm2S3
_symmetry_space_group_name_H-M   'P 1'
_cell_length_a   12.54565000
_cell_length_b   12.54565000
_cell_length_c   12.54565000
_cell_angle_alpha   90.00000000
_cell_angle_beta   90.00000000
_cell_angle_gamma   90.00000000
_symmetry_Int_Tables_number   1
_chemical_formula_structural   Tm2S3
_chemical_formula_sum   'Tm32 S48'
_cell_volume   1974.60167972
_cell_formula_units_Z   16
loop_
 _symmetry_equiv_pos_site_id
 _symmetry_equiv_pos_as_xyz
  1  'x, y, z'
loop_
 _atom_site_type_symbol
 _atom_site_label
 _atom_site_symmetry_multiplicity
 _atom_site_fract_x
 _atom_site_fract_y
 _atom_site_fract_z
 _atom_site_occupancy
  Tm  Tm0  1  0.45169500  0.50000000  0.75000000  1
  Tm  Tm1  1  0.50000000  0.25000000  0.04830500  1
  Tm  Tm2  1  0.75000000  0.45169500  0.50000000  1
  Tm  Tm3  1  0.25000000  0.04830500  0.50000000  1
  Tm  Tm4  1  0.50000000  0.75000000  0.45169500  1
  Tm  Tm5  1  0.04830500  0.50000000  0.25000000  1
  Tm  Tm6  1  0.04830500  0.00000000  0.75000000  1
  Tm  Tm7  1  0.00000000  0.25000000  0.45169500  1
  Tm  Tm8  1  0.75000000  0.04830500  0.00000000  1
  Tm  Tm9  1  0.25000000  0.45169500  0.00000000  1
  Tm  Tm10  1  0.00000000  0.75000000  0.04830500  1
  Tm  Tm11  1  0.45169500  0.00000000  0.25000000  1
  Tm  Tm12  1  0.75000000  0.25000000  0.25000000  1
  Tm  Tm13  1  0.25000000  0.25000000  0.75000000  1
  Tm  Tm14  1  0.25000000  0.75000000  0.25000000  1
  Tm  Tm15  1  0.25000000  0.25000000  0.25000000  1
  Tm  Tm16  1  0.95169500  0.00000000  0.25000000  1
  Tm  Tm17  1  0.00000000  0.75000000  0.54830500  1
  Tm  Tm18  1  0.25000000  0.95169500  0.00000000  1
  Tm  Tm19  1  0.75000000  0.54830500  0.00000000  1
  Tm  Tm20  1  0.00000000  0.25000000  0.95169500  1
  Tm  Tm21  1  0.54830500  0.00000000  0.75000000  1
  Tm  Tm22  1  0.54830500  0.50000000  0.25000000  1
  Tm  Tm23  1  0.50000000  0.75000000  0.95169500  1
  Tm  Tm24  1  0.25000000  0.54830500  0.50000000  1
  Tm  Tm25  1  0.75000000  0.95169500  0.50000000  1
  Tm  Tm26  1  0.50000000  0.25000000  0.54830500  1
  Tm  Tm27  1  0.95169500  0.50000000  0.75000000  1
  Tm  Tm28  1  0.25000000  0.75000000  0.75000000  1
  Tm  Tm29  1  0.75000000  0.75000000  0.25000000  1
  Tm  Tm30  1  0.75000000  0.25000000  0.75000000  1
  Tm  Tm31  1  0.75000000  0.75000000  0.75000000  1
  S  S32  1  0.89333850  0.16064350  0.11659250  1
  S  S33  1  0.60666150  0.16064350  0.88340750  1
  S  S34  1  0.39333850  0.33935650  0.88340750  1
  S  S35  1  0.33935650  0.11659250  0.10666150  1
  S  S36  1  0.11659250  0.10666150  0.33935650  1
  S  S37  1  0.11659250  0.89333850  0.16064350  1
  S  S38  1  0.16064350  0.88340750  0.60666150  1
  S  S39  1  0.88340750  0.39333850  0.33935650  1
  S  S40  1  0.16064350  0.11659250  0.89333850  1
  S  S41  1  0.88340750  0.60666150  0.16064350  1
  S  S42  1  0.33935650  0.88340750  0.39333850  1
  S  S43  1  0.10666150  0.33935650  0.11659250  1
  S  S44  1  0.60666150  0.33935650  0.38340750  1
  S  S45  1  0.89333850  0.33935650  0.61659250  1
  S  S46  1  0.10666150  0.16064350  0.61659250  1
  S  S47  1  0.16064350  0.38340750  0.39333850  1
  S  S48  1  0.39333850  0.16064350  0.38340750  1
  S  S49  1  0.16064350  0.61659250  0.10666150  1
  S  S50  1  0.61659250  0.89333850  0.33935650  1
  S  S51  1  0.33935650  0.38340750  0.60666150  1
  S  S52  1  0.61659250  0.10666150  0.16064350  1
  S  S53  1  0.33935650  0.61659250  0.89333850  1
  S  S54  1  0.38340750  0.60666150  0.33935650  1
  S  S55  1  0.38340750  0.39333850  0.16064350  1
  S  S56  1  0.39333850  0.66064350  0.61659250  1
  S  S57  1  0.10666150  0.66064350  0.38340750  1
  S  S58  1  0.89333850  0.83935650  0.38340750  1
  S  S59  1  0.83935650  0.61659250  0.60666150  1
  S  S60  1  0.61659250  0.60666150  0.83935650  1
  S  S61  1  0.61659250  0.39333850  0.66064350  1
  S  S62  1  0.66064350  0.38340750  0.10666150  1
  S  S63  1  0.38340750  0.89333850  0.83935650  1
  S  S64  1  0.66064350  0.61659250  0.39333850  1
  S  S65  1  0.38340750  0.10666150  0.66064350  1
  S  S66  1  0.83935650  0.38340750  0.89333850  1
  S  S67  1  0.60666150  0.83935650  0.61659250  1
  S  S68  1  0.10666150  0.83935650  0.88340750  1
  S  S69  1  0.39333850  0.83935650  0.11659250  1
  S  S70  1  0.60666150  0.66064350  0.11659250  1
  S  S71  1  0.66064350  0.88340750  0.89333850  1
  S  S72  1  0.89333850  0.66064350  0.88340750  1
  S  S73  1  0.66064350  0.11659250  0.60666150  1
  S  S74  1  0.11659250  0.39333850  0.83935650  1
  S  S75  1  0.83935650  0.88340750  0.10666150  1
  S  S76  1  0.11659250  0.60666150  0.66064350  1
  S  S77  1  0.83935650  0.11659250  0.39333850  1
  S  S78  1  0.88340750  0.10666150  0.83935650  1
  S  S79  1  0.88340750  0.89333850  0.66064350  1
