# generated using pymatgen
data_KBe2B3O7
_symmetry_space_group_name_H-M   'P 1'
_cell_length_a   7.57093600
_cell_length_b   13.41525300
_cell_length_c   9.43330728
_cell_angle_alpha   90.00000000
_cell_angle_beta   111.43277904
_cell_angle_gamma   90.00000000
_symmetry_Int_Tables_number   1
_chemical_formula_structural   KBe2B3O7
_chemical_formula_sum   'K6 Be12 B18 O42'
_cell_volume   891.84768338
_cell_formula_units_Z   6
loop_
 _symmetry_equiv_pos_site_id
 _symmetry_equiv_pos_as_xyz
  1  'x, y, z'
loop_
 _atom_site_type_symbol
 _atom_site_label
 _atom_site_symmetry_multiplicity
 _atom_site_fract_x
 _atom_site_fract_y
 _atom_site_fract_z
 _atom_site_occupancy
  K  K0  1  0.62994200  0.55833700  0.23319700  1
  K  K1  1  0.37005800  0.05833700  0.76680300  1
  K  K2  1  0.62088300  0.91127400  0.23376600  1
  K  K3  1  0.37911700  0.41127400  0.76623400  1
  K  K4  1  0.99810000  0.48287300  0.99451900  1
  K  K5  1  0.00190000  0.98287300  0.00548100  1
  Be  Be6  1  0.02498400  0.39601900  0.41413200  1
  Be  Be7  1  0.97501600  0.89601900  0.58586800  1
  Be  Be8  1  0.97011000  0.56300200  0.57635300  1
  Be  Be9  1  0.02989000  0.06300200  0.42364700  1
  Be  Be10  1  0.60390900  0.56377900  0.58372700  1
  Be  Be11  1  0.39609100  0.06377900  0.41627300  1
  Be  Be12  1  0.40118000  0.39552500  0.42351700  1
  Be  Be13  1  0.59882000  0.89552500  0.57648300  1
  Be  Be14  1  0.60131000  0.22812000  0.59092300  1
  Be  Be15  1  0.39869000  0.72812000  0.40907700  1
  Be  Be16  1  0.97345700  0.23062400  0.59011200  1
  Be  Be17  1  0.02654300  0.73062400  0.40988800  1
  B  B18  1  0.76449600  0.39575000  0.53576100  1
  B  B19  1  0.23550400  0.89575000  0.46423900  1
  B  B20  1  0.76401100  0.72885300  0.52557200  1
  B  B21  1  0.23598900  0.22885300  0.47442800  1
  B  B22  1  0.23269800  0.56453600  0.46050800  1
  B  B23  1  0.76730200  0.06453600  0.53949200  1
  B  B24  1  0.65420300  0.64425500  0.84784200  1
  B  B25  1  0.34579700  0.14425500  0.15215800  1
  B  B26  1  0.80870000  0.73763900  0.08703000  1
  B  B27  1  0.19130000  0.23763900  0.91297000  1
  B  B28  1  0.64359700  0.82336100  0.84249400  1
  B  B29  1  0.35640300  0.32336100  0.15750600  1
  B  B30  1  0.69016500  0.22877700  0.91273600  1
  B  B31  1  0.30983500  0.72877700  0.08726400  1
  B  B32  1  0.84540700  0.32297500  0.14968700  1
  B  B33  1  0.15459300  0.82297500  0.85031300  1
  B  B34  1  0.84440500  0.14140800  0.15716800  1
  B  B35  1  0.15559500  0.64140800  0.84283200  1
  O  O36  1  0.08134600  0.51231200  0.47405200  1
  O  O37  1  0.91865400  0.01231200  0.52594800  1
  O  O38  1  0.91347300  0.34512600  0.51814400  1
  O  O39  1  0.08652700  0.84512600  0.48185600  1
  O  O40  1  0.77880100  0.16530300  0.56915200  1
  O  O41  1  0.22119900  0.66530300  0.43084800  1
  O  O42  1  0.60500600  0.34593600  0.53651200  1
  O  O43  1  0.39499400  0.84593600  0.46348800  1
  O  O44  1  0.39874000  0.51209800  0.48372000  1
  O  O45  1  0.60126000  0.01209800  0.51628000  1
  O  O46  1  0.77155400  0.49906200  0.54805600  1
  O  O47  1  0.22844600  0.99906200  0.45194400  1
  O  O48  1  0.60217500  0.67731600  0.51620300  1
  O  O49  1  0.39782500  0.17731600  0.48379700  1
  O  O50  1  0.90714600  0.67567900  0.50202500  1
  O  O51  1  0.09285400  0.17567900  0.49797500  1
  O  O52  1  0.77293600  0.83170200  0.54682100  1
  O  O53  1  0.22706400  0.33170200  0.45317900  1
  O  O54  1  0.88869300  0.74077800  0.23623500  1
  O  O55  1  0.11130700  0.24077800  0.76376500  1
  O  O56  1  0.76698800  0.64620400  0.00570900  1
  O  O57  1  0.23301200  0.14620400  0.99429100  1
  O  O58  1  0.75513400  0.82672200  0.00034200  1
  O  O59  1  0.24486600  0.32672200  0.99965800  1
  O  O60  1  0.64410100  0.56194100  0.76526400  1
  O  O61  1  0.35589900  0.06194100  0.23473600  1
  O  O62  1  0.56120500  0.73215400  0.78487200  1
  O  O63  1  0.43879500  0.23215400  0.21512800  1
  O  O64  1  0.62470400  0.90363600  0.75429700  1
  O  O65  1  0.37529600  0.40363600  0.24570300  1
  O  O66  1  0.60360900  0.22569200  0.76300200  1
  O  O67  1  0.39639100  0.72569200  0.23699800  1
  O  O68  1  0.72952900  0.13935300  0.00022400  1
  O  O69  1  0.27047100  0.63935300  0.99977600  1
  O  O70  1  0.73387100  0.32122600  0.99217800  1
  O  O71  1  0.26612900  0.82122600  0.00782200  1
  O  O72  1  0.89206100  0.05937400  0.24344900  1
  O  O73  1  0.10793900  0.55937400  0.75655100  1
  O  O74  1  0.91739400  0.23302600  0.21654400  1
  O  O75  1  0.08260600  0.73302600  0.78345600  1
  O  O76  1  0.89200300  0.40667300  0.23227600  1
  O  O77  1  0.10799700  0.90667300  0.76772400  1
