# generated using pymatgen
data_AlF3
_symmetry_space_group_name_H-M   'P 1'
_cell_length_a   10.32658400
_cell_length_b   10.32658400
_cell_length_c   7.27578700
_cell_angle_alpha   90.00000000
_cell_angle_beta   90.00000000
_cell_angle_gamma   90.00000000
_symmetry_Int_Tables_number   1
_chemical_formula_structural   AlF3
_chemical_formula_sum   'Al16 F48'
_cell_volume   775.87782684
_cell_formula_units_Z   16
loop_
 _symmetry_equiv_pos_site_id
 _symmetry_equiv_pos_as_xyz
  1  'x, y, z'
loop_
 _atom_site_type_symbol
 _atom_site_label
 _atom_site_symmetry_multiplicity
 _atom_site_fract_x
 _atom_site_fract_y
 _atom_site_fract_z
 _atom_site_occupancy
  Al  Al0  1  0.33644400  0.50000000  0.67159700  1
  Al  Al1  1  0.66355600  0.50000000  0.67159700  1
  Al  Al2  1  0.00000000  0.16355600  0.67159700  1
  Al  Al3  1  0.00000000  0.83644400  0.67159700  1
  Al  Al4  1  0.50000000  0.33644400  0.32840300  1
  Al  Al5  1  0.16355600  0.00000000  0.32840300  1
  Al  Al6  1  0.83644400  0.00000000  0.32840300  1
  Al  Al7  1  0.50000000  0.66355600  0.32840300  1
  Al  Al8  1  0.00000000  0.50000000  0.58773400  1
  Al  Al9  1  0.50000000  0.00000000  0.41226600  1
  Al  Al10  1  0.00000000  0.50000000  0.09069900  1
  Al  Al11  1  0.50000000  0.00000000  0.90930100  1
  Al  Al12  1  0.75000000  0.25000000  0.00000000  1
  Al  Al13  1  0.25000000  0.25000000  0.00000000  1
  Al  Al14  1  0.75000000  0.75000000  0.00000000  1
  Al  Al15  1  0.25000000  0.75000000  0.00000000  1
  F  F16  1  0.50000000  0.50000000  0.75506300  1
  F  F17  1  0.00000000  0.00000000  0.75506300  1
  F  F18  1  0.00000000  0.00000000  0.24493700  1
  F  F19  1  0.50000000  0.50000000  0.24493700  1
  F  F20  1  0.87656800  0.12343200  0.50000000  1
  F  F21  1  0.37656800  0.37656800  0.50000000  1
  F  F22  1  0.62343200  0.62343200  0.50000000  1
  F  F23  1  0.12343200  0.87656800  0.50000000  1
  F  F24  1  0.62343200  0.37656800  0.50000000  1
  F  F25  1  0.12343200  0.12343200  0.50000000  1
  F  F26  1  0.87656800  0.87656800  0.50000000  1
  F  F27  1  0.37656800  0.62343200  0.50000000  1
  F  F28  1  0.17359400  0.50000000  0.58919500  1
  F  F29  1  0.82640600  0.50000000  0.58919500  1
  F  F30  1  0.00000000  0.32640600  0.58919500  1
  F  F31  1  0.50000000  0.17359400  0.41080500  1
  F  F32  1  0.00000000  0.67359400  0.58919500  1
  F  F33  1  0.62874900  0.87125100  0.90925400  1
  F  F34  1  0.37125100  0.12874900  0.90925400  1
  F  F35  1  0.62874900  0.12874900  0.90925400  1
  F  F36  1  0.87125100  0.62874900  0.09074600  1
  F  F37  1  0.12874900  0.37125100  0.09074600  1
  F  F38  1  0.87125100  0.37125100  0.09074600  1
  F  F39  1  0.12874900  0.62874900  0.09074600  1
  F  F40  1  0.37221100  0.69806300  0.16298700  1
  F  F41  1  0.80193700  0.87221100  0.16298700  1
  F  F42  1  0.19806300  0.12778900  0.16298700  1
  F  F43  1  0.62778900  0.30193700  0.16298700  1
  F  F44  1  0.87221100  0.80193700  0.83701300  1
  F  F45  1  0.12778900  0.19806300  0.83701300  1
  F  F46  1  0.69806300  0.37221100  0.83701300  1
  F  F47  1  0.30193700  0.62778900  0.83701300  1
  F  F48  1  0.12778900  0.80193700  0.83701300  1
  F  F49  1  0.69806300  0.62778900  0.83701300  1
  F  F50  1  0.30193700  0.37221100  0.83701300  1
  F  F51  1  0.87221100  0.19806300  0.83701300  1
  F  F52  1  0.62778900  0.69806300  0.16298700  1
  F  F53  1  0.37221100  0.30193700  0.16298700  1
  F  F54  1  0.80193700  0.12778900  0.16298700  1
  F  F55  1  0.19806300  0.87221100  0.16298700  1
  F  F56  1  0.50000000  0.00000000  0.15861300  1
  F  F57  1  0.00000000  0.50000000  0.84138700  1
  F  F58  1  0.50000000  0.00000000  0.66211000  1
  F  F59  1  0.00000000  0.50000000  0.33789000  1
  F  F60  1  0.50000000  0.82640600  0.41080500  1
  F  F61  1  0.67359400  0.00000000  0.41080500  1
  F  F62  1  0.32640600  0.00000000  0.41080500  1
  F  F63  1  0.37125100  0.87125100  0.90925400  1
