# generated using pymatgen
data_RbSbO2
_symmetry_space_group_name_H-M   'P 1'
_cell_length_a   8.11925400
_cell_length_b   9.39809400
_cell_length_c   5.67690963
_cell_angle_alpha   90.00000000
_cell_angle_beta   123.77362465
_cell_angle_gamma   90.00000000
_symmetry_Int_Tables_number   1
_chemical_formula_structural   RbSbO2
_chemical_formula_sum   'Rb4 Sb4 O8'
_cell_volume   360.07632697
_cell_formula_units_Z   4
loop_
 _symmetry_equiv_pos_site_id
 _symmetry_equiv_pos_as_xyz
  1  'x, y, z'
loop_
 _atom_site_type_symbol
 _atom_site_label
 _atom_site_symmetry_multiplicity
 _atom_site_fract_x
 _atom_site_fract_y
 _atom_site_fract_z
 _atom_site_occupancy
  Rb  Rb0  1  0.50000000  0.85715900  0.25000000  1
  Rb  Rb1  1  0.50000000  0.14284100  0.75000000  1
  Rb  Rb2  1  0.00000000  0.35715900  0.25000000  1
  Rb  Rb3  1  0.00000000  0.64284100  0.75000000  1
  Sb  Sb4  1  0.50000000  0.58485200  0.75000000  1
  Sb  Sb5  1  0.50000000  0.41514800  0.25000000  1
  Sb  Sb6  1  0.00000000  0.08485200  0.75000000  1
  Sb  Sb7  1  0.00000000  0.91514800  0.25000000  1
  O  O8  1  0.17719350  0.04704950  0.21243700  1
  O  O9  1  0.82280650  0.04704950  0.28756300  1
  O  O10  1  0.17719350  0.95295050  0.71243700  1
  O  O11  1  0.82280650  0.95295050  0.78756300  1
  O  O12  1  0.67719350  0.54704950  0.21243700  1
  O  O13  1  0.32280650  0.54704950  0.28756300  1
  O  O14  1  0.67719350  0.45295050  0.71243700  1
  O  O15  1  0.32280650  0.45295050  0.78756300  1
