# generated using pymatgen
data_GeC
_symmetry_space_group_name_H-M   'P 1'
_cell_length_a   4.60415400
_cell_length_b   4.60415400
_cell_length_c   4.60415400
_cell_angle_alpha   90.00000000
_cell_angle_beta   90.00000000
_cell_angle_gamma   90.00000000
_symmetry_Int_Tables_number   1
_chemical_formula_structural   GeC
_chemical_formula_sum   'Ge4 C4'
_cell_volume   97.59993412
_cell_formula_units_Z   4
loop_
 _symmetry_equiv_pos_site_id
 _symmetry_equiv_pos_as_xyz
  1  'x, y, z'
loop_
 _atom_site_type_symbol
 _atom_site_label
 _atom_site_symmetry_multiplicity
 _atom_site_fract_x
 _atom_site_fract_y
 _atom_site_fract_z
 _atom_site_occupancy
  Ge  Ge0  1  0.00000000  0.00000000  0.00000000  1
  Ge  Ge1  1  0.00000000  0.50000000  0.50000000  1
  Ge  Ge2  1  0.50000000  0.00000000  0.50000000  1
  Ge  Ge3  1  0.50000000  0.50000000  0.00000000  1
  C  C4  1  0.25000000  0.25000000  0.75000000  1
  C  C5  1  0.25000000  0.75000000  0.25000000  1
  C  C6  1  0.75000000  0.25000000  0.25000000  1
  C  C7  1  0.75000000  0.75000000  0.75000000  1
