# generated using pymatgen
data_NaPN2
_symmetry_space_group_name_H-M   'P 1'
_cell_length_a   4.99480200
_cell_length_b   4.99480200
_cell_length_c   7.07494600
_cell_angle_alpha   90.00000000
_cell_angle_beta   90.00000000
_cell_angle_gamma   90.00000000
_symmetry_Int_Tables_number   1
_chemical_formula_structural   NaPN2
_chemical_formula_sum   'Na4 P4 N8'
_cell_volume   176.50608547
_cell_formula_units_Z   4
loop_
 _symmetry_equiv_pos_site_id
 _symmetry_equiv_pos_as_xyz
  1  'x, y, z'
loop_
 _atom_site_type_symbol
 _atom_site_label
 _atom_site_symmetry_multiplicity
 _atom_site_fract_x
 _atom_site_fract_y
 _atom_site_fract_z
 _atom_site_occupancy
  Na  Na0  1  0.50000000  0.00000000  0.25000000  1
  Na  Na1  1  0.00000000  0.00000000  0.50000000  1
  Na  Na2  1  0.00000000  0.50000000  0.75000000  1
  Na  Na3  1  0.50000000  0.50000000  0.00000000  1
  P  P4  1  0.50000000  0.50000000  0.50000000  1
  P  P5  1  0.00000000  0.50000000  0.25000000  1
  P  P6  1  0.00000000  0.00000000  0.00000000  1
  P  P7  1  0.50000000  0.00000000  0.75000000  1
  N  N8  1  0.25000000  0.37594700  0.37500000  1
  N  N9  1  0.37594700  0.75000000  0.62500000  1
  N  N10  1  0.75000000  0.62405300  0.37500000  1
  N  N11  1  0.62405300  0.25000000  0.62500000  1
  N  N12  1  0.75000000  0.87594700  0.87500000  1
  N  N13  1  0.87594700  0.25000000  0.12500000  1
  N  N14  1  0.25000000  0.12405300  0.87500000  1
  N  N15  1  0.12405300  0.75000000  0.12500000  1
