# generated using pymatgen
data_NaV2O5
_symmetry_space_group_name_H-M   'P 1'
_cell_length_a   3.64389114
_cell_length_b   5.01135500
_cell_length_c   11.50250076
_cell_angle_alpha   90.00000000
_cell_angle_beta   90.00000000
_cell_angle_gamma   90.00000000
_symmetry_Int_Tables_number   1
_chemical_formula_structural   NaV2O5
_chemical_formula_sum   'Na2 V4 O10'
_cell_volume   210.04523492
_cell_formula_units_Z   2
loop_
 _symmetry_equiv_pos_site_id
 _symmetry_equiv_pos_as_xyz
  1  'x, y, z'
loop_
 _atom_site_type_symbol
 _atom_site_label
 _atom_site_symmetry_multiplicity
 _atom_site_fract_x
 _atom_site_fract_y
 _atom_site_fract_z
 _atom_site_occupancy
  Na  Na0  1  0.00000000  0.37566081  0.00000000  1
  Na  Na1  1  0.50000000  0.62433918  0.50000000  1
  V  V2  1  0.00000000  0.09961624  0.34997627  1
  V  V3  1  0.50000000  0.90038376  0.15002373  1
  V  V4  1  0.00000000  0.09961624  0.65002373  1
  V  V5  1  0.50000000  0.90038376  0.84997627  1
  O  O6  1  0.50000000  0.57427306  0.13065325  1
  O  O7  1  0.00000000  0.01859363  0.82096888  1
  O  O8  1  0.50000000  0.98140637  0.32096888  1
  O  O9  1  0.00000000  0.01859363  0.17903112  1
  O  O10  1  0.50000000  0.03050120  0.00000000  1
  O  O11  1  0.00000000  0.42572694  0.36934675  1
  O  O12  1  0.50000000  0.57427306  0.86934675  1
  O  O13  1  0.00000000  0.42572694  0.63065325  1
  O  O14  1  0.50000000  0.98140637  0.67903112  1
  O  O15  1  0.00000000  0.96949880  0.50000000  1
