# generated using pymatgen
data_BaCaP2O7
_symmetry_space_group_name_H-M   'P 1'
_cell_length_a   9.66250000
_cell_length_b   10.74102400
_cell_length_c   12.23308721
_cell_angle_alpha   90.00000000
_cell_angle_beta   94.80179379
_cell_angle_gamma   90.00000000
_symmetry_Int_Tables_number   1
_chemical_formula_structural   BaCaP2O7
_chemical_formula_sum   'Ba8 Ca8 P16 O56'
_cell_volume   1265.15668558
_cell_formula_units_Z   8
loop_
 _symmetry_equiv_pos_site_id
 _symmetry_equiv_pos_as_xyz
  1  'x, y, z'
loop_
 _atom_site_type_symbol
 _atom_site_label
 _atom_site_symmetry_multiplicity
 _atom_site_fract_x
 _atom_site_fract_y
 _atom_site_fract_z
 _atom_site_occupancy
  Ba  Ba0  1  0.59159300  0.80717900  0.65667300  1
  Ba  Ba1  1  0.90840700  0.30717900  0.34332700  1
  Ba  Ba2  1  0.40840700  0.19282100  0.34332700  1
  Ba  Ba3  1  0.09159300  0.69282100  0.65667300  1
  Ba  Ba4  1  0.77647200  0.51438700  0.91593300  1
  Ba  Ba5  1  0.72352800  0.01438700  0.08406700  1
  Ba  Ba6  1  0.22352800  0.48561300  0.08406700  1
  Ba  Ba7  1  0.27647200  0.98561300  0.91593300  1
  Ca  Ca8  1  0.67226100  0.15294400  0.78223400  1
  Ca  Ca9  1  0.82773900  0.65294400  0.21776600  1
  Ca  Ca10  1  0.32773900  0.84705600  0.21776600  1
  Ca  Ca11  1  0.17226100  0.34705600  0.78223400  1
  Ca  Ca12  1  0.48971800  0.57678100  0.34786500  1
  Ca  Ca13  1  0.01028200  0.07678100  0.65213500  1
  Ca  Ca14  1  0.51028200  0.42321900  0.65213500  1
  Ca  Ca15  1  0.98971800  0.92321900  0.34786500  1
  P  P16  1  0.74430500  0.09192700  0.49735900  1
  P  P17  1  0.75569500  0.59192700  0.50264100  1
  P  P18  1  0.25569500  0.90807300  0.50264100  1
  P  P19  1  0.24430500  0.40807300  0.49735900  1
  P  P20  1  0.61709000  0.89540500  0.34349200  1
  P  P21  1  0.88291000  0.39540500  0.65650800  1
  P  P22  1  0.38291000  0.10459500  0.65650800  1
  P  P23  1  0.11709000  0.60459500  0.34349200  1
  P  P24  1  0.88693700  0.86155600  0.84127400  1
  P  P25  1  0.61306300  0.36155600  0.15872600  1
  P  P26  1  0.11306300  0.13844400  0.15872600  1
  P  P27  1  0.38693700  0.63844400  0.84127400  1
  P  P28  1  0.02845900  0.77140400  0.06093500  1
  P  P29  1  0.47154100  0.27140400  0.93906500  1
  P  P30  1  0.97154100  0.22859600  0.93906500  1
  P  P31  1  0.52845900  0.72859600  0.06093500  1
  O  O32  1  0.67228200  0.20741000  0.44958300  1
  O  O33  1  0.82771800  0.70741000  0.55041700  1
  O  O34  1  0.32771800  0.79259000  0.55041700  1
  O  O35  1  0.17228200  0.29259000  0.44958300  1
  O  O36  1  0.75785700  0.07469300  0.62255900  1
  O  O37  1  0.74214300  0.57469300  0.37744100  1
  O  O38  1  0.24214300  0.92530700  0.37744100  1
  O  O39  1  0.25785700  0.42530700  0.62255900  1
  O  O40  1  0.88858900  0.07496900  0.45415700  1
  O  O41  1  0.61141100  0.57496900  0.54584300  1
  O  O42  1  0.11141100  0.92503100  0.54584300  1
  O  O43  1  0.38858900  0.42503100  0.45415700  1
  O  O44  1  0.65014300  0.96957300  0.45969500  1
  O  O45  1  0.84985700  0.46957300  0.54030500  1
  O  O46  1  0.34985700  0.03042700  0.54030500  1
  O  O47  1  0.15014300  0.53042700  0.45969500  1
  O  O48  1  0.53242600  0.78575900  0.37844000  1
  O  O49  1  0.96757400  0.28575900  0.62156000  1
  O  O50  1  0.46757400  0.21424100  0.62156000  1
  O  O51  1  0.03242600  0.71424100  0.37844000  1
  O  O52  1  0.75564700  0.86398500  0.29632000  1
  O  O53  1  0.74435300  0.36398500  0.70368000  1
  O  O54  1  0.24435300  0.13601500  0.70368000  1
  O  O55  1  0.25564700  0.63601500  0.29632000  1
  O  O56  1  0.52980000  0.98196000  0.26501300  1
  O  O57  1  0.97020000  0.48196000  0.73498700  1
  O  O58  1  0.47020000  0.01804000  0.73498700  1
  O  O59  1  0.02980000  0.51804000  0.26501300  1
  O  O60  1  0.00905200  0.90218600  0.77520100  1
  O  O61  1  0.49094800  0.40218600  0.22479900  1
  O  O62  1  0.99094800  0.09781400  0.22479900  1
  O  O63  1  0.50905200  0.59781400  0.77520100  1
  O  O64  1  0.83783200  0.73049400  0.80944400  1
  O  O65  1  0.66216800  0.23049400  0.19055600  1
  O  O66  1  0.16216800  0.26950600  0.19055600  1
  O  O67  1  0.33783200  0.76950600  0.80944400  1
  O  O68  1  0.76721100  0.95508500  0.84042800  1
  O  O69  1  0.73278900  0.45508500  0.15957200  1
  O  O70  1  0.23278900  0.04491500  0.15957200  1
  O  O71  1  0.26721100  0.54491500  0.84042800  1
  O  O72  1  0.95093300  0.86452000  0.96976500  1
  O  O73  1  0.54906700  0.36452000  0.03023500  1
  O  O74  1  0.04906700  0.13548000  0.03023500  1
  O  O75  1  0.45093300  0.63548000  0.96976500  1
  O  O76  1  0.18513400  0.78480400  0.05365600  1
  O  O77  1  0.31486600  0.28480400  0.94634400  1
  O  O78  1  0.81486600  0.21519600  0.94634400  1
  O  O79  1  0.68513400  0.71519600  0.05365600  1
  O  O80  1  0.97881600  0.82239300  0.16803100  1
  O  O81  1  0.52118400  0.32239300  0.83196900  1
  O  O82  1  0.02118400  0.17760700  0.83196900  1
  O  O83  1  0.47881600  0.67760700  0.16803100  1
  O  O84  1  0.97861900  0.63722500  0.04078700  1
  O  O85  1  0.52138100  0.13722500  0.95921300  1
  O  O86  1  0.02138100  0.36277500  0.95921300  1
  O  O87  1  0.47861900  0.86277500  0.04078700  1
