# generated using pymatgen
data_ScVO4
_symmetry_space_group_name_H-M   'P 1'
_cell_length_a   6.86405200
_cell_length_b   6.86405200
_cell_length_c   6.16950800
_cell_angle_alpha   90.00000000
_cell_angle_beta   90.00000000
_cell_angle_gamma   90.00000000
_symmetry_Int_Tables_number   1
_chemical_formula_structural   ScVO4
_chemical_formula_sum   'Sc4 V4 O16'
_cell_volume   290.67766414
_cell_formula_units_Z   4
loop_
 _symmetry_equiv_pos_site_id
 _symmetry_equiv_pos_as_xyz
  1  'x, y, z'
loop_
 _atom_site_type_symbol
 _atom_site_label
 _atom_site_symmetry_multiplicity
 _atom_site_fract_x
 _atom_site_fract_y
 _atom_site_fract_z
 _atom_site_occupancy
  Sc  Sc0  1  0.50000000  0.50000000  0.50000000  1
  Sc  Sc1  1  0.50000000  0.00000000  0.25000000  1
  Sc  Sc2  1  0.00000000  0.00000000  0.00000000  1
  Sc  Sc3  1  0.00000000  0.50000000  0.75000000  1
  V  V4  1  0.50000000  0.00000000  0.75000000  1
  V  V5  1  0.00000000  0.00000000  0.50000000  1
  V  V6  1  0.00000000  0.50000000  0.25000000  1
  V  V7  1  0.50000000  0.50000000  0.00000000  1
  O  O8  1  0.69340300  0.00000000  0.93043600  1
  O  O9  1  0.00000000  0.19340300  0.68043600  1
  O  O10  1  0.00000000  0.80659700  0.68043600  1
  O  O11  1  0.80659700  0.50000000  0.43043600  1
  O  O12  1  0.80659700  0.00000000  0.31956400  1
  O  O13  1  0.00000000  0.30659700  0.06956400  1
  O  O14  1  0.50000000  0.19340300  0.56956400  1
  O  O15  1  0.19340300  0.00000000  0.31956400  1
  O  O16  1  0.19340300  0.50000000  0.43043600  1
  O  O17  1  0.50000000  0.69340300  0.18043600  1
  O  O18  1  0.50000000  0.30659700  0.18043600  1
  O  O19  1  0.30659700  0.00000000  0.93043600  1
  O  O20  1  0.30659700  0.50000000  0.81956400  1
  O  O21  1  0.50000000  0.80659700  0.56956400  1
  O  O22  1  0.00000000  0.69340300  0.06956400  1
  O  O23  1  0.69340300  0.50000000  0.81956400  1
