# generated using pymatgen
data_Y2MgSe4
_symmetry_space_group_name_H-M   'P 1'
_cell_length_a   11.70395600
_cell_length_b   11.70395600
_cell_length_c   11.70395600
_cell_angle_alpha   90.00000000
_cell_angle_beta   90.00000000
_cell_angle_gamma   90.00000000
_symmetry_Int_Tables_number   1
_chemical_formula_structural   Y2MgSe4
_chemical_formula_sum   'Y16 Mg8 Se32'
_cell_volume   1603.23815989
_cell_formula_units_Z   8
loop_
 _symmetry_equiv_pos_site_id
 _symmetry_equiv_pos_as_xyz
  1  'x, y, z'
loop_
 _atom_site_type_symbol
 _atom_site_label
 _atom_site_symmetry_multiplicity
 _atom_site_fract_x
 _atom_site_fract_y
 _atom_site_fract_z
 _atom_site_occupancy
  Y  Y0  1  0.37500000  0.12500000  0.37500000  1
  Y  Y1  1  0.12500000  0.12500000  0.12500000  1
  Y  Y2  1  0.62500000  0.87500000  0.37500000  1
  Y  Y3  1  0.87500000  0.87500000  0.12500000  1
  Y  Y4  1  0.37500000  0.62500000  0.87500000  1
  Y  Y5  1  0.12500000  0.62500000  0.62500000  1
  Y  Y6  1  0.62500000  0.37500000  0.87500000  1
  Y  Y7  1  0.87500000  0.37500000  0.62500000  1
  Y  Y8  1  0.87500000  0.12500000  0.87500000  1
  Y  Y9  1  0.62500000  0.12500000  0.62500000  1
  Y  Y10  1  0.12500000  0.87500000  0.87500000  1
  Y  Y11  1  0.37500000  0.87500000  0.62500000  1
  Y  Y12  1  0.87500000  0.62500000  0.37500000  1
  Y  Y13  1  0.62500000  0.62500000  0.12500000  1
  Y  Y14  1  0.12500000  0.37500000  0.37500000  1
  Y  Y15  1  0.37500000  0.37500000  0.12500000  1
  Mg  Mg16  1  0.25000000  0.75000000  0.25000000  1
  Mg  Mg17  1  0.00000000  0.00000000  0.50000000  1
  Mg  Mg18  1  0.25000000  0.25000000  0.75000000  1
  Mg  Mg19  1  0.00000000  0.50000000  0.00000000  1
  Mg  Mg20  1  0.75000000  0.75000000  0.75000000  1
  Mg  Mg21  1  0.50000000  0.00000000  0.00000000  1
  Mg  Mg22  1  0.75000000  0.25000000  0.25000000  1
  Mg  Mg23  1  0.50000000  0.50000000  0.50000000  1
  Se  Se24  1  0.12948933  0.12948933  0.37051067  1
  Se  Se25  1  0.12051067  0.87948933  0.12051067  1
  Se  Se26  1  0.62051067  0.12051067  0.37948933  1
  Se  Se27  1  0.37051067  0.37051067  0.37051067  1
  Se  Se28  1  0.12948933  0.37051067  0.12948933  1
  Se  Se29  1  0.87948933  0.12051067  0.12051067  1
  Se  Se30  1  0.37948933  0.87948933  0.37948933  1
  Se  Se31  1  0.37051067  0.12948933  0.12948933  1
  Se  Se32  1  0.12948933  0.62948933  0.87051067  1
  Se  Se33  1  0.12051067  0.37948933  0.62051067  1
  Se  Se34  1  0.62051067  0.62051067  0.87948933  1
  Se  Se35  1  0.37051067  0.87051067  0.87051067  1
  Se  Se36  1  0.12948933  0.87051067  0.62948933  1
  Se  Se37  1  0.87948933  0.62051067  0.62051067  1
  Se  Se38  1  0.37948933  0.37948933  0.87948933  1
  Se  Se39  1  0.37051067  0.62948933  0.62948933  1
  Se  Se40  1  0.62948933  0.12948933  0.87051067  1
  Se  Se41  1  0.62051067  0.87948933  0.62051067  1
  Se  Se42  1  0.12051067  0.12051067  0.87948933  1
  Se  Se43  1  0.87051067  0.37051067  0.87051067  1
  Se  Se44  1  0.62948933  0.37051067  0.62948933  1
  Se  Se45  1  0.37948933  0.12051067  0.62051067  1
  Se  Se46  1  0.87948933  0.87948933  0.87948933  1
  Se  Se47  1  0.87051067  0.12948933  0.62948933  1
  Se  Se48  1  0.62948933  0.62948933  0.37051067  1
  Se  Se49  1  0.62051067  0.37948933  0.12051067  1
  Se  Se50  1  0.12051067  0.62051067  0.37948933  1
  Se  Se51  1  0.87051067  0.87051067  0.37051067  1
  Se  Se52  1  0.62948933  0.87051067  0.12948933  1
  Se  Se53  1  0.37948933  0.62051067  0.12051067  1
  Se  Se54  1  0.87948933  0.37948933  0.37948933  1
  Se  Se55  1  0.87051067  0.62948933  0.12948933  1
