# generated using pymatgen
data_TiO2
_symmetry_space_group_name_H-M   'P 1'
_cell_length_a   5.18107500
_cell_length_b   5.51182400
_cell_length_c   9.27393500
_cell_angle_alpha   90.00000000
_cell_angle_beta   90.00000000
_cell_angle_gamma   90.00000000
_symmetry_Int_Tables_number   1
_chemical_formula_structural   TiO2
_chemical_formula_sum   'Ti8 O16'
_cell_volume   264.83737111
_cell_formula_units_Z   8
loop_
 _symmetry_equiv_pos_site_id
 _symmetry_equiv_pos_as_xyz
  1  'x, y, z'
loop_
 _atom_site_type_symbol
 _atom_site_label
 _atom_site_symmetry_multiplicity
 _atom_site_fract_x
 _atom_site_fract_y
 _atom_site_fract_z
 _atom_site_occupancy
  Ti  Ti0  1  0.13814600  0.40726500  0.62898700  1
  Ti  Ti1  1  0.63814600  0.59273500  0.87101300  1
  Ti  Ti2  1  0.36185400  0.90726500  0.37101300  1
  Ti  Ti3  1  0.86185400  0.09273500  0.12898700  1
  Ti  Ti4  1  0.86185400  0.59273500  0.37101300  1
  Ti  Ti5  1  0.36185400  0.40726500  0.12898700  1
  Ti  Ti6  1  0.63814600  0.09273500  0.62898700  1
  Ti  Ti7  1  0.13814600  0.90726500  0.87101300  1
  O  O8  1  0.46431500  0.39186200  0.72972700  1
  O  O9  1  0.96431500  0.60813800  0.77027300  1
  O  O10  1  0.03568500  0.89186200  0.27027300  1
  O  O11  1  0.53568500  0.10813800  0.22972700  1
  O  O12  1  0.53568500  0.60813800  0.27027300  1
  O  O13  1  0.03568500  0.39186200  0.22972700  1
  O  O14  1  0.96431500  0.10813800  0.72972700  1
  O  O15  1  0.46431500  0.89186200  0.77027300  1
  O  O16  1  0.81656600  0.85167800  0.98969300  1
  O  O17  1  0.31656600  0.14832200  0.51030700  1
  O  O18  1  0.68343400  0.35167800  0.01030700  1
  O  O19  1  0.18343400  0.64832200  0.48969300  1
  O  O20  1  0.18343400  0.14832200  0.01030700  1
  O  O21  1  0.68343400  0.85167800  0.48969300  1
  O  O22  1  0.31656600  0.64832200  0.98969300  1
  O  O23  1  0.81656600  0.35167800  0.51030700  1
