# generated using pymatgen
data_LiGe2N3
_symmetry_space_group_name_H-M   'P 1'
_cell_length_a   5.57622400
_cell_length_b   9.62844400
_cell_length_c   5.10168200
_cell_angle_alpha   90.00000000
_cell_angle_beta   90.00000000
_cell_angle_gamma   90.00000000
_symmetry_Int_Tables_number   1
_chemical_formula_structural   LiGe2N3
_chemical_formula_sum   'Li4 Ge8 N12'
_cell_volume   273.91114582
_cell_formula_units_Z   4
loop_
 _symmetry_equiv_pos_site_id
 _symmetry_equiv_pos_as_xyz
  1  'x, y, z'
loop_
 _atom_site_type_symbol
 _atom_site_label
 _atom_site_symmetry_multiplicity
 _atom_site_fract_x
 _atom_site_fract_y
 _atom_site_fract_z
 _atom_site_occupancy
  Li  Li0  1  0.65850600  0.00000000  0.48832100  1
  Li  Li1  1  0.34149400  0.00000000  0.98832100  1
  Li  Li2  1  0.15850600  0.50000000  0.48832100  1
  Li  Li3  1  0.84149400  0.50000000  0.98832100  1
  Ge  Ge4  1  0.16660900  0.16332300  0.49265500  1
  Ge  Ge5  1  0.16660900  0.83667700  0.49265500  1
  Ge  Ge6  1  0.83339100  0.83667700  0.99265500  1
  Ge  Ge7  1  0.83339100  0.16332300  0.99265500  1
  Ge  Ge8  1  0.66660900  0.66332300  0.49265500  1
  Ge  Ge9  1  0.66660900  0.33667700  0.49265500  1
  Ge  Ge10  1  0.33339100  0.33667700  0.99265500  1
  Ge  Ge11  1  0.33339100  0.66332300  0.99265500  1
  N  N12  1  0.64851150  0.68707050  0.86136300  1
  N  N13  1  0.64851150  0.31292950  0.86136300  1
  N  N14  1  0.35148850  0.31292950  0.36136300  1
  N  N15  1  0.35148850  0.68707050  0.36136300  1
  N  N16  1  0.70150900  0.00000000  0.89164600  1
  N  N17  1  0.29849100  0.00000000  0.39164600  1
  N  N18  1  0.14851150  0.18707050  0.86136300  1
  N  N19  1  0.14851150  0.81292950  0.86136300  1
  N  N20  1  0.85148850  0.81292950  0.36136300  1
  N  N21  1  0.85148850  0.18707050  0.36136300  1
  N  N22  1  0.20150900  0.50000000  0.89164600  1
  N  N23  1  0.79849100  0.50000000  0.39164600  1
