# generated using pymatgen
data_SrGeO3
_symmetry_space_group_name_H-M   'P 1'
_cell_length_a   12.73104000
_cell_length_b   7.37093400
_cell_length_c   11.37107622
_cell_angle_alpha   90.00000000
_cell_angle_beta   111.41835419
_cell_angle_gamma   90.00000000
_symmetry_Int_Tables_number   1
_chemical_formula_structural   SrGeO3
_chemical_formula_sum   'Sr12 Ge12 O36'
_cell_volume   993.36566785
_cell_formula_units_Z   12
loop_
 _symmetry_equiv_pos_site_id
 _symmetry_equiv_pos_as_xyz
  1  'x, y, z'
loop_
 _atom_site_type_symbol
 _atom_site_label
 _atom_site_symmetry_multiplicity
 _atom_site_fract_x
 _atom_site_fract_y
 _atom_site_fract_z
 _atom_site_occupancy
  Sr  Sr0  1  0.75000000  0.25000000  0.50000000  1
  Sr  Sr1  1  0.75000000  0.75000000  0.00000000  1
  Sr  Sr2  1  0.58635050  0.25782650  0.99931700  1
  Sr  Sr3  1  0.41364950  0.25782650  0.50068300  1
  Sr  Sr4  1  0.41364950  0.74217350  0.00068300  1
  Sr  Sr5  1  0.58635050  0.74217350  0.49931700  1
  Sr  Sr6  1  0.25000000  0.75000000  0.50000000  1
  Sr  Sr7  1  0.25000000  0.25000000  0.00000000  1
  Sr  Sr8  1  0.08635050  0.75782650  0.99931700  1
  Sr  Sr9  1  0.91364950  0.75782650  0.50068300  1
  Sr  Sr10  1  0.91364950  0.24217350  0.00068300  1
  Sr  Sr11  1  0.08635050  0.24217350  0.49931700  1
  Ge  Ge12  1  0.50000000  0.65733700  0.75000000  1
  Ge  Ge13  1  0.50000000  0.34266300  0.25000000  1
  Ge  Ge14  1  0.62935200  0.04754900  0.74632500  1
  Ge  Ge15  1  0.37064800  0.04754900  0.75367500  1
  Ge  Ge16  1  0.37064800  0.95245100  0.25367500  1
  Ge  Ge17  1  0.62935200  0.95245100  0.24632500  1
  Ge  Ge18  1  0.00000000  0.15733700  0.75000000  1
  Ge  Ge19  1  0.00000000  0.84266300  0.25000000  1
  Ge  Ge20  1  0.12935200  0.54754900  0.74632500  1
  Ge  Ge21  1  0.87064800  0.54754900  0.75367500  1
  Ge  Ge22  1  0.87064800  0.45245100  0.25367500  1
  Ge  Ge23  1  0.12935200  0.45245100  0.24632500  1
  O  O24  1  0.50000000  0.15107100  0.75000000  1
  O  O25  1  0.50000000  0.84892900  0.25000000  1
  O  O26  1  0.55068250  0.56211450  0.89923000  1
  O  O27  1  0.44931750  0.56211450  0.60077000  1
  O  O28  1  0.44931750  0.43788550  0.10077000  1
  O  O29  1  0.55068250  0.43788550  0.39923000  1
  O  O30  1  0.61663550  0.80064050  0.74849700  1
  O  O31  1  0.38336450  0.80064050  0.75150300  1
  O  O32  1  0.38336450  0.19935950  0.25150300  1
  O  O33  1  0.61663550  0.19935950  0.24849700  1
  O  O34  1  0.72714350  0.09586950  0.89490400  1
  O  O35  1  0.27285650  0.09586950  0.60509600  1
  O  O36  1  0.62526250  0.90643750  0.09516100  1
  O  O37  1  0.37473750  0.90643750  0.40483900  1
  O  O38  1  0.37473750  0.09356250  0.90483900  1
  O  O39  1  0.62526250  0.09356250  0.59516100  1
  O  O40  1  0.72714350  0.90413050  0.39490400  1
  O  O41  1  0.27285650  0.90413050  0.10509600  1
  O  O42  1  0.00000000  0.65107100  0.75000000  1
  O  O43  1  0.00000000  0.34892900  0.25000000  1
  O  O44  1  0.05068250  0.06211450  0.89923000  1
  O  O45  1  0.94931750  0.06211450  0.60077000  1
  O  O46  1  0.94931750  0.93788550  0.10077000  1
  O  O47  1  0.05068250  0.93788550  0.39923000  1
  O  O48  1  0.11663550  0.30064050  0.74849700  1
  O  O49  1  0.88336450  0.30064050  0.75150300  1
  O  O50  1  0.88336450  0.69935950  0.25150300  1
  O  O51  1  0.11663550  0.69935950  0.24849700  1
  O  O52  1  0.22714350  0.59586950  0.89490400  1
  O  O53  1  0.77285650  0.59586950  0.60509600  1
  O  O54  1  0.12526250  0.40643750  0.09516100  1
  O  O55  1  0.87473750  0.40643750  0.40483900  1
  O  O56  1  0.87473750  0.59356250  0.90483900  1
  O  O57  1  0.12526250  0.59356250  0.59516100  1
  O  O58  1  0.22714350  0.40413050  0.39490400  1
  O  O59  1  0.77285650  0.40413050  0.10509600  1
