# generated using pymatgen
data_KEr2CuSe4
_symmetry_space_group_name_H-M   'P 1'
_cell_length_a   4.08845000
_cell_length_b   13.98688400
_cell_length_c   14.30799600
_cell_angle_alpha   90.00000000
_cell_angle_beta   90.00000000
_cell_angle_gamma   90.00000000
_symmetry_Int_Tables_number   1
_chemical_formula_structural   KEr2CuSe4
_chemical_formula_sum   'K4 Er8 Cu4 Se16'
_cell_volume   818.19811389
_cell_formula_units_Z   4
loop_
 _symmetry_equiv_pos_site_id
 _symmetry_equiv_pos_as_xyz
  1  'x, y, z'
loop_
 _atom_site_type_symbol
 _atom_site_label
 _atom_site_symmetry_multiplicity
 _atom_site_fract_x
 _atom_site_fract_y
 _atom_site_fract_z
 _atom_site_occupancy
  K  K0  1  0.50000000  0.38715400  0.75000000  1
  K  K1  1  0.00000000  0.11284600  0.25000000  1
  K  K2  1  0.00000000  0.88715400  0.75000000  1
  K  K3  1  0.50000000  0.61284600  0.25000000  1
  Er  Er4  1  0.50000000  0.13407700  0.93486500  1
  Er  Er5  1  0.00000000  0.36592300  0.06513500  1
  Er  Er6  1  0.00000000  0.36592300  0.43486500  1
  Er  Er7  1  0.50000000  0.13407700  0.56513500  1
  Er  Er8  1  0.00000000  0.63407700  0.93486500  1
  Er  Er9  1  0.50000000  0.86592300  0.06513500  1
  Er  Er10  1  0.50000000  0.86592300  0.43486500  1
  Er  Er11  1  0.00000000  0.63407700  0.56513500  1
  Cu  Cu12  1  0.00000000  0.16053200  0.75000000  1
  Cu  Cu13  1  0.50000000  0.33946800  0.25000000  1
  Cu  Cu14  1  0.50000000  0.66053200  0.75000000  1
  Cu  Cu15  1  0.00000000  0.83946800  0.25000000  1
  Se  Se16  1  0.00000000  0.43614800  0.25000000  1
  Se  Se17  1  0.50000000  0.06385200  0.75000000  1
  Se  Se18  1  0.50000000  0.23522600  0.38946800  1
  Se  Se19  1  0.00000000  0.26477400  0.61053200  1
  Se  Se20  1  0.00000000  0.26477400  0.88946800  1
  Se  Se21  1  0.50000000  0.23522600  0.11053200  1
  Se  Se22  1  0.00000000  0.00000000  0.50000000  1
  Se  Se23  1  0.00000000  0.00000000  0.00000000  1
  Se  Se24  1  0.50000000  0.93614800  0.25000000  1
  Se  Se25  1  0.00000000  0.56385200  0.75000000  1
  Se  Se26  1  0.00000000  0.73522600  0.38946800  1
  Se  Se27  1  0.50000000  0.76477400  0.61053200  1
  Se  Se28  1  0.50000000  0.76477400  0.88946800  1
  Se  Se29  1  0.00000000  0.73522600  0.11053200  1
  Se  Se30  1  0.50000000  0.50000000  0.50000000  1
  Se  Se31  1  0.50000000  0.50000000  0.00000000  1
