# generated using pymatgen
data_Sr(BS2)2
_symmetry_space_group_name_H-M   'P 1'
_cell_length_a   8.70493399
_cell_length_b   8.70493399
_cell_length_c   22.28816824
_cell_angle_alpha   90.00000000
_cell_angle_beta   90.00000000
_cell_angle_gamma   120.00000000
_symmetry_Int_Tables_number   1
_chemical_formula_structural   Sr(BS2)2
_chemical_formula_sum   'Sr9 B18 S36'
_cell_volume   1462.63504087
_cell_formula_units_Z   9
loop_
 _symmetry_equiv_pos_site_id
 _symmetry_equiv_pos_as_xyz
  1  'x, y, z'
loop_
 _atom_site_type_symbol
 _atom_site_label
 _atom_site_symmetry_multiplicity
 _atom_site_fract_x
 _atom_site_fract_y
 _atom_site_fract_z
 _atom_site_occupancy
  Sr  Sr0  1  0.00000000  0.00000000  0.19089400  1
  Sr  Sr1  1  0.66666667  0.33333333  0.14243933  1
  Sr  Sr2  1  0.00000000  0.00000000  0.00000000  1
  Sr  Sr3  1  0.66666667  0.33333333  0.52422733  1
  Sr  Sr4  1  0.33333333  0.66666667  0.47577267  1
  Sr  Sr5  1  0.66666667  0.33333333  0.33333333  1
  Sr  Sr6  1  0.33333333  0.66666667  0.85756067  1
  Sr  Sr7  1  0.00000000  0.00000000  0.80910600  1
  Sr  Sr8  1  0.33333333  0.66666667  0.66666667  1
  B  B9  1  0.54868933  0.69900567  0.08565067  1
  B  B10  1  0.15031633  0.45131067  0.08565067  1
  B  B11  1  0.30099433  0.84968367  0.08565067  1
  B  B12  1  0.36567233  0.48364967  0.24768267  1
  B  B13  1  0.11797733  0.63432767  0.24768267  1
  B  B14  1  0.51635033  0.88202267  0.24768267  1
  B  B15  1  0.21535600  0.03233900  0.41898400  1
  B  B16  1  0.81698300  0.78464400  0.41898400  1
  B  B17  1  0.96766100  0.18301700  0.41898400  1
  B  B18  1  0.03233900  0.81698300  0.58101600  1
  B  B19  1  0.78464400  0.96766100  0.58101600  1
  B  B20  1  0.18301700  0.21535600  0.58101600  1
  B  B21  1  0.88202267  0.36567233  0.75231733  1
  B  B22  1  0.48364967  0.11797733  0.75231733  1
  B  B23  1  0.63432767  0.51635033  0.75231733  1
  B  B24  1  0.69900567  0.15031633  0.91434933  1
  B  B25  1  0.45131067  0.30099433  0.91434933  1
  B  B26  1  0.84968367  0.54868933  0.91434933  1
  S  S27  1  0.90315633  0.61459067  0.24074267  1
  S  S28  1  0.95523233  0.23648967  0.09259067  1
  S  S29  1  0.28125733  0.04476767  0.09259067  1
  S  S30  1  0.13744967  0.43643133  0.25130533  1
  S  S31  1  0.56356867  0.70101833  0.25130533  1
  S  S32  1  0.29898167  0.86255033  0.25130533  1
  S  S33  1  0.52921700  0.89690200  0.08202800  1
  S  S34  1  0.10309800  0.63231500  0.08202800  1
  S  S35  1  0.36768500  0.47078300  0.08202800  1
  S  S36  1  0.38540933  0.28856567  0.24074267  1
  S  S37  1  0.76351033  0.71874267  0.09259067  1
  S  S38  1  0.71143433  0.09684367  0.24074267  1
  S  S39  1  0.56982300  0.94792400  0.57407600  1
  S  S40  1  0.62189900  0.56982300  0.42592400  1
  S  S41  1  0.94792400  0.37810100  0.42592400  1
  S  S42  1  0.80411633  0.76976467  0.58463867  1
  S  S43  1  0.23023533  0.03435167  0.58463867  1
  S  S44  1  0.96564833  0.19588367  0.58463867  1
  S  S45  1  0.19588367  0.23023533  0.41536133  1
  S  S46  1  0.76976467  0.96564833  0.41536133  1
  S  S47  1  0.03435167  0.80411633  0.41536133  1
  S  S48  1  0.05207600  0.62189900  0.57407600  1
  S  S49  1  0.43017700  0.05207600  0.42592400  1
  S  S50  1  0.37810100  0.43017700  0.57407600  1
  S  S51  1  0.23648967  0.28125733  0.90740933  1
  S  S52  1  0.28856567  0.90315633  0.75925733  1
  S  S53  1  0.61459067  0.71143433  0.75925733  1
  S  S54  1  0.47078300  0.10309800  0.91797200  1
  S  S55  1  0.89690200  0.36768500  0.91797200  1
  S  S56  1  0.63231500  0.52921700  0.91797200  1
  S  S57  1  0.86255033  0.56356867  0.74869467  1
  S  S58  1  0.43643133  0.29898167  0.74869467  1
  S  S59  1  0.70101833  0.13744967  0.74869467  1
  S  S60  1  0.71874267  0.95523233  0.90740933  1
  S  S61  1  0.09684367  0.38540933  0.75925733  1
  S  S62  1  0.04476767  0.76351033  0.90740933  1
