# generated using pymatgen
data_Mn2SiO4
_symmetry_space_group_name_H-M   'P 1'
_cell_length_a   4.94853300
_cell_length_b   6.34087600
_cell_length_c   10.75826500
_cell_angle_alpha   90.00000000
_cell_angle_beta   90.00000000
_cell_angle_gamma   90.00000000
_symmetry_Int_Tables_number   1
_chemical_formula_structural   Mn2SiO4
_chemical_formula_sum   'Mn8 Si4 O16'
_cell_volume   337.57320640
_cell_formula_units_Z   4
loop_
 _symmetry_equiv_pos_site_id
 _symmetry_equiv_pos_as_xyz
  1  'x, y, z'
loop_
 _atom_site_type_symbol
 _atom_site_label
 _atom_site_symmetry_multiplicity
 _atom_site_fract_x
 _atom_site_fract_y
 _atom_site_fract_z
 _atom_site_occupancy
  Mn  Mn0  1  0.48887400  0.25000000  0.72007550  1
  Mn  Mn1  1  0.51112600  0.75000000  0.27992450  1
  Mn  Mn2  1  0.50000000  0.50000000  0.00000000  1
  Mn  Mn3  1  0.50000000  0.00000000  0.00000000  1
  Mn  Mn4  1  0.98887400  0.75000000  0.77992450  1
  Mn  Mn5  1  0.01112600  0.25000000  0.22007550  1
  Mn  Mn6  1  0.00000000  0.50000000  0.50000000  1
  Mn  Mn7  1  0.00000000  0.00000000  0.50000000  1
  Si  Si8  1  0.42706700  0.75000000  0.59599150  1
  Si  Si9  1  0.92706700  0.25000000  0.90400850  1
  Si  Si10  1  0.57293300  0.25000000  0.40400850  1
  Si  Si11  1  0.07293300  0.75000000  0.09599150  1
  O  O12  1  0.21056400  0.75000000  0.95336550  1
  O  O13  1  0.71056400  0.25000000  0.54663450  1
  O  O14  1  0.78943600  0.25000000  0.04663450  1
  O  O15  1  0.28943600  0.75000000  0.45336550  1
  O  O16  1  0.74183300  0.75000000  0.09372350  1
  O  O17  1  0.24183300  0.25000000  0.40627650  1
  O  O18  1  0.25816700  0.25000000  0.90627650  1
  O  O19  1  0.75816700  0.75000000  0.59372350  1
  O  O20  1  0.71315800  0.45845000  0.33655250  1
  O  O21  1  0.21315800  0.54155000  0.16344750  1
  O  O22  1  0.28684200  0.95845000  0.66344750  1
  O  O23  1  0.78684200  0.04155000  0.83655250  1
  O  O24  1  0.28684200  0.54155000  0.66344750  1
  O  O25  1  0.78684200  0.45845000  0.83655250  1
  O  O26  1  0.71315800  0.04155000  0.33655250  1
  O  O27  1  0.21315800  0.95845000  0.16344750  1
