# generated using pymatgen
data_Cd(BO2)2
_symmetry_space_group_name_H-M   'P 1'
_cell_length_a   8.97259428
_cell_length_b   8.97259428
_cell_length_c   7.27258200
_cell_angle_alpha   90.00000000
_cell_angle_beta   90.00000000
_cell_angle_gamma   120.00000000
_symmetry_Int_Tables_number   1
_chemical_formula_structural   Cd(BO2)2
_chemical_formula_sum   'Cd8 B16 O32'
_cell_volume   507.05529201
_cell_formula_units_Z   8
loop_
 _symmetry_equiv_pos_site_id
 _symmetry_equiv_pos_as_xyz
  1  'x, y, z'
loop_
 _atom_site_type_symbol
 _atom_site_label
 _atom_site_symmetry_multiplicity
 _atom_site_fract_x
 _atom_site_fract_y
 _atom_site_fract_z
 _atom_site_occupancy
  Cd  Cd0  1  0.00000000  0.00000000  0.56250000  1
  Cd  Cd1  1  0.00000000  0.00000000  0.06250000  1
  Cd  Cd2  1  0.04570400  0.52447100  0.54315300  1
  Cd  Cd3  1  0.52123300  0.04570400  0.04315300  1
  Cd  Cd4  1  0.52447100  0.47876700  0.04315300  1
  Cd  Cd5  1  0.47552900  0.52123300  0.54315300  1
  Cd  Cd6  1  0.47876700  0.95429600  0.54315300  1
  Cd  Cd7  1  0.95429600  0.47552900  0.04315300  1
  B  B8  1  0.17729800  0.32893500  0.84600000  1
  B  B9  1  0.84836300  0.17729800  0.34600000  1
  B  B10  1  0.32893500  0.15163700  0.34600000  1
  B  B11  1  0.67106500  0.84836300  0.84600000  1
  B  B12  1  0.15163700  0.82270200  0.84600000  1
  B  B13  1  0.82270200  0.67106500  0.34600000  1
  B  B14  1  0.84781600  0.17513600  0.73134300  1
  B  B15  1  0.67268000  0.84781600  0.23134300  1
  B  B16  1  0.33333333  0.66666667  0.25093200  1
  B  B17  1  0.66666667  0.33333333  0.75093200  1
  B  B18  1  0.33333333  0.66666667  0.86694700  1
  B  B19  1  0.66666667  0.33333333  0.36694700  1
  B  B20  1  0.15218400  0.82486400  0.23134300  1
  B  B21  1  0.32732000  0.15218400  0.73134300  1
  B  B22  1  0.82486400  0.67268000  0.73134300  1
  B  B23  1  0.17513600  0.32732000  0.23134300  1
  O  O24  1  0.70764900  0.70313300  0.22232000  1
  O  O25  1  0.70313300  0.99548400  0.72232000  1
  O  O26  1  0.80759800  0.50352500  0.29479500  1
  O  O27  1  0.30407300  0.80759800  0.79479500  1
  O  O28  1  0.50352500  0.69592700  0.79479500  1
  O  O29  1  0.49647500  0.30407300  0.29479500  1
  O  O30  1  0.69592700  0.19240200  0.29479500  1
  O  O31  1  0.19240200  0.49647500  0.79479500  1
  O  O32  1  0.33333333  0.66666667  0.05990700  1
  O  O33  1  0.66666667  0.33333333  0.55990700  1
  O  O34  1  0.09190600  0.76251400  0.03795600  1
  O  O35  1  0.32939200  0.09190600  0.53795600  1
  O  O36  1  0.76251400  0.67060800  0.53795600  1
  O  O37  1  0.23748600  0.32939200  0.03795600  1
  O  O38  1  0.67060800  0.90809400  0.03795600  1
  O  O39  1  0.90809400  0.23748600  0.53795600  1
  O  O40  1  0.00284300  0.81598300  0.32812400  1
  O  O41  1  0.18686000  0.00284300  0.82812400  1
  O  O42  1  0.81598300  0.81314000  0.82812400  1
  O  O43  1  0.18401700  0.18686000  0.32812400  1
  O  O44  1  0.81314000  0.99715700  0.32812400  1
  O  O45  1  0.99715700  0.18401700  0.82812400  1
  O  O46  1  0.20592300  0.71266700  0.32821200  1
  O  O47  1  0.49325600  0.20592300  0.82821200  1
  O  O48  1  0.71266700  0.50674400  0.82821200  1
  O  O49  1  0.28733300  0.49325600  0.32821200  1
  O  O50  1  0.50674400  0.79407700  0.32821200  1
  O  O51  1  0.79407700  0.28733300  0.82821200  1
  O  O52  1  0.29686700  0.00451600  0.22232000  1
  O  O53  1  0.29235100  0.29686700  0.72232000  1
  O  O54  1  0.00451600  0.70764900  0.72232000  1
  O  O55  1  0.99548400  0.29235100  0.22232000  1
