# generated using pymatgen
data_Be(PN2)2
_symmetry_space_group_name_H-M   'P 1'
_cell_length_a   12.77750873
_cell_length_b   12.77750873
_cell_length_c   8.39074679
_cell_angle_alpha   90.00000000
_cell_angle_beta   90.00000000
_cell_angle_gamma   120.00000000
_symmetry_Int_Tables_number   1
_chemical_formula_structural   Be(PN2)2
_chemical_formula_sum   'Be18 P36 N72'
_cell_volume   1186.37946194
_cell_formula_units_Z   18
loop_
 _symmetry_equiv_pos_site_id
 _symmetry_equiv_pos_as_xyz
  1  'x, y, z'
loop_
 _atom_site_type_symbol
 _atom_site_label
 _atom_site_symmetry_multiplicity
 _atom_site_fract_x
 _atom_site_fract_y
 _atom_site_fract_z
 _atom_site_occupancy
  Be  Be0  1  0.98224867  0.78840333  0.75012833  1
  Be  Be1  1  0.21159667  0.19384533  0.75012833  1
  Be  Be2  1  0.80615467  0.01775133  0.75012833  1
  Be  Be3  1  0.01775133  0.21159667  0.24987167  1
  Be  Be4  1  0.78840333  0.80615467  0.24987167  1
  Be  Be5  1  0.19384533  0.98224867  0.24987167  1
  Be  Be6  1  0.64891533  0.12173667  0.08346167  1
  Be  Be7  1  0.87826333  0.52717867  0.08346167  1
  Be  Be8  1  0.47282133  0.35108467  0.08346167  1
  Be  Be9  1  0.68441800  0.54493000  0.58320500  1
  Be  Be10  1  0.45507000  0.13948800  0.58320500  1
  Be  Be11  1  0.86051200  0.31558200  0.58320500  1
  Be  Be12  1  0.31558200  0.45507000  0.41679500  1
  Be  Be13  1  0.54493000  0.86051200  0.41679500  1
  Be  Be14  1  0.13948800  0.68441800  0.41679500  1
  Be  Be15  1  0.35108467  0.87826333  0.91653833  1
  Be  Be16  1  0.12173667  0.47282133  0.91653833  1
  Be  Be17  1  0.52717867  0.64891533  0.91653833  1
  P  P18  1  0.19428033  0.98156967  0.58294667  1
  P  P19  1  0.01843033  0.21271067  0.58294667  1
  P  P20  1  0.78728933  0.80571967  0.58294667  1
  P  P21  1  0.80571967  0.01843033  0.41705333  1
  P  P22  1  0.98156967  0.78728933  0.41705333  1
  P  P23  1  0.21271067  0.19428033  0.41705333  1
  P  P24  1  0.52952333  0.65362267  0.58384567  1
  P  P25  1  0.34637733  0.87590067  0.58384567  1
  P  P26  1  0.12409933  0.47047667  0.58384567  1
  P  P27  1  0.47047667  0.34637733  0.41615433  1
  P  P28  1  0.65362267  0.12409933  0.41615433  1
  P  P29  1  0.87590067  0.52952333  0.41615433  1
  P  P30  1  0.86094700  0.31490300  0.91628000  1
  P  P31  1  0.68509700  0.54604400  0.91628000  1
  P  P32  1  0.45395600  0.13905300  0.91628000  1
  P  P33  1  0.47238633  0.35176367  0.75038667  1
  P  P34  1  0.64823633  0.12062267  0.75038667  1
  P  P35  1  0.87937733  0.52761367  0.75038667  1
  P  P36  1  0.19619000  0.98695600  0.91717900  1
  P  P37  1  0.01304400  0.20923400  0.91717900  1
  P  P38  1  0.79076600  0.80381000  0.91717900  1
  P  P39  1  0.13714333  0.67971067  0.74948767  1
  P  P40  1  0.32028933  0.45743267  0.74948767  1
  P  P41  1  0.54256733  0.86285667  0.74948767  1
  P  P42  1  0.52761367  0.64823633  0.24961333  1
  P  P43  1  0.35176367  0.87937733  0.24961333  1
  P  P44  1  0.12062267  0.47238633  0.24961333  1
  P  P45  1  0.13905300  0.68509700  0.08372000  1
  P  P46  1  0.31490300  0.45395600  0.08372000  1
  P  P47  1  0.54604400  0.86094700  0.08372000  1
  P  P48  1  0.86285667  0.32028933  0.25051233  1
  P  P49  1  0.67971067  0.54256733  0.25051233  1
  P  P50  1  0.45743267  0.13714333  0.25051233  1
  P  P51  1  0.80381000  0.01304400  0.08282100  1
  P  P52  1  0.98695600  0.79076600  0.08282100  1
  P  P53  1  0.20923400  0.19619000  0.08282100  1
  N  N54  1  0.12372233  0.91975367  0.75161467  1
  N  N55  1  0.08024633  0.20396867  0.75161467  1
  N  N56  1  0.79603133  0.87627767  0.75161467  1
  N  N57  1  0.87627767  0.08024633  0.24838533  1
  N  N58  1  0.91975367  0.79603133  0.24838533  1
  N  N59  1  0.20396867  0.12372233  0.24838533  1
  N  N60  1  0.33418367  0.32979433  0.41727933  1
  N  N61  1  0.67020567  0.00438933  0.41727933  1
  N  N62  1  0.99561067  0.66581633  0.41727933  1
  N  N63  1  0.66581633  0.67020567  0.58272067  1
  N  N64  1  0.32979433  0.99561067  0.58272067  1
  N  N65  1  0.00438933  0.33418367  0.58272067  1
  N  N66  1  0.24445300  0.45555300  0.59158900  1
  N  N67  1  0.54444700  0.78890000  0.59158900  1
  N  N68  1  0.21110000  0.75554700  0.59158900  1
  N  N69  1  0.75554700  0.54444700  0.40841100  1
  N  N70  1  0.45555300  0.21110000  0.40841100  1
  N  N71  1  0.78890000  0.24445300  0.40841100  1
  N  N72  1  0.90582833  0.78778967  0.57481467  1
  N  N73  1  0.21221033  0.11803867  0.57481467  1
  N  N74  1  0.88196133  0.09417167  0.57481467  1
  N  N75  1  0.09417167  0.21221033  0.42518533  1
  N  N76  1  0.78778967  0.88196133  0.42518533  1
  N  N77  1  0.11803867  0.90582833  0.42518533  1
  N  N78  1  0.79038900  0.25308700  0.08494800  1
  N  N79  1  0.74691300  0.53730200  0.08494800  1
  N  N80  1  0.46269800  0.20961100  0.08494800  1
  N  N81  1  0.54294433  0.41357967  0.58171867  1
  N  N82  1  0.58642033  0.12936467  0.58171867  1
  N  N83  1  0.87063533  0.45705567  0.58171867  1
  N  N84  1  0.00085033  0.66312767  0.75061267  1
  N  N85  1  0.33687233  0.33772267  0.75061267  1
  N  N86  1  0.66227733  0.99914967  0.75061267  1
  N  N87  1  0.33248300  0.00353900  0.91605400  1
  N  N88  1  0.99646100  0.32894400  0.91605400  1
  N  N89  1  0.67105600  0.66751700  0.91605400  1
  N  N90  1  0.91111967  0.78888633  0.92492233  1
  N  N91  1  0.21111367  0.12223333  0.92492233  1
  N  N92  1  0.87776667  0.08888033  0.92492233  1
  N  N93  1  0.42221367  0.87778033  0.74174433  1
  N  N94  1  0.12221967  0.54443333  0.74174433  1
  N  N95  1  0.45556667  0.57778633  0.74174433  1
  N  N96  1  0.57249500  0.12112300  0.90814800  1
  N  N97  1  0.87887700  0.45137200  0.90814800  1
  N  N98  1  0.54862800  0.42750500  0.90814800  1
  N  N99  1  0.76083833  0.54554367  0.75851867  1
  N  N100  1  0.45445633  0.21529467  0.75851867  1
  N  N101  1  0.78470533  0.23916167  0.75851867  1
  N  N102  1  0.45705567  0.58642033  0.41828133  1
  N  N103  1  0.41357967  0.87063533  0.41828133  1
  N  N104  1  0.12936467  0.54294433  0.41828133  1
  N  N105  1  0.20961100  0.74691300  0.91505200  1
  N  N106  1  0.25308700  0.46269800  0.91505200  1
  N  N107  1  0.53730200  0.79038900  0.91505200  1
  N  N108  1  0.66751700  0.99646100  0.08394600  1
  N  N109  1  0.00353900  0.67105600  0.08394600  1
  N  N110  1  0.32894400  0.33248300  0.08394600  1
  N  N111  1  0.99914967  0.33687233  0.24938733  1
  N  N112  1  0.66312767  0.66227733  0.24938733  1
  N  N113  1  0.33772267  0.00085033  0.24938733  1
  N  N114  1  0.57778633  0.12221967  0.25825567  1
  N  N115  1  0.87778033  0.45556667  0.25825567  1
  N  N116  1  0.54443333  0.42221367  0.25825567  1
  N  N117  1  0.08888033  0.21111367  0.07507767  1
  N  N118  1  0.78888633  0.87776667  0.07507767  1
  N  N119  1  0.12223333  0.91111967  0.07507767  1
  N  N120  1  0.23916167  0.45445633  0.24148133  1
  N  N121  1  0.54554367  0.78470533  0.24148133  1
  N  N122  1  0.21529467  0.76083833  0.24148133  1
  N  N123  1  0.42750500  0.87887700  0.09185200  1
  N  N124  1  0.12112300  0.54862800  0.09185200  1
  N  N125  1  0.45137200  0.57249500  0.09185200  1
