# generated using pymatgen
data_Mg3V6(FeO6)4
_symmetry_space_group_name_H-M   'P 1'
_cell_length_a   6.76522700
_cell_length_b   8.19601658
_cell_length_c   9.95291827
_cell_angle_alpha   105.40092555
_cell_angle_beta   105.10449532
_cell_angle_gamma   102.32516809
_symmetry_Int_Tables_number   1
_chemical_formula_structural   Mg3V6(FeO6)4
_chemical_formula_sum   'Mg3 V6 Fe4 O24'
_cell_volume   489.41146661
_cell_formula_units_Z   1
loop_
 _symmetry_equiv_pos_site_id
 _symmetry_equiv_pos_as_xyz
  1  'x, y, z'
loop_
 _atom_site_type_symbol
 _atom_site_label
 _atom_site_symmetry_multiplicity
 _atom_site_fract_x
 _atom_site_fract_y
 _atom_site_fract_z
 _atom_site_occupancy
  Mg  Mg0  1  0.00000000  0.50000000  0.50000000  1
  Mg  Mg1  1  0.72080500  0.71360600  0.20667600  1
  Mg  Mg2  1  0.27919500  0.28639400  0.79332400  1
  V  V3  1  0.89625800  0.90340400  0.66697800  1
  V  V4  1  0.10374200  0.09659600  0.33302200  1
  V  V5  1  0.22184000  0.65883900  0.27024200  1
  V  V6  1  0.77816000  0.34116100  0.72975800  1
  V  V7  1  0.59615100  0.27262100  0.12886600  1
  V  V8  1  0.40384900  0.72737900  0.87113400  1
  Fe  Fe9  1  0.38032400  0.95101500  0.60699600  1
  Fe  Fe10  1  0.61967600  0.04898500  0.39300400  1
  Fe  Fe11  1  0.04201800  0.21009300  0.01590100  1
  Fe  Fe12  1  0.95798200  0.78990700  0.98409900  1
  O  O13  1  0.07397000  0.05609200  0.14351700  1
  O  O14  1  0.92603000  0.94390800  0.85648300  1
  O  O15  1  0.55917100  0.13647600  0.23242900  1
  O  O16  1  0.44082900  0.86352400  0.76757100  1
  O  O17  1  0.18000000  0.44061700  0.18323700  1
  O  O18  1  0.82000000  0.55938300  0.81676300  1
  O  O19  1  0.98642300  0.27856100  0.83334300  1
  O  O20  1  0.01357700  0.72143900  0.16665700  1
  O  O21  1  0.23628000  0.78409100  0.96671000  1
  O  O22  1  0.76372000  0.21590900  0.03329000  1
  O  O23  1  0.86838000  0.97212200  0.34768100  1
  O  O24  1  0.13162000  0.02787800  0.65231900  1
  O  O25  1  0.52769200  0.22568800  0.72939600  1
  O  O26  1  0.47230800  0.77431200  0.27060400  1
  O  O27  1  0.34879800  0.25544600  0.99656700  1
  O  O28  1  0.65120200  0.74455400  0.00343300  1
  O  O29  1  0.33280500  0.04073100  0.42567400  1
  O  O30  1  0.66719500  0.95926900  0.57432600  1
  O  O31  1  0.21273800  0.69748300  0.45364700  1
  O  O32  1  0.78726200  0.30251700  0.54635300  1
  O  O33  1  0.72295500  0.48799700  0.25266900  1
  O  O34  1  0.27704500  0.51200300  0.74733100  1
  O  O35  1  0.12423600  0.30907600  0.41474800  1
  O  O36  1  0.87576400  0.69092400  0.58525200  1
