# generated using pymatgen
data_CaCo(SiO3)2
_symmetry_space_group_name_H-M   'P 1'
_cell_length_a   9.92860874
_cell_length_b   9.03859066
_cell_length_c   5.32036314
_cell_angle_alpha   90.00000000
_cell_angle_beta   105.78370739
_cell_angle_gamma   90.00000000
_symmetry_Int_Tables_number   1
_chemical_formula_structural   CaCo(SiO3)2
_chemical_formula_sum   'Ca4 Co4 Si8 O24'
_cell_volume   459.45056661
_cell_formula_units_Z   4
loop_
 _symmetry_equiv_pos_site_id
 _symmetry_equiv_pos_as_xyz
  1  'x, y, z'
loop_
 _atom_site_type_symbol
 _atom_site_label
 _atom_site_symmetry_multiplicity
 _atom_site_fract_x
 _atom_site_fract_y
 _atom_site_fract_z
 _atom_site_occupancy
  Ca  Ca0  1  0.00000000  0.70344500  0.25000000  1
  Ca  Ca1  1  0.00000000  0.29655500  0.75000000  1
  Ca  Ca2  1  0.50000000  0.20344500  0.25000000  1
  Ca  Ca3  1  0.50000000  0.79655500  0.75000000  1
  Co  Co4  1  0.00000000  0.90615550  0.75000000  1
  Co  Co5  1  0.00000000  0.09384450  0.25000000  1
  Co  Co6  1  0.50000000  0.40615550  0.75000000  1
  Co  Co7  1  0.50000000  0.59384450  0.25000000  1
  Si  Si8  1  0.78709850  0.59248450  0.73112900  1
  Si  Si9  1  0.21290150  0.59248450  0.76887100  1
  Si  Si10  1  0.78709850  0.40751550  0.23112900  1
  Si  Si11  1  0.21290150  0.40751550  0.26887100  1
  Si  Si12  1  0.28709850  0.09248450  0.73112900  1
  Si  Si13  1  0.71290150  0.09248450  0.76887100  1
  Si  Si14  1  0.28709850  0.90751550  0.23112900  1
  Si  Si15  1  0.71290150  0.90751550  0.26887100  1
  O  O16  1  0.84997800  0.51843900  0.49545700  1
  O  O17  1  0.15002200  0.51843900  0.00454300  1
  O  O18  1  0.15002200  0.48156100  0.50454300  1
  O  O19  1  0.84997800  0.48156100  0.99545700  1
  O  O20  1  0.86217350  0.74836450  0.82313100  1
  O  O21  1  0.13782650  0.74836450  0.67686900  1
  O  O22  1  0.13782650  0.25163550  0.17686900  1
  O  O23  1  0.86217350  0.25163550  0.32313100  1
  O  O24  1  0.61726650  0.41118450  0.14635300  1
  O  O25  1  0.38273350  0.41118450  0.35364700  1
  O  O26  1  0.61726650  0.58881550  0.64635300  1
  O  O27  1  0.38273350  0.58881550  0.85364700  1
  O  O28  1  0.34997800  0.01843900  0.49545700  1
  O  O29  1  0.65002200  0.01843900  0.00454300  1
  O  O30  1  0.65002200  0.98156100  0.50454300  1
  O  O31  1  0.34997800  0.98156100  0.99545700  1
  O  O32  1  0.36217350  0.24836450  0.82313100  1
  O  O33  1  0.63782650  0.24836450  0.67686900  1
  O  O34  1  0.63782650  0.75163550  0.17686900  1
  O  O35  1  0.36217350  0.75163550  0.32313100  1
  O  O36  1  0.11726650  0.91118450  0.14635300  1
  O  O37  1  0.88273350  0.91118450  0.35364700  1
  O  O38  1  0.11726650  0.08881550  0.64635300  1
  O  O39  1  0.88273350  0.08881550  0.85364700  1
