# generated using pymatgen
data_Ba(NiO2)4
_symmetry_space_group_name_H-M   'P 1'
_cell_length_a   5.73507755
_cell_length_b   5.73507755
_cell_length_c   19.20320766
_cell_angle_alpha   90.00000000
_cell_angle_beta   90.00000000
_cell_angle_gamma   120.00000000
_symmetry_Int_Tables_number   1
_chemical_formula_structural   Ba(NiO2)4
_chemical_formula_sum   'Ba3 Ni12 O24'
_cell_volume   546.99455019
_cell_formula_units_Z   3
loop_
 _symmetry_equiv_pos_site_id
 _symmetry_equiv_pos_as_xyz
  1  'x, y, z'
loop_
 _atom_site_type_symbol
 _atom_site_label
 _atom_site_symmetry_multiplicity
 _atom_site_fract_x
 _atom_site_fract_y
 _atom_site_fract_z
 _atom_site_occupancy
  Ba  Ba0  1  0.66666667  0.33333333  0.83333333  1
  Ba  Ba1  1  0.33333333  0.66666667  0.16666667  1
  Ba  Ba2  1  1.00000000  1.00000000  0.50000000  1
  Ni  Ni3  1  0.50000000  0.50000000  0.00000000  1
  Ni  Ni4  1  0.50000000  0.00000000  0.00000000  1
  Ni  Ni5  1  0.00000000  0.50000000  0.00000000  1
  Ni  Ni6  1  0.00000000  0.00000000  0.00000000  1
  Ni  Ni7  1  0.16666667  0.83333333  0.33333333  1
  Ni  Ni8  1  0.16666667  0.33333333  0.33333333  1
  Ni  Ni9  1  0.66666667  0.83333333  0.33333333  1
  Ni  Ni10  1  0.66666667  0.33333333  0.33333333  1
  Ni  Ni11  1  0.83333333  0.16666667  0.66666667  1
  Ni  Ni12  1  0.83333333  0.66666667  0.66666667  1
  Ni  Ni13  1  0.33333333  0.16666667  0.66666667  1
  Ni  Ni14  1  0.33333333  0.66666667  0.66666667  1
  O  O15  1  0.33333333  0.66666667  0.94969083  1
  O  O16  1  0.00000000  0.00000000  0.71697583  1
  O  O17  1  0.82310017  0.17689983  0.94811183  1
  O  O18  1  0.51023317  0.02046633  0.71855483  1
  O  O19  1  0.51023317  0.48976683  0.71855483  1
  O  O20  1  0.97953367  0.48976683  0.71855483  1
  O  O21  1  0.82310017  0.64620033  0.94811183  1
  O  O22  1  0.35379967  0.17689983  0.94811183  1
  O  O23  1  0.00000000  0.00000000  0.28302417  1
  O  O24  1  0.66666667  0.33333333  0.05030917  1
  O  O25  1  0.48976683  0.51023317  0.28144517  1
  O  O26  1  0.17689983  0.35379967  0.05188817  1
  O  O27  1  0.17689983  0.82310017  0.05188817  1
  O  O28  1  0.64620033  0.82310017  0.05188817  1
  O  O29  1  0.48976683  0.97953367  0.28144517  1
  O  O30  1  0.02046633  0.51023317  0.28144517  1
  O  O31  1  0.66666667  0.33333333  0.61635750  1
  O  O32  1  0.33333333  0.66666667  0.38364250  1
  O  O33  1  0.15643350  0.84356650  0.61477850  1
  O  O34  1  0.84356650  0.68713300  0.38522150  1
  O  O35  1  0.84356650  0.15643350  0.38522150  1
  O  O36  1  0.31286700  0.15643350  0.38522150  1
  O  O37  1  0.15643350  0.31286700  0.61477850  1
  O  O38  1  0.68713300  0.84356650  0.61477850  1
