# generated using pymatgen
data_Cd4GeSe6
_symmetry_space_group_name_H-M   'P 1'
_cell_length_a   13.16511400
_cell_length_b   7.61307800
_cell_length_c   13.18728579
_cell_angle_alpha   90.00000000
_cell_angle_beta   109.88840987
_cell_angle_gamma   90.00000000
_symmetry_Int_Tables_number   1
_chemical_formula_structural   Cd4GeSe6
_chemical_formula_sum   'Cd16 Ge4 Se24'
_cell_volume   1242.89106468
_cell_formula_units_Z   4
loop_
 _symmetry_equiv_pos_site_id
 _symmetry_equiv_pos_as_xyz
  1  'x, y, z'
loop_
 _atom_site_type_symbol
 _atom_site_label
 _atom_site_symmetry_multiplicity
 _atom_site_fract_x
 _atom_site_fract_y
 _atom_site_fract_z
 _atom_site_occupancy
  Cd  Cd0  1  0.82253550  0.89350750  0.50607400  1
  Cd  Cd1  1  0.82253550  0.10649250  0.00607400  1
  Cd  Cd2  1  0.79904050  0.39433450  0.69408800  1
  Cd  Cd3  1  0.79904050  0.60566550  0.19408800  1
  Cd  Cd4  1  0.64208400  0.92661100  0.69932500  1
  Cd  Cd5  1  0.64208400  0.07338900  0.19932500  1
  Cd  Cd6  1  0.00710850  0.79497050  0.85622100  1
  Cd  Cd7  1  0.50710850  0.70502950  0.35622100  1
  Cd  Cd8  1  0.32253550  0.39350750  0.50607400  1
  Cd  Cd9  1  0.32253550  0.60649250  0.00607400  1
  Cd  Cd10  1  0.29904050  0.89433450  0.69408800  1
  Cd  Cd11  1  0.29904050  0.10566550  0.19408800  1
  Cd  Cd12  1  0.14208400  0.42661100  0.69932500  1
  Cd  Cd13  1  0.14208400  0.57338900  0.19932500  1
  Cd  Cd14  1  0.50710850  0.29497050  0.85622100  1
  Cd  Cd15  1  0.00710850  0.20502950  0.35622100  1
  Ge  Ge16  1  0.07285400  0.72922600  0.44299000  1
  Ge  Ge17  1  0.07285400  0.27077400  0.94299000  1
  Ge  Ge18  1  0.57285400  0.22922600  0.44299000  1
  Ge  Ge19  1  0.57285400  0.77077400  0.94299000  1
  Se  Se20  1  0.31835000  0.75303500  0.19167100  1
  Se  Se21  1  0.81835000  0.74696500  0.69167100  1
  Se  Se22  1  0.26347600  0.74187800  0.49720100  1
  Se  Se23  1  0.76347600  0.75812200  0.99720100  1
  Se  Se24  1  0.19264800  0.72738100  0.81331300  1
  Se  Se25  1  0.69264800  0.77261900  0.31331300  1
  Se  Se26  1  0.49789650  0.72697150  0.75404100  1
  Se  Se27  1  0.99789650  0.77302850  0.25404100  1
  Se  Se28  1  0.99803400  0.52126200  0.99617800  1
  Se  Se29  1  0.49803400  0.97873800  0.49617800  1
  Se  Se30  1  0.52697300  0.51637900  0.02389700  1
  Se  Se31  1  0.52697300  0.48362100  0.52389700  1
  Se  Se32  1  0.81835000  0.25303500  0.19167100  1
  Se  Se33  1  0.31835000  0.24696500  0.69167100  1
  Se  Se34  1  0.76347600  0.24187800  0.49720100  1
  Se  Se35  1  0.26347600  0.25812200  0.99720100  1
  Se  Se36  1  0.69264800  0.22738100  0.81331300  1
  Se  Se37  1  0.19264800  0.27261900  0.31331300  1
  Se  Se38  1  0.99789650  0.22697150  0.75404100  1
  Se  Se39  1  0.49789650  0.27302850  0.25404100  1
  Se  Se40  1  0.49803400  0.02126200  0.99617800  1
  Se  Se41  1  0.99803400  0.47873800  0.49617800  1
  Se  Se42  1  0.02697300  0.01637900  0.02389700  1
  Se  Se43  1  0.02697300  0.98362100  0.52389700  1
