# generated using pymatgen
data_BaMoO4
_symmetry_space_group_name_H-M   'P 1'
_cell_length_a   5.70338200
_cell_length_b   5.70338200
_cell_length_c   13.07814800
_cell_angle_alpha   90.00000000
_cell_angle_beta   90.00000000
_cell_angle_gamma   90.00000000
_symmetry_Int_Tables_number   1
_chemical_formula_structural   BaMoO4
_chemical_formula_sum   'Ba4 Mo4 O16'
_cell_volume   425.41340349
_cell_formula_units_Z   4
loop_
 _symmetry_equiv_pos_site_id
 _symmetry_equiv_pos_as_xyz
  1  'x, y, z'
loop_
 _atom_site_type_symbol
 _atom_site_label
 _atom_site_symmetry_multiplicity
 _atom_site_fract_x
 _atom_site_fract_y
 _atom_site_fract_z
 _atom_site_occupancy
  Ba  Ba0  1  0.00000000  0.50000000  0.25000000  1
  Ba  Ba1  1  0.00000000  0.00000000  0.00000000  1
  Ba  Ba2  1  0.50000000  0.00000000  0.75000000  1
  Ba  Ba3  1  0.50000000  0.50000000  0.50000000  1
  Mo  Mo4  1  0.50000000  0.00000000  0.25000000  1
  Mo  Mo5  1  0.50000000  0.50000000  0.00000000  1
  Mo  Mo6  1  0.00000000  0.50000000  0.75000000  1
  Mo  Mo7  1  0.00000000  0.00000000  0.50000000  1
  O  O8  1  0.73423300  0.12023200  0.17341500  1
  O  O9  1  0.26576700  0.87976800  0.17341500  1
  O  O10  1  0.12023200  0.76576700  0.42341500  1
  O  O11  1  0.87976800  0.23423300  0.42341500  1
  O  O12  1  0.26576700  0.37976800  0.07658500  1
  O  O13  1  0.73423300  0.62023200  0.07658500  1
  O  O14  1  0.37976800  0.23423300  0.32658500  1
  O  O15  1  0.62023200  0.76576700  0.32658500  1
  O  O16  1  0.23423300  0.62023200  0.67341500  1
  O  O17  1  0.76576700  0.37976800  0.67341500  1
  O  O18  1  0.62023200  0.26576700  0.92341500  1
  O  O19  1  0.37976800  0.73423300  0.92341500  1
  O  O20  1  0.76576700  0.87976800  0.57658500  1
  O  O21  1  0.23423300  0.12023200  0.57658500  1
  O  O22  1  0.87976800  0.73423300  0.82658500  1
  O  O23  1  0.12023200  0.26576700  0.82658500  1
