# generated using pymatgen
data_Na2Si2Se5
_symmetry_space_group_name_H-M   'P 1'
_cell_length_a   13.43801800
_cell_length_b   13.58734600
_cell_length_c   11.11321000
_cell_angle_alpha   90.00000000
_cell_angle_beta   90.00000000
_cell_angle_gamma   90.00000000
_symmetry_Int_Tables_number   1
_chemical_formula_structural   Na2Si2Se5
_chemical_formula_sum   'Na16 Si16 Se40'
_cell_volume   2029.12767561
_cell_formula_units_Z   8
loop_
 _symmetry_equiv_pos_site_id
 _symmetry_equiv_pos_as_xyz
  1  'x, y, z'
loop_
 _atom_site_type_symbol
 _atom_site_label
 _atom_site_symmetry_multiplicity
 _atom_site_fract_x
 _atom_site_fract_y
 _atom_site_fract_z
 _atom_site_occupancy
  Na  Na0  1  0.32885750  0.75259950  0.75000000  1
  Na  Na1  1  0.67114250  0.24740050  0.25000000  1
  Na  Na2  1  0.67114250  0.75259950  0.75000000  1
  Na  Na3  1  0.32885750  0.24740050  0.25000000  1
  Na  Na4  1  0.14823600  0.00000000  0.50000000  1
  Na  Na5  1  0.85176400  0.00000000  0.00000000  1
  Na  Na6  1  0.85176400  0.00000000  0.50000000  1
  Na  Na7  1  0.14823600  0.00000000  0.00000000  1
  Na  Na8  1  0.82885750  0.25259950  0.75000000  1
  Na  Na9  1  0.17114250  0.74740050  0.25000000  1
  Na  Na10  1  0.17114250  0.25259950  0.75000000  1
  Na  Na11  1  0.82885750  0.74740050  0.25000000  1
  Na  Na12  1  0.64823600  0.50000000  0.50000000  1
  Na  Na13  1  0.35176400  0.50000000  0.00000000  1
  Na  Na14  1  0.35176400  0.50000000  0.50000000  1
  Na  Na15  1  0.64823600  0.50000000  0.00000000  1
  Si  Si16  1  0.63591100  0.05240300  0.75000000  1
  Si  Si17  1  0.36408900  0.94759700  0.25000000  1
  Si  Si18  1  0.36408900  0.05240300  0.75000000  1
  Si  Si19  1  0.63591100  0.94759700  0.25000000  1
  Si  Si20  1  0.50000000  0.24625900  0.91575100  1
  Si  Si21  1  0.50000000  0.75374100  0.41575100  1
  Si  Si22  1  0.50000000  0.24625900  0.58424900  1
  Si  Si23  1  0.50000000  0.75374100  0.08424900  1
  Si  Si24  1  0.13591100  0.55240300  0.75000000  1
  Si  Si25  1  0.86408900  0.44759700  0.25000000  1
  Si  Si26  1  0.86408900  0.55240300  0.75000000  1
  Si  Si27  1  0.13591100  0.44759700  0.25000000  1
  Si  Si28  1  0.00000000  0.74625900  0.91575100  1
  Si  Si29  1  0.00000000  0.25374100  0.41575100  1
  Si  Si30  1  0.00000000  0.74625900  0.58424900  1
  Si  Si31  1  0.00000000  0.25374100  0.08424900  1
  Se  Se32  1  0.77194150  0.04103650  0.25000000  1
  Se  Se33  1  0.22805850  0.95896350  0.75000000  1
  Se  Se34  1  0.22805850  0.04103650  0.25000000  1
  Se  Se35  1  0.77194150  0.95896350  0.75000000  1
  Se  Se36  1  0.50000000  0.34067600  0.08040600  1
  Se  Se37  1  0.50000000  0.65932400  0.58040600  1
  Se  Se38  1  0.50000000  0.34067600  0.41959400  1
  Se  Se39  1  0.50000000  0.65932400  0.91959400  1
  Se  Se40  1  0.50000000  0.34845100  0.75000000  1
  Se  Se41  1  0.50000000  0.65154900  0.25000000  1
  Se  Se42  1  0.35662350  0.84910050  0.07937000  1
  Se  Se43  1  0.64337650  0.15089950  0.57937000  1
  Se  Se44  1  0.64337650  0.84910050  0.42063000  1
  Se  Se45  1  0.35662350  0.15089950  0.92063000  1
  Se  Se46  1  0.64337650  0.15089950  0.92063000  1
  Se  Se47  1  0.35662350  0.84910050  0.42063000  1
  Se  Se48  1  0.35662350  0.15089950  0.57937000  1
  Se  Se49  1  0.64337650  0.84910050  0.07937000  1
  Se  Se50  1  0.50000000  0.95024000  0.75000000  1
  Se  Se51  1  0.50000000  0.04976000  0.25000000  1
  Se  Se52  1  0.27194150  0.54103650  0.25000000  1
  Se  Se53  1  0.72805850  0.45896350  0.75000000  1
  Se  Se54  1  0.72805850  0.54103650  0.25000000  1
  Se  Se55  1  0.27194150  0.45896350  0.75000000  1
  Se  Se56  1  0.00000000  0.84067600  0.08040600  1
  Se  Se57  1  0.00000000  0.15932400  0.58040600  1
  Se  Se58  1  0.00000000  0.84067600  0.41959400  1
  Se  Se59  1  0.00000000  0.15932400  0.91959400  1
  Se  Se60  1  0.00000000  0.84845100  0.75000000  1
  Se  Se61  1  0.00000000  0.15154900  0.25000000  1
  Se  Se62  1  0.85662350  0.34910050  0.07937000  1
  Se  Se63  1  0.14337650  0.65089950  0.57937000  1
  Se  Se64  1  0.14337650  0.34910050  0.42063000  1
  Se  Se65  1  0.85662350  0.65089950  0.92063000  1
  Se  Se66  1  0.14337650  0.65089950  0.92063000  1
  Se  Se67  1  0.85662350  0.34910050  0.42063000  1
  Se  Se68  1  0.85662350  0.65089950  0.57937000  1
  Se  Se69  1  0.14337650  0.34910050  0.07937000  1
  Se  Se70  1  0.00000000  0.45024000  0.75000000  1
  Se  Se71  1  0.00000000  0.54976000  0.25000000  1
