# generated using pymatgen
data_Cu2GeS3
_symmetry_space_group_name_H-M   'P 1'
_cell_length_a   6.47662000
_cell_length_b   11.29736600
_cell_length_c   6.51528691
_cell_angle_alpha   90.00000000
_cell_angle_beta   109.15395329
_cell_angle_gamma   90.00000000
_symmetry_Int_Tables_number   1
_chemical_formula_structural   Cu2GeS3
_chemical_formula_sum   'Cu8 Ge4 S12'
_cell_volume   450.32458723
_cell_formula_units_Z   4
loop_
 _symmetry_equiv_pos_site_id
 _symmetry_equiv_pos_as_xyz
  1  'x, y, z'
loop_
 _atom_site_type_symbol
 _atom_site_label
 _atom_site_symmetry_multiplicity
 _atom_site_fract_x
 _atom_site_fract_y
 _atom_site_fract_z
 _atom_site_occupancy
  Cu  Cu0  1  0.11467900  0.91543900  0.85989400  1
  Cu  Cu1  1  0.62119150  0.75184050  0.85975200  1
  Cu  Cu2  1  0.61467900  0.58456100  0.35989400  1
  Cu  Cu3  1  0.12119150  0.74815950  0.35975200  1
  Cu  Cu4  1  0.61467900  0.41543900  0.85989400  1
  Cu  Cu5  1  0.12119150  0.25184050  0.85975200  1
  Cu  Cu6  1  0.11467900  0.08456100  0.35989400  1
  Cu  Cu7  1  0.62119150  0.24815950  0.35975200  1
  Ge  Ge8  1  0.13601050  0.58748750  0.87917100  1
  Ge  Ge9  1  0.63601050  0.91251250  0.37917100  1
  Ge  Ge10  1  0.63601050  0.08748750  0.87917100  1
  Ge  Ge11  1  0.13601050  0.41251250  0.37917100  1
  S  S12  1  0.49725650  0.75200150  0.48783900  1
  S  S13  1  0.99725650  0.74799850  0.98783900  1
  S  S14  1  0.00204550  0.91540550  0.48594500  1
  S  S15  1  0.50204550  0.58459450  0.98594500  1
  S  S16  1  0.49481700  0.91668700  0.99239800  1
  S  S17  1  0.99481700  0.58331300  0.49239800  1
  S  S18  1  0.99725650  0.25200150  0.48783900  1
  S  S19  1  0.49725650  0.24799850  0.98783900  1
  S  S20  1  0.50204550  0.41540550  0.48594500  1
  S  S21  1  0.00204550  0.08459450  0.98594500  1
  S  S22  1  0.99481700  0.41668700  0.99239800  1
  S  S23  1  0.49481700  0.08331300  0.49239800  1
