# generated using pymatgen
data_NaFeP2O7
_symmetry_space_group_name_H-M   'P 1'
_cell_length_a   7.42402100
_cell_length_b   8.04038600
_cell_length_c   9.69185017
_cell_angle_alpha   90.00000000
_cell_angle_beta   111.71637729
_cell_angle_gamma   90.00000000
_symmetry_Int_Tables_number   1
_chemical_formula_structural   NaFeP2O7
_chemical_formula_sum   'Na4 Fe4 P8 O28'
_cell_volume   537.46606198
_cell_formula_units_Z   4
loop_
 _symmetry_equiv_pos_site_id
 _symmetry_equiv_pos_as_xyz
  1  'x, y, z'
loop_
 _atom_site_type_symbol
 _atom_site_label
 _atom_site_symmetry_multiplicity
 _atom_site_fract_x
 _atom_site_fract_y
 _atom_site_fract_z
 _atom_site_occupancy
  Na  Na0  1  0.71246900  0.47577700  0.70881800  1
  Na  Na1  1  0.28753100  0.97577700  0.79118200  1
  Na  Na2  1  0.71246900  0.02422300  0.20881800  1
  Na  Na3  1  0.28753100  0.52422300  0.29118200  1
  Fe  Fe4  1  0.74113300  0.00859200  0.75014300  1
  Fe  Fe5  1  0.25886700  0.50859200  0.74985700  1
  Fe  Fe6  1  0.25886700  0.99140800  0.24985700  1
  Fe  Fe7  1  0.74113300  0.49140800  0.25014300  1
  P  P8  1  0.32785700  0.21153600  0.54716600  1
  P  P9  1  0.92779900  0.24508900  0.04553400  1
  P  P10  1  0.07220100  0.75491100  0.95446600  1
  P  P11  1  0.92779900  0.25491100  0.54553400  1
  P  P12  1  0.32785700  0.28846400  0.04716600  1
  P  P13  1  0.67214300  0.78846400  0.45283400  1
  P  P14  1  0.07220100  0.74508900  0.45446600  1
  P  P15  1  0.67214300  0.71153600  0.95283400  1
  O  O16  1  0.36463100  0.10754400  0.10298200  1
  O  O17  1  0.63536900  0.60754400  0.39701800  1
  O  O18  1  0.63536900  0.89245600  0.89701800  1
  O  O19  1  0.36463100  0.39245600  0.60298200  1
  O  O20  1  0.30850400  0.29967500  0.88497000  1
  O  O21  1  0.69149600  0.79967500  0.61503000  1
  O  O22  1  0.69149600  0.70032500  0.11503000  1
  O  O23  1  0.30850400  0.20032500  0.38497000  1
  O  O24  1  0.46740400  0.41276500  0.15200800  1
  O  O25  1  0.53259600  0.91276500  0.34799200  1
  O  O26  1  0.53259600  0.58723500  0.84799200  1
  O  O27  1  0.46740400  0.08723500  0.65200800  1
  O  O28  1  0.81854800  0.36407100  0.10756500  1
  O  O29  1  0.18145200  0.86407100  0.39243500  1
  O  O30  1  0.18145200  0.63592900  0.89243500  1
  O  O31  1  0.81854800  0.13592900  0.60756500  1
  O  O32  1  0.12428700  0.15409900  0.56155100  1
  O  O33  1  0.87571300  0.65409900  0.93844900  1
  O  O34  1  0.87571300  0.84590100  0.43844900  1
  O  O35  1  0.12428700  0.34590100  0.06155100  1
  O  O36  1  0.81457400  0.28582200  0.38039500  1
  O  O37  1  0.18542600  0.78582200  0.11960500  1
  O  O38  1  0.18542600  0.71417800  0.61960500  1
  O  O39  1  0.81457400  0.21417800  0.88039500  1
  O  O40  1  0.98887400  0.41455100  0.63851500  1
  O  O41  1  0.01112600  0.91455100  0.86148500  1
  O  O42  1  0.01112600  0.58544900  0.36148500  1
  O  O43  1  0.98887400  0.08544900  0.13851500  1
