# generated using pymatgen
data_Cr2O3
_symmetry_space_group_name_H-M   'P 1'
_cell_length_a   5.06978540
_cell_length_b   5.06978540
_cell_length_c   13.87156000
_cell_angle_alpha   90.00000000
_cell_angle_beta   90.00000000
_cell_angle_gamma   120.00000000
_symmetry_Int_Tables_number   1
_chemical_formula_structural   Cr2O3
_chemical_formula_sum   'Cr12 O18'
_cell_volume   308.76999384
_cell_formula_units_Z   6
loop_
 _symmetry_equiv_pos_site_id
 _symmetry_equiv_pos_as_xyz
  1  'x, y, z'
loop_
 _atom_site_type_symbol
 _atom_site_label
 _atom_site_symmetry_multiplicity
 _atom_site_fract_x
 _atom_site_fract_y
 _atom_site_fract_z
 _atom_site_occupancy
  Cr  Cr0  1  0.33333333  0.66666667  0.01481467  1
  Cr  Cr1  1  0.66666667  0.33333333  0.18148133  1
  Cr  Cr2  1  0.00000000  0.00000000  0.15185200  1
  Cr  Cr3  1  0.33333333  0.66666667  0.31851867  1
  Cr  Cr4  1  0.00000000  0.00000000  0.34814800  1
  Cr  Cr5  1  0.33333333  0.66666667  0.51481467  1
  Cr  Cr6  1  0.66666667  0.33333333  0.48518533  1
  Cr  Cr7  1  0.00000000  0.00000000  0.65185200  1
  Cr  Cr8  1  0.66666667  0.33333333  0.68148133  1
  Cr  Cr9  1  0.00000000  0.00000000  0.84814800  1
  Cr  Cr10  1  0.33333333  0.66666667  0.81851867  1
  Cr  Cr11  1  0.66666667  0.33333333  0.98518533  1
  O  O12  1  0.30380050  0.00000000  0.25000000  1
  O  O13  1  0.00000000  0.30380050  0.25000000  1
  O  O14  1  0.69619950  0.69619950  0.25000000  1
  O  O15  1  0.36286617  0.33333333  0.08333333  1
  O  O16  1  0.66666667  0.02953283  0.08333333  1
  O  O17  1  0.97046717  0.63713383  0.08333333  1
  O  O18  1  0.97046717  0.33333333  0.58333333  1
  O  O19  1  0.66666667  0.63713383  0.58333333  1
  O  O20  1  0.36286617  0.02953283  0.58333333  1
  O  O21  1  0.02953283  0.66666667  0.41666667  1
  O  O22  1  0.33333333  0.36286617  0.41666667  1
  O  O23  1  0.63713383  0.97046717  0.41666667  1
  O  O24  1  0.63713383  0.66666667  0.91666667  1
  O  O25  1  0.33333333  0.97046717  0.91666667  1
  O  O26  1  0.02953283  0.36286617  0.91666667  1
  O  O27  1  0.69619950  0.00000000  0.75000000  1
  O  O28  1  0.00000000  0.69619950  0.75000000  1
  O  O29  1  0.30380050  0.30380050  0.75000000  1
