# generated using pymatgen
data_KGa3
_symmetry_space_group_name_H-M   'P 1'
_cell_length_a   6.35884600
_cell_length_b   6.35884600
_cell_length_c   14.96694400
_cell_angle_alpha   90.00000000
_cell_angle_beta   90.00000000
_cell_angle_gamma   90.00000000
_symmetry_Int_Tables_number   1
_chemical_formula_structural   KGa3
_chemical_formula_sum   'K6 Ga18'
_cell_volume   605.18721998
_cell_formula_units_Z   6
loop_
 _symmetry_equiv_pos_site_id
 _symmetry_equiv_pos_as_xyz
  1  'x, y, z'
loop_
 _atom_site_type_symbol
 _atom_site_label
 _atom_site_symmetry_multiplicity
 _atom_site_fract_x
 _atom_site_fract_y
 _atom_site_fract_z
 _atom_site_occupancy
  K  K0  1  0.50000000  0.00000000  0.12666200  1
  K  K1  1  0.50000000  0.00000000  0.37333800  1
  K  K2  1  0.00000000  0.00000000  0.00000000  1
  K  K3  1  0.00000000  0.50000000  0.62666200  1
  K  K4  1  0.00000000  0.50000000  0.87333800  1
  K  K5  1  0.50000000  0.50000000  0.50000000  1
  Ga  Ga6  1  0.29416150  0.50000000  0.27816850  1
  Ga  Ga7  1  0.00000000  0.79416150  0.22183150  1
  Ga  Ga8  1  0.00000000  0.30539700  0.39237700  1
  Ga  Ga9  1  0.80539700  0.50000000  0.10762300  1
  Ga  Ga10  1  0.19460300  0.50000000  0.10762300  1
  Ga  Ga11  1  0.00000000  0.69460300  0.39237700  1
  Ga  Ga12  1  0.70583850  0.50000000  0.27816850  1
  Ga  Ga13  1  0.00000000  0.20583850  0.22183150  1
  Ga  Ga14  1  0.50000000  0.50000000  0.00000000  1
  Ga  Ga15  1  0.79416150  0.00000000  0.77816850  1
  Ga  Ga16  1  0.50000000  0.29416150  0.72183150  1
  Ga  Ga17  1  0.50000000  0.80539700  0.89237700  1
  Ga  Ga18  1  0.30539700  0.00000000  0.60762300  1
  Ga  Ga19  1  0.69460300  0.00000000  0.60762300  1
  Ga  Ga20  1  0.50000000  0.19460300  0.89237700  1
  Ga  Ga21  1  0.20583850  0.00000000  0.77816850  1
  Ga  Ga22  1  0.50000000  0.70583850  0.72183150  1
  Ga  Ga23  1  0.00000000  0.00000000  0.50000000  1
