# generated using pymatgen
data_KNaV2O6
_symmetry_space_group_name_H-M   'P 1'
_cell_length_a   10.83802600
_cell_length_b   10.29087600
_cell_length_c   5.93297937
_cell_angle_alpha   90.00000000
_cell_angle_beta   104.84990445
_cell_angle_gamma   90.00000000
_symmetry_Int_Tables_number   1
_chemical_formula_structural   KNaV2O6
_chemical_formula_sum   'K4 Na4 V8 O24'
_cell_volume   639.62053840
_cell_formula_units_Z   4
loop_
 _symmetry_equiv_pos_site_id
 _symmetry_equiv_pos_as_xyz
  1  'x, y, z'
loop_
 _atom_site_type_symbol
 _atom_site_label
 _atom_site_symmetry_multiplicity
 _atom_site_fract_x
 _atom_site_fract_y
 _atom_site_fract_z
 _atom_site_occupancy
  K  K0  1  0.00000000  0.80196300  0.25000000  1
  K  K1  1  0.00000000  0.19803700  0.75000000  1
  K  K2  1  0.50000000  0.30196300  0.25000000  1
  K  K3  1  0.50000000  0.69803700  0.75000000  1
  Na  Na4  1  0.00000000  0.40543200  0.25000000  1
  Na  Na5  1  0.00000000  0.59456800  0.75000000  1
  Na  Na6  1  0.50000000  0.90543200  0.25000000  1
  Na  Na7  1  0.50000000  0.09456800  0.75000000  1
  V  V8  1  0.71414200  0.41519500  0.77761500  1
  V  V9  1  0.28585800  0.41519500  0.72238500  1
  V  V10  1  0.28585800  0.58480500  0.22238500  1
  V  V11  1  0.71414200  0.58480500  0.27761500  1
  V  V12  1  0.21414200  0.91519500  0.77761500  1
  V  V13  1  0.78585800  0.91519500  0.72238500  1
  V  V14  1  0.78585800  0.08480500  0.22238500  1
  V  V15  1  0.21414200  0.08480500  0.27761500  1
  O  O16  1  0.15345500  0.23368600  0.21443200  1
  O  O17  1  0.84654500  0.23368600  0.28556800  1
  O  O18  1  0.84654500  0.76631400  0.78556800  1
  O  O19  1  0.15345500  0.76631400  0.71443200  1
  O  O20  1  0.34479700  0.48643400  0.48601100  1
  O  O21  1  0.65520300  0.48643400  0.01398900  1
  O  O22  1  0.65520300  0.51356600  0.51398900  1
  O  O23  1  0.34479700  0.51356600  0.98601100  1
  O  O24  1  0.87467300  0.41240900  0.85059300  1
  O  O25  1  0.12532700  0.41240900  0.64940700  1
  O  O26  1  0.12532700  0.58759100  0.14940700  1
  O  O27  1  0.87467300  0.58759100  0.35059300  1
  O  O28  1  0.65345500  0.73368600  0.21443200  1
  O  O29  1  0.34654500  0.73368600  0.28556800  1
  O  O30  1  0.34654500  0.26631400  0.78556800  1
  O  O31  1  0.65345500  0.26631400  0.71443200  1
  O  O32  1  0.84479700  0.98643400  0.48601100  1
  O  O33  1  0.15520300  0.98643400  0.01398900  1
  O  O34  1  0.15520300  0.01356600  0.51398900  1
  O  O35  1  0.84479700  0.01356600  0.98601100  1
  O  O36  1  0.37467300  0.91240900  0.85059300  1
  O  O37  1  0.62532700  0.91240900  0.64940700  1
  O  O38  1  0.62532700  0.08759100  0.14940700  1
  O  O39  1  0.37467300  0.08759100  0.35059300  1
