# generated using pymatgen
data_RbAuO
_symmetry_space_group_name_H-M   'P 1'
_cell_length_a   10.14631400
_cell_length_b   10.14631400
_cell_length_c   5.94708400
_cell_angle_alpha   90.00000000
_cell_angle_beta   90.00000000
_cell_angle_gamma   90.00000000
_symmetry_Int_Tables_number   1
_chemical_formula_structural   RbAuO
_chemical_formula_sum   'Rb8 Au8 O8'
_cell_volume   612.23854687
_cell_formula_units_Z   8
loop_
 _symmetry_equiv_pos_site_id
 _symmetry_equiv_pos_as_xyz
  1  'x, y, z'
loop_
 _atom_site_type_symbol
 _atom_site_label
 _atom_site_symmetry_multiplicity
 _atom_site_fract_x
 _atom_site_fract_y
 _atom_site_fract_z
 _atom_site_occupancy
  Rb  Rb0  1  0.69329700  0.00000000  0.50000000  1
  Rb  Rb1  1  0.50000000  0.19329700  0.00000000  1
  Rb  Rb2  1  0.50000000  0.80670300  0.00000000  1
  Rb  Rb3  1  0.30670300  0.00000000  0.50000000  1
  Rb  Rb4  1  0.19329700  0.50000000  0.00000000  1
  Rb  Rb5  1  0.00000000  0.69329700  0.50000000  1
  Rb  Rb6  1  0.00000000  0.30670300  0.50000000  1
  Rb  Rb7  1  0.80670300  0.50000000  0.00000000  1
  Au  Au8  1  0.85162150  0.85162150  0.00000000  1
  Au  Au9  1  0.64837850  0.35162150  0.50000000  1
  Au  Au10  1  0.85162150  0.14837850  0.00000000  1
  Au  Au11  1  0.64837850  0.64837850  0.50000000  1
  Au  Au12  1  0.35162150  0.35162150  0.50000000  1
  Au  Au13  1  0.14837850  0.85162150  0.00000000  1
  Au  Au14  1  0.35162150  0.64837850  0.50000000  1
  Au  Au15  1  0.14837850  0.14837850  0.00000000  1
  O  O16  1  0.71266600  0.00000000  0.00000000  1
  O  O17  1  0.50000000  0.21266600  0.50000000  1
  O  O18  1  0.50000000  0.78733400  0.50000000  1
  O  O19  1  0.28733400  0.00000000  0.00000000  1
  O  O20  1  0.21266600  0.50000000  0.50000000  1
  O  O21  1  0.00000000  0.71266600  0.00000000  1
  O  O22  1  0.00000000  0.28733400  0.00000000  1
  O  O23  1  0.78733400  0.50000000  0.50000000  1
