# generated using pymatgen
data_Na3Y(Si2O5)3
_symmetry_space_group_name_H-M   'P 1'
_cell_length_a   14.89942600
_cell_length_b   17.95622200
_cell_length_c   10.62574300
_cell_angle_alpha   90.00000000
_cell_angle_beta   90.00000000
_cell_angle_gamma   90.00000000
_symmetry_Int_Tables_number   1
_chemical_formula_structural   Na3Y(Si2O5)3
_chemical_formula_sum   'Na24 Y8 Si48 O120'
_cell_volume   2842.78366515
_cell_formula_units_Z   8
loop_
 _symmetry_equiv_pos_site_id
 _symmetry_equiv_pos_as_xyz
  1  'x, y, z'
loop_
 _atom_site_type_symbol
 _atom_site_label
 _atom_site_symmetry_multiplicity
 _atom_site_fract_x
 _atom_site_fract_y
 _atom_site_fract_z
 _atom_site_occupancy
  Na  Na0  1  0.25000000  0.22133300  0.75000000  1
  Na  Na1  1  0.25000000  0.77866700  0.25000000  1
  Na  Na2  1  0.75000000  0.77866700  0.25000000  1
  Na  Na3  1  0.75000000  0.22133300  0.75000000  1
  Na  Na4  1  0.76110500  0.00000000  0.00000000  1
  Na  Na5  1  0.73889500  0.00000000  0.50000000  1
  Na  Na6  1  0.23889500  0.00000000  0.00000000  1
  Na  Na7  1  0.26110500  0.00000000  0.50000000  1
  Na  Na8  1  0.50000000  0.42797700  0.75024000  1
  Na  Na9  1  0.50000000  0.07202300  0.25024000  1
  Na  Na10  1  0.50000000  0.57202300  0.24976000  1
  Na  Na11  1  0.50000000  0.92797700  0.74976000  1
  Na  Na12  1  0.75000000  0.72133300  0.75000000  1
  Na  Na13  1  0.75000000  0.27866700  0.25000000  1
  Na  Na14  1  0.25000000  0.27866700  0.25000000  1
  Na  Na15  1  0.25000000  0.72133300  0.75000000  1
  Na  Na16  1  0.26110500  0.50000000  0.00000000  1
  Na  Na17  1  0.23889500  0.50000000  0.50000000  1
  Na  Na18  1  0.73889500  0.50000000  0.00000000  1
  Na  Na19  1  0.76110500  0.50000000  0.50000000  1
  Na  Na20  1  0.00000000  0.92797700  0.75024000  1
  Na  Na21  1  0.00000000  0.57202300  0.25024000  1
  Na  Na22  1  0.00000000  0.07202300  0.24976000  1
  Na  Na23  1  0.00000000  0.42797700  0.74976000  1
  Y  Y24  1  0.25000000  0.09091100  0.25000000  1
  Y  Y25  1  0.25000000  0.90908900  0.75000000  1
  Y  Y26  1  0.75000000  0.90908900  0.75000000  1
  Y  Y27  1  0.75000000  0.09091100  0.25000000  1
  Y  Y28  1  0.75000000  0.59091100  0.25000000  1
  Y  Y29  1  0.75000000  0.40908900  0.75000000  1
  Y  Y30  1  0.25000000  0.40908900  0.75000000  1
  Y  Y31  1  0.25000000  0.59091100  0.25000000  1
  Si  Si32  1  0.39483200  0.86549600  0.01984900  1
  Si  Si33  1  0.60516800  0.63450400  0.51984900  1
  Si  Si34  1  0.39483200  0.13450400  0.98015100  1
  Si  Si35  1  0.60516800  0.36549600  0.48015100  1
  Si  Si36  1  0.60516800  0.13450400  0.98015100  1
  Si  Si37  1  0.39483200  0.36549600  0.48015100  1
  Si  Si38  1  0.60516800  0.86549600  0.01984900  1
  Si  Si39  1  0.39483200  0.63450400  0.51984900  1
  Si  Si40  1  0.39499050  0.81001250  0.53519900  1
  Si  Si41  1  0.60500950  0.68998750  0.03519900  1
  Si  Si42  1  0.39499050  0.18998750  0.46480100  1
  Si  Si43  1  0.60500950  0.31001250  0.96480100  1
  Si  Si44  1  0.60500950  0.18998750  0.46480100  1
  Si  Si45  1  0.39499050  0.31001250  0.96480100  1
  Si  Si46  1  0.60500950  0.81001250  0.53519900  1
  Si  Si47  1  0.39499050  0.68998750  0.03519900  1
  Si  Si48  1  0.39110200  0.91881300  0.30028600  1
  Si  Si49  1  0.10889800  0.08118700  0.80028600  1
  Si  Si50  1  0.39110200  0.08118700  0.69971400  1
  Si  Si51  1  0.10889800  0.91881300  0.19971400  1
  Si  Si52  1  0.60889800  0.08118700  0.69971400  1
  Si  Si53  1  0.89110200  0.91881300  0.19971400  1
  Si  Si54  1  0.60889800  0.91881300  0.30028600  1
  Si  Si55  1  0.89110200  0.08118700  0.80028600  1
  Si  Si56  1  0.89483200  0.36549600  0.01984900  1
  Si  Si57  1  0.10516800  0.13450400  0.51984900  1
  Si  Si58  1  0.89483200  0.63450400  0.98015100  1
  Si  Si59  1  0.10516800  0.86549600  0.48015100  1
  Si  Si60  1  0.10516800  0.63450400  0.98015100  1
  Si  Si61  1  0.89483200  0.86549600  0.48015100  1
  Si  Si62  1  0.10516800  0.36549600  0.01984900  1
  Si  Si63  1  0.89483200  0.13450400  0.51984900  1
  Si  Si64  1  0.89499050  0.31001250  0.53519900  1
  Si  Si65  1  0.10500950  0.18998750  0.03519900  1
  Si  Si66  1  0.89499050  0.68998750  0.46480100  1
  Si  Si67  1  0.10500950  0.81001250  0.96480100  1
  Si  Si68  1  0.10500950  0.68998750  0.46480100  1
  Si  Si69  1  0.89499050  0.81001250  0.96480100  1
  Si  Si70  1  0.10500950  0.31001250  0.53519900  1
  Si  Si71  1  0.89499050  0.18998750  0.03519900  1
  Si  Si72  1  0.89110200  0.41881300  0.30028600  1
  Si  Si73  1  0.60889800  0.58118700  0.80028600  1
  Si  Si74  1  0.89110200  0.58118700  0.69971400  1
  Si  Si75  1  0.60889800  0.41881300  0.19971400  1
  Si  Si76  1  0.10889800  0.58118700  0.69971400  1
  Si  Si77  1  0.39110200  0.41881300  0.19971400  1
  Si  Si78  1  0.10889800  0.41881300  0.30028600  1
  Si  Si79  1  0.39110200  0.58118700  0.80028600  1
  O  O80  1  0.33417900  0.67754500  0.15727500  1
  O  O81  1  0.66582100  0.82245500  0.65727500  1
  O  O82  1  0.33417900  0.32245500  0.84272500  1
  O  O83  1  0.66582100  0.17754500  0.34272500  1
  O  O84  1  0.66582100  0.32245500  0.84272500  1
  O  O85  1  0.33417900  0.17754500  0.34272500  1
  O  O86  1  0.66582100  0.67754500  0.15727500  1
  O  O87  1  0.33417900  0.82245500  0.65727500  1
  O  O88  1  0.36223300  0.87500700  0.16894200  1
  O  O89  1  0.13776700  0.12499300  0.66894200  1
  O  O90  1  0.36223300  0.12499300  0.83105800  1
  O  O91  1  0.13776700  0.87500700  0.33105800  1
  O  O92  1  0.63776700  0.12499300  0.83105800  1
  O  O93  1  0.86223300  0.87500700  0.33105800  1
  O  O94  1  0.63776700  0.87500700  0.16894200  1
  O  O95  1  0.86223300  0.12499300  0.66894200  1
  O  O96  1  0.39083950  0.72367150  0.48643400  1
  O  O97  1  0.60916050  0.77632850  0.98643400  1
  O  O98  1  0.39083950  0.27632850  0.51356600  1
  O  O99  1  0.60916050  0.22367150  0.01356600  1
  O  O100  1  0.60916050  0.27632850  0.51356600  1
  O  O101  1  0.39083950  0.22367150  0.01356600  1
  O  O102  1  0.60916050  0.72367150  0.48643400  1
  O  O103  1  0.39083950  0.77632850  0.98643400  1
  O  O104  1  0.50000000  0.16550600  0.43221900  1
  O  O105  1  0.83484100  0.08722700  0.42487800  1
  O  O106  1  0.83484100  0.91277300  0.57512200  1
  O  O107  1  0.66515900  0.08722700  0.07512200  1
  O  O108  1  0.16515900  0.91277300  0.57512200  1
  O  O109  1  0.33484100  0.08722700  0.07512200  1
  O  O110  1  0.16515900  0.08722700  0.42487800  1
  O  O111  1  0.33484100  0.91277300  0.92487800  1
  O  O112  1  0.65520450  0.99854050  0.31872800  1
  O  O113  1  0.84479550  0.00145950  0.81872800  1
  O  O114  1  0.65520450  0.00145950  0.68127200  1
  O  O115  1  0.84479550  0.99854050  0.18127200  1
  O  O116  1  0.34479550  0.00145950  0.68127200  1
  O  O117  1  0.15520450  0.99854050  0.18127200  1
  O  O118  1  0.34479550  0.99854050  0.31872800  1
  O  O119  1  0.15520450  0.00145950  0.81872800  1
  O  O120  1  0.50000000  0.56829300  0.79865400  1
  O  O121  1  0.50000000  0.93170700  0.29865400  1
  O  O122  1  0.50000000  0.43170700  0.20134600  1
  O  O123  1  0.50000000  0.06829300  0.70134600  1
  O  O124  1  0.50000000  0.60711900  0.50568600  1
  O  O125  1  0.50000000  0.89288100  0.00568600  1
  O  O126  1  0.50000000  0.39288100  0.49431400  1
  O  O127  1  0.50000000  0.10711900  0.99431400  1
  O  O128  1  0.63812050  0.13990050  0.58745600  1
  O  O129  1  0.36187950  0.36009950  0.08745600  1
  O  O130  1  0.63812050  0.86009950  0.41254400  1
  O  O131  1  0.36187950  0.63990050  0.91254400  1
  O  O132  1  0.36187950  0.86009950  0.41254400  1
  O  O133  1  0.63812050  0.63990050  0.91254400  1
  O  O134  1  0.36187950  0.13990050  0.58745600  1
  O  O135  1  0.63812050  0.36009950  0.08745600  1
  O  O136  1  0.50000000  0.66550600  0.06778100  1
  O  O137  1  0.50000000  0.83449400  0.56778100  1
  O  O138  1  0.50000000  0.33449400  0.93221900  1
  O  O139  1  0.66515900  0.91277300  0.92487800  1
  O  O140  1  0.83417900  0.17754500  0.15727500  1
  O  O141  1  0.16582100  0.32245500  0.65727500  1
  O  O142  1  0.83417900  0.82245500  0.84272500  1
  O  O143  1  0.16582100  0.67754500  0.34272500  1
  O  O144  1  0.16582100  0.82245500  0.84272500  1
  O  O145  1  0.83417900  0.67754500  0.34272500  1
  O  O146  1  0.16582100  0.17754500  0.15727500  1
  O  O147  1  0.83417900  0.32245500  0.65727500  1
  O  O148  1  0.86223300  0.37500700  0.16894200  1
  O  O149  1  0.63776700  0.62499300  0.66894200  1
  O  O150  1  0.86223300  0.62499300  0.83105800  1
  O  O151  1  0.63776700  0.37500700  0.33105800  1
  O  O152  1  0.13776700  0.62499300  0.83105800  1
  O  O153  1  0.36223300  0.37500700  0.33105800  1
  O  O154  1  0.13776700  0.37500700  0.16894200  1
  O  O155  1  0.36223300  0.62499300  0.66894200  1
  O  O156  1  0.89083950  0.22367150  0.48643400  1
  O  O157  1  0.10916050  0.27632850  0.98643400  1
  O  O158  1  0.89083950  0.77632850  0.51356600  1
  O  O159  1  0.10916050  0.72367150  0.01356600  1
  O  O160  1  0.10916050  0.77632850  0.51356600  1
  O  O161  1  0.89083950  0.72367150  0.01356600  1
  O  O162  1  0.10916050  0.22367150  0.48643400  1
  O  O163  1  0.89083950  0.27632850  0.98643400  1
  O  O164  1  0.00000000  0.66550600  0.43221900  1
  O  O165  1  0.33484100  0.58722700  0.42487800  1
  O  O166  1  0.33484100  0.41277300  0.57512200  1
  O  O167  1  0.16515900  0.58722700  0.07512200  1
  O  O168  1  0.66515900  0.41277300  0.57512200  1
  O  O169  1  0.83484100  0.58722700  0.07512200  1
  O  O170  1  0.66515900  0.58722700  0.42487800  1
  O  O171  1  0.83484100  0.41277300  0.92487800  1
  O  O172  1  0.15520450  0.49854050  0.31872800  1
  O  O173  1  0.34479550  0.50145950  0.81872800  1
  O  O174  1  0.15520450  0.50145950  0.68127200  1
  O  O175  1  0.34479550  0.49854050  0.18127200  1
  O  O176  1  0.84479550  0.50145950  0.68127200  1
  O  O177  1  0.65520450  0.49854050  0.18127200  1
  O  O178  1  0.84479550  0.49854050  0.31872800  1
  O  O179  1  0.65520450  0.50145950  0.81872800  1
  O  O180  1  0.00000000  0.06829300  0.79865400  1
  O  O181  1  0.00000000  0.43170700  0.29865400  1
  O  O182  1  0.00000000  0.93170700  0.20134600  1
  O  O183  1  0.00000000  0.56829300  0.70134600  1
  O  O184  1  0.00000000  0.10711900  0.50568600  1
  O  O185  1  0.00000000  0.39288100  0.00568600  1
  O  O186  1  0.00000000  0.89288100  0.49431400  1
  O  O187  1  0.00000000  0.60711900  0.99431400  1
  O  O188  1  0.13812050  0.63990050  0.58745600  1
  O  O189  1  0.86187950  0.86009950  0.08745600  1
  O  O190  1  0.13812050  0.36009950  0.41254400  1
  O  O191  1  0.86187950  0.13990050  0.91254400  1
  O  O192  1  0.86187950  0.36009950  0.41254400  1
  O  O193  1  0.13812050  0.13990050  0.91254400  1
  O  O194  1  0.86187950  0.63990050  0.58745600  1
  O  O195  1  0.13812050  0.86009950  0.08745600  1
  O  O196  1  0.00000000  0.16550600  0.06778100  1
  O  O197  1  0.00000000  0.33449400  0.56778100  1
  O  O198  1  0.00000000  0.83449400  0.93221900  1
  O  O199  1  0.16515900  0.41277300  0.92487800  1
