# generated using pymatgen
data_Ba3MgGeN4
_symmetry_space_group_name_H-M   'P 1'
_cell_length_a   6.29723500
_cell_length_b   10.25436300
_cell_length_c   10.70242700
_cell_angle_alpha   90.00000000
_cell_angle_beta   90.00000000
_cell_angle_gamma   90.00000000
_symmetry_Int_Tables_number   1
_chemical_formula_structural   Ba3MgGeN4
_chemical_formula_sum   'Ba12 Mg4 Ge4 N16'
_cell_volume   691.09995080
_cell_formula_units_Z   4
loop_
 _symmetry_equiv_pos_site_id
 _symmetry_equiv_pos_as_xyz
  1  'x, y, z'
loop_
 _atom_site_type_symbol
 _atom_site_label
 _atom_site_symmetry_multiplicity
 _atom_site_fract_x
 _atom_site_fract_y
 _atom_site_fract_z
 _atom_site_occupancy
  Ba  Ba0  1  0.11450300  0.58974000  0.65558300  1
  Ba  Ba1  1  0.38549700  0.58974000  0.34441700  1
  Ba  Ba2  1  0.11450300  0.91026000  0.84441700  1
  Ba  Ba3  1  0.38549700  0.91026000  0.15558300  1
  Ba  Ba4  1  0.88549700  0.41026000  0.34441700  1
  Ba  Ba5  1  0.61450300  0.41026000  0.65558300  1
  Ba  Ba6  1  0.88549700  0.08974000  0.15558300  1
  Ba  Ba7  1  0.61450300  0.08974000  0.84441700  1
  Ba  Ba8  1  0.75000000  0.09114500  0.50000000  1
  Ba  Ba9  1  0.75000000  0.40885500  0.00000000  1
  Ba  Ba10  1  0.25000000  0.90885500  0.50000000  1
  Ba  Ba11  1  0.25000000  0.59114500  0.00000000  1
  Mg  Mg12  1  0.66187200  0.75000000  0.75000000  1
  Mg  Mg13  1  0.83812800  0.75000000  0.25000000  1
  Mg  Mg14  1  0.33812800  0.25000000  0.25000000  1
  Mg  Mg15  1  0.16187200  0.25000000  0.75000000  1
  Ge  Ge16  1  0.75000000  0.76726800  0.50000000  1
  Ge  Ge17  1  0.75000000  0.73273200  0.00000000  1
  Ge  Ge18  1  0.25000000  0.23273200  0.50000000  1
  Ge  Ge19  1  0.25000000  0.26726800  0.00000000  1
  N  N20  1  0.52724100  0.66706100  0.58360700  1
  N  N21  1  0.97275900  0.66706100  0.41639300  1
  N  N22  1  0.52724100  0.83293900  0.91639300  1
  N  N23  1  0.97275900  0.83293900  0.08360700  1
  N  N24  1  0.47275900  0.33293900  0.41639300  1
  N  N25  1  0.02724100  0.33293900  0.58360700  1
  N  N26  1  0.47275900  0.16706100  0.08360700  1
  N  N27  1  0.02724100  0.16706100  0.91639300  1
  N  N28  1  0.86823800  0.63328300  0.86472800  1
  N  N29  1  0.63176200  0.63328300  0.13527200  1
  N  N30  1  0.86823800  0.86671700  0.63527200  1
  N  N31  1  0.63176200  0.86671700  0.36472800  1
  N  N32  1  0.13176200  0.36671700  0.13527200  1
  N  N33  1  0.36823800  0.36671700  0.86472800  1
  N  N34  1  0.13176200  0.13328300  0.36472800  1
  N  N35  1  0.36823800  0.13328300  0.63527200  1
