# generated using pymatgen
data_K2Ca3Si3O10
_symmetry_space_group_name_H-M   'P 1'
_cell_length_a   10.44821200
_cell_length_b   10.75952200
_cell_length_c   9.92870343
_cell_angle_alpha   90.00000000
_cell_angle_beta   117.79747775
_cell_angle_gamma   90.00000000
_symmetry_Int_Tables_number   1
_chemical_formula_structural   K2Ca3Si3O10
_chemical_formula_sum   'K8 Ca12 Si12 O40'
_cell_volume   987.35917590
_cell_formula_units_Z   4
loop_
 _symmetry_equiv_pos_site_id
 _symmetry_equiv_pos_as_xyz
  1  'x, y, z'
loop_
 _atom_site_type_symbol
 _atom_site_label
 _atom_site_symmetry_multiplicity
 _atom_site_fract_x
 _atom_site_fract_y
 _atom_site_fract_z
 _atom_site_occupancy
  K  K0  1  0.35214100  0.12140800  0.48897700  1
  K  K1  1  0.64785900  0.12140800  0.01102300  1
  K  K2  1  0.64785900  0.87859200  0.51102300  1
  K  K3  1  0.35214100  0.87859200  0.98897700  1
  K  K4  1  0.85214100  0.62140800  0.48897700  1
  K  K5  1  0.14785900  0.62140800  0.01102300  1
  K  K6  1  0.14785900  0.37859200  0.51102300  1
  K  K7  1  0.85214100  0.37859200  0.98897700  1
  Ca  Ca8  1  0.50000000  0.13031100  0.25000000  1
  Ca  Ca9  1  0.50000000  0.86968900  0.75000000  1
  Ca  Ca10  1  0.60280650  0.38110250  0.47791800  1
  Ca  Ca11  1  0.39719350  0.38110250  0.02208200  1
  Ca  Ca12  1  0.39719350  0.61889750  0.52208200  1
  Ca  Ca13  1  0.60280650  0.61889750  0.97791800  1
  Ca  Ca14  1  0.00000000  0.63031100  0.25000000  1
  Ca  Ca15  1  0.00000000  0.36968900  0.75000000  1
  Ca  Ca16  1  0.10280650  0.88110250  0.47791800  1
  Ca  Ca17  1  0.89719350  0.88110250  0.02208200  1
  Ca  Ca18  1  0.89719350  0.11889750  0.52208200  1
  Ca  Ca19  1  0.10280650  0.11889750  0.97791800  1
  Si  Si20  1  0.71419150  0.13828350  0.70755300  1
  Si  Si21  1  0.28580850  0.13828350  0.79244700  1
  Si  Si22  1  0.28580850  0.86171650  0.29244700  1
  Si  Si23  1  0.71419150  0.86171650  0.20755300  1
  Si  Si24  1  0.50000000  0.34069800  0.75000000  1
  Si  Si25  1  0.50000000  0.65930200  0.25000000  1
  Si  Si26  1  0.21419150  0.63828350  0.70755300  1
  Si  Si27  1  0.78580850  0.63828350  0.79244700  1
  Si  Si28  1  0.78580850  0.36171650  0.29244700  1
  Si  Si29  1  0.21419150  0.36171650  0.20755300  1
  Si  Si30  1  0.00000000  0.84069800  0.75000000  1
  Si  Si31  1  0.00000000  0.15930200  0.25000000  1
  O  O32  1  0.68493700  0.99525200  0.26664500  1
  O  O33  1  0.31506300  0.99525200  0.23335500  1
  O  O34  1  0.31506300  0.00474800  0.73335500  1
  O  O35  1  0.68493700  0.00474800  0.76664500  1
  O  O36  1  0.36741400  0.24755600  0.73695400  1
  O  O37  1  0.63258600  0.24755600  0.76304600  1
  O  O38  1  0.63258600  0.75244400  0.26304600  1
  O  O39  1  0.36741400  0.75244400  0.23695400  1
  O  O40  1  0.64040050  0.14668150  0.51909500  1
  O  O41  1  0.35959950  0.14668150  0.98090500  1
  O  O42  1  0.35959950  0.85331850  0.48090500  1
  O  O43  1  0.64040050  0.85331850  0.01909500  1
  O  O44  1  0.38119850  0.31504250  0.27290100  1
  O  O45  1  0.61880150  0.31504250  0.22709900  1
  O  O46  1  0.61880150  0.68495750  0.72709900  1
  O  O47  1  0.38119850  0.68495750  0.77290100  1
  O  O48  1  0.55560900  0.41616100  0.90763100  1
  O  O49  1  0.44439100  0.41616100  0.59236900  1
  O  O50  1  0.44439100  0.58383900  0.09236900  1
  O  O51  1  0.55560900  0.58383900  0.40763100  1
  O  O52  1  0.18493700  0.49525200  0.26664500  1
  O  O53  1  0.81506300  0.49525200  0.23335500  1
  O  O54  1  0.81506300  0.50474800  0.73335500  1
  O  O55  1  0.18493700  0.50474800  0.76664500  1
  O  O56  1  0.86741400  0.74755600  0.73695400  1
  O  O57  1  0.13258600  0.74755600  0.76304600  1
  O  O58  1  0.13258600  0.25244400  0.26304600  1
  O  O59  1  0.86741400  0.25244400  0.23695400  1
  O  O60  1  0.14040050  0.64668150  0.51909500  1
  O  O61  1  0.85959950  0.64668150  0.98090500  1
  O  O62  1  0.85959950  0.35331850  0.48090500  1
  O  O63  1  0.14040050  0.35331850  0.01909500  1
  O  O64  1  0.88119850  0.81504250  0.27290100  1
  O  O65  1  0.11880150  0.81504250  0.22709900  1
  O  O66  1  0.11880150  0.18495750  0.72709900  1
  O  O67  1  0.88119850  0.18495750  0.77290100  1
  O  O68  1  0.05560900  0.91616100  0.90763100  1
  O  O69  1  0.94439100  0.91616100  0.59236900  1
  O  O70  1  0.94439100  0.08383900  0.09236900  1
  O  O71  1  0.05560900  0.08383900  0.40763100  1
