# generated using pymatgen
data_VAg3O4
_symmetry_space_group_name_H-M   'P 1'
_cell_length_a   10.50921000
_cell_length_b   5.10270400
_cell_length_c   10.29693533
_cell_angle_alpha   90.00000000
_cell_angle_beta   116.34464576
_cell_angle_gamma   90.00000000
_symmetry_Int_Tables_number   1
_chemical_formula_structural   VAg3O4
_chemical_formula_sum   'V4 Ag12 O16'
_cell_volume   494.82853501
_cell_formula_units_Z   4
loop_
 _symmetry_equiv_pos_site_id
 _symmetry_equiv_pos_as_xyz
  1  'x, y, z'
loop_
 _atom_site_type_symbol
 _atom_site_label
 _atom_site_symmetry_multiplicity
 _atom_site_fract_x
 _atom_site_fract_y
 _atom_site_fract_z
 _atom_site_occupancy
  V  V0  1  0.50000000  0.05191700  0.25000000  1
  V  V1  1  0.50000000  0.94808300  0.75000000  1
  V  V2  1  0.00000000  0.55191700  0.25000000  1
  V  V3  1  0.00000000  0.44808300  0.75000000  1
  Ag  Ag4  1  0.24206350  0.45723050  0.09737500  1
  Ag  Ag5  1  0.74206350  0.04276950  0.59737500  1
  Ag  Ag6  1  0.75793650  0.54276950  0.90262500  1
  Ag  Ag7  1  0.25793650  0.95723050  0.40262500  1
  Ag  Ag8  1  0.00000000  0.00000000  0.00000000  1
  Ag  Ag9  1  0.50000000  0.50000000  0.50000000  1
  Ag  Ag10  1  0.74206350  0.95723050  0.09737500  1
  Ag  Ag11  1  0.24206350  0.54276950  0.59737500  1
  Ag  Ag12  1  0.25793650  0.04276950  0.90262500  1
  Ag  Ag13  1  0.75793650  0.45723050  0.40262500  1
  Ag  Ag14  1  0.50000000  0.50000000  0.00000000  1
  Ag  Ag15  1  0.00000000  0.00000000  0.50000000  1
  O  O16  1  0.88444150  0.25076450  0.79347800  1
  O  O17  1  0.61555850  0.75076450  0.70652200  1
  O  O18  1  0.11555850  0.74923550  0.20652200  1
  O  O19  1  0.38444150  0.24923550  0.29347800  1
  O  O20  1  0.40316450  0.84787850  0.10289000  1
  O  O21  1  0.59683550  0.15212150  0.89711000  1
  O  O22  1  0.59683550  0.84787850  0.39711000  1
  O  O23  1  0.40316450  0.15212150  0.60289000  1
  O  O24  1  0.38444150  0.75076450  0.79347800  1
  O  O25  1  0.11555850  0.25076450  0.70652200  1
  O  O26  1  0.61555850  0.24923550  0.20652200  1
  O  O27  1  0.88444150  0.74923550  0.29347800  1
  O  O28  1  0.90316450  0.34787850  0.10289000  1
  O  O29  1  0.09683550  0.65212150  0.89711000  1
  O  O30  1  0.09683550  0.34787850  0.39711000  1
  O  O31  1  0.90316450  0.65212150  0.60289000  1
