# generated using pymatgen
data_K2Al2Si3O10
_symmetry_space_group_name_H-M   'P 1'
_cell_length_a   6.65402600
_cell_length_b   17.29524200
_cell_length_c   18.55079600
_cell_angle_alpha   90.00000000
_cell_angle_beta   90.00000000
_cell_angle_gamma   90.00000000
_symmetry_Int_Tables_number   1
_chemical_formula_structural   K2Al2Si3O10
_chemical_formula_sum   'K16 Al16 Si24 O80'
_cell_volume   2134.88106953
_cell_formula_units_Z   8
loop_
 _symmetry_equiv_pos_site_id
 _symmetry_equiv_pos_as_xyz
  1  'x, y, z'
loop_
 _atom_site_type_symbol
 _atom_site_label
 _atom_site_symmetry_multiplicity
 _atom_site_fract_x
 _atom_site_fract_y
 _atom_site_fract_z
 _atom_site_occupancy
  K  K0  1  0.88622250  0.20884250  0.93743100  1
  K  K1  1  0.88622250  0.29115750  0.56256900  1
  K  K2  1  0.63622250  0.04115750  0.68743100  1
  K  K3  1  0.63622250  0.45884250  0.81256900  1
  K  K4  1  0.38622250  0.20884250  0.43743100  1
  K  K5  1  0.38622250  0.29115750  0.06256900  1
  K  K6  1  0.13622250  0.04115750  0.18743100  1
  K  K7  1  0.13622250  0.45884250  0.31256900  1
  K  K8  1  0.38622250  0.70884250  0.93743100  1
  K  K9  1  0.38622250  0.79115750  0.56256900  1
  K  K10  1  0.13622250  0.54115750  0.68743100  1
  K  K11  1  0.13622250  0.95884250  0.81256900  1
  K  K12  1  0.88622250  0.70884250  0.43743100  1
  K  K13  1  0.88622250  0.79115750  0.06256900  1
  K  K14  1  0.63622250  0.54115750  0.18743100  1
  K  K15  1  0.63622250  0.95884250  0.31256900  1
  Al  Al16  1  0.36355150  0.21478850  0.84781300  1
  Al  Al17  1  0.36355150  0.28521150  0.65218700  1
  Al  Al18  1  0.11355150  0.03521150  0.59781300  1
  Al  Al19  1  0.11355150  0.46478850  0.90218700  1
  Al  Al20  1  0.86355150  0.21478850  0.34781300  1
  Al  Al21  1  0.86355150  0.28521150  0.15218700  1
  Al  Al22  1  0.61355150  0.03521150  0.09781300  1
  Al  Al23  1  0.61355150  0.46478850  0.40218700  1
  Al  Al24  1  0.86355150  0.71478850  0.84781300  1
  Al  Al25  1  0.86355150  0.78521150  0.65218700  1
  Al  Al26  1  0.61355150  0.53521150  0.59781300  1
  Al  Al27  1  0.61355150  0.96478850  0.90218700  1
  Al  Al28  1  0.36355150  0.71478850  0.34781300  1
  Al  Al29  1  0.36355150  0.78521150  0.15218700  1
  Al  Al30  1  0.11355150  0.53521150  0.09781300  1
  Al  Al31  1  0.11355150  0.96478850  0.40218700  1
  Si  Si32  1  0.74481200  0.25000000  0.75000000  1
  Si  Si33  1  0.49481200  0.00000000  0.50000000  1
  Si  Si34  1  0.37081350  0.10570500  0.97168650  1
  Si  Si35  1  0.37081350  0.39429500  0.52831350  1
  Si  Si36  1  0.12081350  0.14429500  0.72168650  1
  Si  Si37  1  0.12081350  0.35570500  0.77831350  1
  Si  Si38  1  0.24481200  0.25000000  0.25000000  1
  Si  Si39  1  0.99481200  0.00000000  0.00000000  1
  Si  Si40  1  0.87081350  0.10570500  0.47168650  1
  Si  Si41  1  0.87081350  0.39429500  0.02831350  1
  Si  Si42  1  0.62081350  0.14429500  0.22168650  1
  Si  Si43  1  0.62081350  0.35570500  0.27831350  1
  Si  Si44  1  0.24481200  0.75000000  0.75000000  1
  Si  Si45  1  0.99481200  0.50000000  0.50000000  1
  Si  Si46  1  0.87081350  0.60570500  0.97168650  1
  Si  Si47  1  0.87081350  0.89429500  0.52831350  1
  Si  Si48  1  0.62081350  0.64429500  0.72168650  1
  Si  Si49  1  0.62081350  0.85570500  0.77831350  1
  Si  Si50  1  0.74481200  0.75000000  0.25000000  1
  Si  Si51  1  0.49481200  0.50000000  0.00000000  1
  Si  Si52  1  0.37081350  0.60570500  0.47168650  1
  Si  Si53  1  0.37081350  0.89429500  0.02831350  1
  Si  Si54  1  0.12081350  0.64429500  0.22168650  1
  Si  Si55  1  0.12081350  0.85570500  0.27831350  1
  O  O56  1  0.61535800  0.22157150  0.81926950  1
  O  O57  1  0.61535800  0.27842850  0.68073050  1
  O  O58  1  0.36535800  0.02842850  0.56926950  1
  O  O59  1  0.36535800  0.47157150  0.93073050  1
  O  O60  1  0.35548550  0.19493750  0.94184300  1
  O  O61  1  0.35548550  0.30506250  0.55815700  1
  O  O62  1  0.10548550  0.05506250  0.69184300  1
  O  O63  1  0.10548550  0.44493750  0.80815700  1
  O  O64  1  0.21759500  0.14416050  0.80238150  1
  O  O65  1  0.21759500  0.35583950  0.69761850  1
  O  O66  1  0.96759500  0.10583950  0.55238150  1
  O  O67  1  0.96759500  0.39416050  0.94761850  1
  O  O68  1  0.50010550  0.05499300  0.91493050  1
  O  O69  1  0.50010550  0.44500700  0.58506950  1
  O  O70  1  0.25010550  0.19500700  0.66493050  1
  O  O71  1  0.25010550  0.30499300  0.83506950  1
  O  O72  1  0.13512150  0.07369850  0.97454900  1
  O  O73  1  0.13512150  0.42630150  0.52545100  1
  O  O74  1  0.88512150  0.17630150  0.72454900  1
  O  O75  1  0.88512150  0.32369850  0.77545100  1
  O  O76  1  0.11535800  0.22157150  0.31926950  1
  O  O77  1  0.11535800  0.27842850  0.18073050  1
  O  O78  1  0.86535800  0.02842850  0.06926950  1
  O  O79  1  0.86535800  0.47157150  0.43073050  1
  O  O80  1  0.85548550  0.19493750  0.44184300  1
  O  O81  1  0.85548550  0.30506250  0.05815700  1
  O  O82  1  0.60548550  0.05506250  0.19184300  1
  O  O83  1  0.60548550  0.44493750  0.30815700  1
  O  O84  1  0.71759500  0.14416050  0.30238150  1
  O  O85  1  0.71759500  0.35583950  0.19761850  1
  O  O86  1  0.46759500  0.10583950  0.05238150  1
  O  O87  1  0.46759500  0.39416050  0.44761850  1
  O  O88  1  0.00010550  0.05499300  0.41493050  1
  O  O89  1  0.00010550  0.44500700  0.08506950  1
  O  O90  1  0.75010550  0.19500700  0.16493050  1
  O  O91  1  0.75010550  0.30499300  0.33506950  1
  O  O92  1  0.63512150  0.07369850  0.47454900  1
  O  O93  1  0.63512150  0.42630150  0.02545100  1
  O  O94  1  0.38512150  0.17630150  0.22454900  1
  O  O95  1  0.38512150  0.32369850  0.27545100  1
  O  O96  1  0.11535800  0.72157150  0.81926950  1
  O  O97  1  0.11535800  0.77842850  0.68073050  1
  O  O98  1  0.86535800  0.52842850  0.56926950  1
  O  O99  1  0.86535800  0.97157150  0.93073050  1
  O  O100  1  0.85548550  0.69493750  0.94184300  1
  O  O101  1  0.85548550  0.80506250  0.55815700  1
  O  O102  1  0.60548550  0.55506250  0.69184300  1
  O  O103  1  0.60548550  0.94493750  0.80815700  1
  O  O104  1  0.71759500  0.64416050  0.80238150  1
  O  O105  1  0.71759500  0.85583950  0.69761850  1
  O  O106  1  0.46759500  0.60583950  0.55238150  1
  O  O107  1  0.46759500  0.89416050  0.94761850  1
  O  O108  1  0.00010550  0.55499300  0.91493050  1
  O  O109  1  0.00010550  0.94500700  0.58506950  1
  O  O110  1  0.75010550  0.69500700  0.66493050  1
  O  O111  1  0.75010550  0.80499300  0.83506950  1
  O  O112  1  0.63512150  0.57369850  0.97454900  1
  O  O113  1  0.63512150  0.92630150  0.52545100  1
  O  O114  1  0.38512150  0.67630150  0.72454900  1
  O  O115  1  0.38512150  0.82369850  0.77545100  1
  O  O116  1  0.61535800  0.72157150  0.31926950  1
  O  O117  1  0.61535800  0.77842850  0.18073050  1
  O  O118  1  0.36535800  0.52842850  0.06926950  1
  O  O119  1  0.36535800  0.97157150  0.43073050  1
  O  O120  1  0.35548550  0.69493750  0.44184300  1
  O  O121  1  0.35548550  0.80506250  0.05815700  1
  O  O122  1  0.10548550  0.55506250  0.19184300  1
  O  O123  1  0.10548550  0.94493750  0.30815700  1
  O  O124  1  0.21759500  0.64416050  0.30238150  1
  O  O125  1  0.21759500  0.85583950  0.19761850  1
  O  O126  1  0.96759500  0.60583950  0.05238150  1
  O  O127  1  0.96759500  0.89416050  0.44761850  1
  O  O128  1  0.50010550  0.55499300  0.41493050  1
  O  O129  1  0.50010550  0.94500700  0.08506950  1
  O  O130  1  0.25010550  0.69500700  0.16493050  1
  O  O131  1  0.25010550  0.80499300  0.33506950  1
  O  O132  1  0.13512150  0.57369850  0.47454900  1
  O  O133  1  0.13512150  0.92630150  0.02545100  1
  O  O134  1  0.88512150  0.67630150  0.22454900  1
  O  O135  1  0.88512150  0.82369850  0.27545100  1
