# generated using pymatgen
data_BaBOF3
_symmetry_space_group_name_H-M   'P 1'
_cell_length_a   5.18189800
_cell_length_b   6.95176300
_cell_length_c   9.35712100
_cell_angle_alpha   90.00000000
_cell_angle_beta   90.00000000
_cell_angle_gamma   90.00000000
_symmetry_Int_Tables_number   1
_chemical_formula_structural   BaBOF3
_chemical_formula_sum   'Ba4 B4 O4 F12'
_cell_volume   337.07462756
_cell_formula_units_Z   4
loop_
 _symmetry_equiv_pos_site_id
 _symmetry_equiv_pos_as_xyz
  1  'x, y, z'
loop_
 _atom_site_type_symbol
 _atom_site_label
 _atom_site_symmetry_multiplicity
 _atom_site_fract_x
 _atom_site_fract_y
 _atom_site_fract_z
 _atom_site_occupancy
  Ba  Ba0  1  0.25000000  0.32417100  0.69185400  1
  Ba  Ba1  1  0.75000000  0.67582900  0.30814600  1
  Ba  Ba2  1  0.75000000  0.82417100  0.80814600  1
  Ba  Ba3  1  0.25000000  0.17582900  0.19185400  1
  B  B4  1  0.25000000  0.82449300  0.57865900  1
  B  B5  1  0.75000000  0.17550700  0.42134100  1
  B  B6  1  0.75000000  0.32449300  0.92134100  1
  B  B7  1  0.25000000  0.67550700  0.07865900  1
  O  O8  1  0.75000000  0.43687200  0.80368900  1
  O  O9  1  0.75000000  0.06312800  0.30368900  1
  O  O10  1  0.25000000  0.93687200  0.69631100  1
  O  O11  1  0.25000000  0.56312800  0.19631100  1
  F  F12  1  0.25000000  0.58938400  0.93688000  1
  F  F13  1  0.75000000  0.41061600  0.06312000  1
  F  F14  1  0.75000000  0.08938400  0.56312000  1
  F  F15  1  0.25000000  0.91061600  0.43688000  1
  F  F16  1  0.52646300  0.31517600  0.42850300  1
  F  F17  1  0.97353700  0.18482400  0.92850300  1
  F  F18  1  0.47353700  0.81517600  0.07149700  1
  F  F19  1  0.02646300  0.68482400  0.57149700  1
  F  F20  1  0.02646300  0.81517600  0.07149700  1
  F  F21  1  0.52646300  0.18482400  0.92850300  1
  F  F22  1  0.97353700  0.31517600  0.42850300  1
  F  F23  1  0.47353700  0.68482400  0.57149700  1
