# generated using pymatgen
data_KNa2BN2
_symmetry_space_group_name_H-M   'P 1'
_cell_length_a   4.26681200
_cell_length_b   4.26681200
_cell_length_c   10.36006800
_cell_angle_alpha   90.00000000
_cell_angle_beta   90.00000000
_cell_angle_gamma   90.00000000
_symmetry_Int_Tables_number   1
_chemical_formula_structural   KNa2BN2
_chemical_formula_sum   'K2 Na4 B2 N4'
_cell_volume   188.61213089
_cell_formula_units_Z   2
loop_
 _symmetry_equiv_pos_site_id
 _symmetry_equiv_pos_as_xyz
  1  'x, y, z'
loop_
 _atom_site_type_symbol
 _atom_site_label
 _atom_site_symmetry_multiplicity
 _atom_site_fract_x
 _atom_site_fract_y
 _atom_site_fract_z
 _atom_site_occupancy
  K  K0  1  0.50000000  0.50000000  0.00000000  1
  K  K1  1  0.00000000  0.00000000  0.50000000  1
  Na  Na2  1  0.50000000  0.00000000  0.25000000  1
  Na  Na3  1  0.00000000  0.50000000  0.25000000  1
  Na  Na4  1  0.00000000  0.50000000  0.75000000  1
  Na  Na5  1  0.50000000  0.00000000  0.75000000  1
  B  B6  1  0.00000000  0.00000000  0.00000000  1
  B  B7  1  0.50000000  0.50000000  0.50000000  1
  N  N8  1  0.50000000  0.50000000  0.36924400  1
  N  N9  1  0.00000000  0.00000000  0.13075600  1
  N  N10  1  0.00000000  0.00000000  0.86924400  1
  N  N11  1  0.50000000  0.50000000  0.63075600  1
