# generated using pymatgen
data_SrGa4O7
_symmetry_space_group_name_H-M   'P 1'
_cell_length_a   13.65056200
_cell_length_b   9.31919600
_cell_length_c   5.77642166
_cell_angle_alpha   90.00000000
_cell_angle_beta   105.47413934
_cell_angle_gamma   90.00000000
_symmetry_Int_Tables_number   1
_chemical_formula_structural   SrGa4O7
_chemical_formula_sum   'Sr4 Ga16 O28'
_cell_volume   708.19473773
_cell_formula_units_Z   4
loop_
 _symmetry_equiv_pos_site_id
 _symmetry_equiv_pos_as_xyz
  1  'x, y, z'
loop_
 _atom_site_type_symbol
 _atom_site_label
 _atom_site_symmetry_multiplicity
 _atom_site_fract_x
 _atom_site_fract_y
 _atom_site_fract_z
 _atom_site_occupancy
  Sr  Sr0  1  0.50000000  0.18904500  0.25000000  1
  Sr  Sr1  1  0.50000000  0.81095500  0.75000000  1
  Sr  Sr2  1  0.00000000  0.68904500  0.25000000  1
  Sr  Sr3  1  0.00000000  0.31095500  0.75000000  1
  Ga  Ga4  1  0.66837100  0.91270100  0.30010400  1
  Ga  Ga5  1  0.33162900  0.91270100  0.19989600  1
  Ga  Ga6  1  0.33162900  0.08729900  0.69989600  1
  Ga  Ga7  1  0.66837100  0.08729900  0.80010400  1
  Ga  Ga8  1  0.11937200  0.06202000  0.25866800  1
  Ga  Ga9  1  0.88062800  0.06202000  0.24133200  1
  Ga  Ga10  1  0.11937200  0.93798000  0.75866800  1
  Ga  Ga11  1  0.88062800  0.93798000  0.74133200  1
  Ga  Ga12  1  0.16837100  0.41270100  0.30010400  1
  Ga  Ga13  1  0.83162900  0.41270100  0.19989600  1
  Ga  Ga14  1  0.83162900  0.58729900  0.69989600  1
  Ga  Ga15  1  0.16837100  0.58729900  0.80010400  1
  Ga  Ga16  1  0.61937200  0.56202000  0.25866800  1
  Ga  Ga17  1  0.38062800  0.56202000  0.24133200  1
  Ga  Ga18  1  0.61937200  0.43798000  0.75866800  1
  Ga  Ga19  1  0.38062800  0.43798000  0.74133200  1
  O  O20  1  0.50000000  0.46614800  0.25000000  1
  O  O21  1  0.50000000  0.53385200  0.75000000  1
  O  O22  1  0.61969900  0.74429800  0.14647500  1
  O  O23  1  0.38030100  0.74429800  0.35352500  1
  O  O24  1  0.38030100  0.25570200  0.85352500  1
  O  O25  1  0.61969900  0.25570200  0.64647500  1
  O  O26  1  0.38343000  0.04778100  0.44141400  1
  O  O27  1  0.61657000  0.04778100  0.05858600  1
  O  O28  1  0.81131550  0.06172450  0.90687300  1
  O  O29  1  0.18868450  0.06172450  0.59312700  1
  O  O30  1  0.18868450  0.93827550  0.09312700  1
  O  O31  1  0.81131550  0.93827550  0.40687300  1
  O  O32  1  0.38343000  0.95221900  0.94141400  1
  O  O33  1  0.61657000  0.95221900  0.55858600  1
  O  O34  1  0.00000000  0.96614800  0.25000000  1
  O  O35  1  0.00000000  0.03385200  0.75000000  1
  O  O36  1  0.11969900  0.24429800  0.14647500  1
  O  O37  1  0.88030100  0.24429800  0.35352500  1
  O  O38  1  0.88030100  0.75570200  0.85352500  1
  O  O39  1  0.11969900  0.75570200  0.64647500  1
  O  O40  1  0.88343000  0.54778100  0.44141400  1
  O  O41  1  0.11657000  0.54778100  0.05858600  1
  O  O42  1  0.31131550  0.56172450  0.90687300  1
  O  O43  1  0.68868450  0.56172450  0.59312700  1
  O  O44  1  0.68868450  0.43827550  0.09312700  1
  O  O45  1  0.31131550  0.43827550  0.40687300  1
  O  O46  1  0.88343000  0.45221900  0.94141400  1
  O  O47  1  0.11657000  0.45221900  0.55858600  1
