# generated using pymatgen
data_BaNi2(AsO4)2
_symmetry_space_group_name_H-M   'P 1'
_cell_length_a   5.02479822
_cell_length_b   5.02479822
_cell_length_c   24.14987708
_cell_angle_alpha   90.00000000
_cell_angle_beta   90.00000000
_cell_angle_gamma   120.00000000
_symmetry_Int_Tables_number   1
_chemical_formula_structural   BaNi2(AsO4)2
_chemical_formula_sum   'Ba3 Ni6 As6 O24'
_cell_volume   528.05943847
_cell_formula_units_Z   3
loop_
 _symmetry_equiv_pos_site_id
 _symmetry_equiv_pos_as_xyz
  1  'x, y, z'
loop_
 _atom_site_type_symbol
 _atom_site_label
 _atom_site_symmetry_multiplicity
 _atom_site_fract_x
 _atom_site_fract_y
 _atom_site_fract_z
 _atom_site_occupancy
  Ba  Ba0  1  0.00000000  0.00000000  0.00000000  1
  Ba  Ba1  1  0.66666667  0.33333333  0.33333333  1
  Ba  Ba2  1  0.33333333  0.66666667  0.66666667  1
  Ni  Ni3  1  0.66666667  0.33333333  0.16450933  1
  Ni  Ni4  1  0.00000000  0.00000000  0.16882400  1
  Ni  Ni5  1  0.33333333  0.66666667  0.49784267  1
  Ni  Ni6  1  0.66666667  0.33333333  0.50215733  1
  Ni  Ni7  1  0.00000000  0.00000000  0.83117600  1
  Ni  Ni8  1  0.33333333  0.66666667  0.83549067  1
  As  As9  1  0.33333333  0.66666667  0.23896533  1
  As  As10  1  0.33333333  0.66666667  0.09436800  1
  As  As11  1  0.00000000  0.00000000  0.57229867  1
  As  As12  1  0.00000000  0.00000000  0.42770133  1
  As  As13  1  0.66666667  0.33333333  0.90563200  1
  As  As14  1  0.66666667  0.33333333  0.76103467  1
  O  O15  1  0.33333333  0.66666667  0.02422000  1
  O  O16  1  0.33333333  0.66666667  0.30911333  1
  O  O17  1  0.65938067  0.65753233  0.21714133  1
  O  O18  1  0.99815167  0.34061933  0.21714133  1
  O  O19  1  0.34246767  0.00184833  0.21714133  1
  O  O20  1  0.00728600  0.67580100  0.11619200  1
  O  O21  1  0.66851500  0.99271400  0.11619200  1
  O  O22  1  0.32419900  0.33148500  0.11619200  1
  O  O23  1  0.00000000  0.00000000  0.35755333  1
  O  O24  1  0.00000000  0.00000000  0.64244667  1
  O  O25  1  0.32604733  0.99086567  0.55047467  1
  O  O26  1  0.66481833  0.67395267  0.55047467  1
  O  O27  1  0.00913433  0.33518167  0.55047467  1
  O  O28  1  0.67395267  0.00913433  0.44952533  1
  O  O29  1  0.33518167  0.32604733  0.44952533  1
  O  O30  1  0.99086567  0.66481833  0.44952533  1
  O  O31  1  0.66666667  0.33333333  0.69088667  1
  O  O32  1  0.66666667  0.33333333  0.97578000  1
  O  O33  1  0.99271400  0.32419900  0.88380800  1
  O  O34  1  0.33148500  0.00728600  0.88380800  1
  O  O35  1  0.67580100  0.66851500  0.88380800  1
  O  O36  1  0.34061933  0.34246767  0.78285867  1
  O  O37  1  0.00184833  0.65938067  0.78285867  1
  O  O38  1  0.65753233  0.99815167  0.78285867  1
