# generated using pymatgen
data_RbLuSe2
_symmetry_space_group_name_H-M   'P 1'
_cell_length_a   4.16748169
_cell_length_b   4.16748169
_cell_length_c   23.93731533
_cell_angle_alpha   90.00000000
_cell_angle_beta   90.00000000
_cell_angle_gamma   120.00000000
_symmetry_Int_Tables_number   1
_chemical_formula_structural   RbLuSe2
_chemical_formula_sum   'Rb3 Lu3 Se6'
_cell_volume   360.04225528
_cell_formula_units_Z   3
loop_
 _symmetry_equiv_pos_site_id
 _symmetry_equiv_pos_as_xyz
  1  'x, y, z'
loop_
 _atom_site_type_symbol
 _atom_site_label
 _atom_site_symmetry_multiplicity
 _atom_site_fract_x
 _atom_site_fract_y
 _atom_site_fract_z
 _atom_site_occupancy
  Rb  Rb0  1  0.00000000  0.00000000  0.00000000  1
  Rb  Rb1  1  0.66666667  0.33333333  0.33333333  1
  Rb  Rb2  1  0.33333333  0.66666667  0.66666667  1
  Lu  Lu3  1  0.33333333  0.66666667  0.16666667  1
  Lu  Lu4  1  1.00000000  1.00000000  0.50000000  1
  Lu  Lu5  1  0.66666667  0.33333333  0.83333333  1
  Se  Se6  1  0.00000000  0.00000000  0.23062800  1
  Se  Se7  1  0.66666667  0.33333333  0.10270533  1
  Se  Se8  1  0.66666667  0.33333333  0.56396133  1
  Se  Se9  1  0.33333333  0.66666667  0.43603867  1
  Se  Se10  1  0.33333333  0.66666667  0.89729467  1
  Se  Se11  1  0.00000000  0.00000000  0.76937200  1
