# generated using pymatgen
data_PrSc3(BO3)4
_symmetry_space_group_name_H-M   'P 1'
_cell_length_a   7.80112200
_cell_length_b   9.91714800
_cell_length_c   12.15966678
_cell_angle_alpha   90.00000000
_cell_angle_beta   105.38611575
_cell_angle_gamma   90.00000000
_symmetry_Int_Tables_number   1
_chemical_formula_structural   PrSc3(BO3)4
_chemical_formula_sum   'Pr4 Sc12 B16 O48'
_cell_volume   907.01511628
_cell_formula_units_Z   4
loop_
 _symmetry_equiv_pos_site_id
 _symmetry_equiv_pos_as_xyz
  1  'x, y, z'
loop_
 _atom_site_type_symbol
 _atom_site_label
 _atom_site_symmetry_multiplicity
 _atom_site_fract_x
 _atom_site_fract_y
 _atom_site_fract_z
 _atom_site_occupancy
  Pr  Pr0  1  0.50000000  0.46786000  0.25000000  1
  Pr  Pr1  1  0.50000000  0.53214000  0.75000000  1
  Pr  Pr2  1  0.00000000  0.96786000  0.25000000  1
  Pr  Pr3  1  0.00000000  0.03214000  0.75000000  1
  Sc  Sc4  1  0.54730900  0.25034000  0.52447600  1
  Sc  Sc5  1  0.45269100  0.25034000  0.97552400  1
  Sc  Sc6  1  0.45269100  0.74966000  0.47552400  1
  Sc  Sc7  1  0.54730900  0.74966000  0.02447600  1
  Sc  Sc8  1  0.50000000  0.92580200  0.25000000  1
  Sc  Sc9  1  0.50000000  0.07419800  0.75000000  1
  Sc  Sc10  1  0.04730900  0.75034000  0.52447600  1
  Sc  Sc11  1  0.95269100  0.75034000  0.97552400  1
  Sc  Sc12  1  0.95269100  0.24966000  0.47552400  1
  Sc  Sc13  1  0.04730900  0.24966000  0.02447600  1
  Sc  Sc14  1  0.00000000  0.42580200  0.25000000  1
  Sc  Sc15  1  0.00000000  0.57419800  0.75000000  1
  B  B16  1  0.24599250  0.97566850  0.00041300  1
  B  B17  1  0.75400750  0.97566850  0.49958700  1
  B  B18  1  0.75400750  0.02433150  0.99958700  1
  B  B19  1  0.24599250  0.02433150  0.50041300  1
  B  B20  1  0.70196900  0.19698200  0.22624100  1
  B  B21  1  0.29803100  0.19698200  0.27375900  1
  B  B22  1  0.29803100  0.80301800  0.77375900  1
  B  B23  1  0.70196900  0.80301800  0.72624100  1
  B  B24  1  0.74599250  0.47566850  0.00041300  1
  B  B25  1  0.25400750  0.47566850  0.49958700  1
  B  B26  1  0.25400750  0.52433150  0.99958700  1
  B  B27  1  0.74599250  0.52433150  0.50041300  1
  B  B28  1  0.20196900  0.69698200  0.22624100  1
  B  B29  1  0.79803100  0.69698200  0.27375900  1
  B  B30  1  0.79803100  0.30301800  0.77375900  1
  B  B31  1  0.20196900  0.30301800  0.72624100  1
  O  O32  1  0.33985500  0.22883800  0.79526300  1
  O  O33  1  0.66014500  0.22883800  0.70473700  1
  O  O34  1  0.66014500  0.77116200  0.20473700  1
  O  O35  1  0.33985500  0.77116200  0.29526300  1
  O  O36  1  0.90208450  0.91103150  0.56773200  1
  O  O37  1  0.09791550  0.91103150  0.93226800  1
  O  O38  1  0.09791550  0.08896850  0.43226800  1
  O  O39  1  0.90208450  0.08896850  0.06773200  1
  O  O40  1  0.70189700  0.05849100  0.23908400  1
  O  O41  1  0.29810300  0.05849100  0.26091600  1
  O  O42  1  0.29810300  0.94150900  0.76091600  1
  O  O43  1  0.70189700  0.94150900  0.73908400  1
  O  O44  1  0.24842900  0.11555700  0.99637400  1
  O  O45  1  0.75157100  0.11555700  0.50362600  1
  O  O46  1  0.75157100  0.88444300  0.00362600  1
  O  O47  1  0.24842900  0.88444300  0.49637400  1
  O  O48  1  0.57011000  0.73335300  0.64910600  1
  O  O49  1  0.42989000  0.73335300  0.85089400  1
  O  O50  1  0.42989000  0.26664700  0.35089400  1
  O  O51  1  0.57011000  0.26664700  0.14910600  1
  O  O52  1  0.38797600  0.09569200  0.56815300  1
  O  O53  1  0.61202400  0.09569200  0.93184700  1
  O  O54  1  0.61202400  0.90430800  0.43184700  1
  O  O55  1  0.38797600  0.90430800  0.06815300  1
  O  O56  1  0.83985500  0.72883800  0.79526300  1
  O  O57  1  0.16014500  0.72883800  0.70473700  1
  O  O58  1  0.16014500  0.27116200  0.20473700  1
  O  O59  1  0.83985500  0.27116200  0.29526300  1
  O  O60  1  0.40208450  0.41103150  0.56773200  1
  O  O61  1  0.59791550  0.41103150  0.93226800  1
  O  O62  1  0.59791550  0.58896850  0.43226800  1
  O  O63  1  0.40208450  0.58896850  0.06773200  1
  O  O64  1  0.20189700  0.55849100  0.23908400  1
  O  O65  1  0.79810300  0.55849100  0.26091600  1
  O  O66  1  0.79810300  0.44150900  0.76091600  1
  O  O67  1  0.20189700  0.44150900  0.73908400  1
  O  O68  1  0.74842900  0.61555700  0.99637400  1
  O  O69  1  0.25157100  0.61555700  0.50362600  1
  O  O70  1  0.25157100  0.38444300  0.00362600  1
  O  O71  1  0.74842900  0.38444300  0.49637400  1
  O  O72  1  0.07011000  0.23335300  0.64910600  1
  O  O73  1  0.92989000  0.23335300  0.85089400  1
  O  O74  1  0.92989000  0.76664700  0.35089400  1
  O  O75  1  0.07011000  0.76664700  0.14910600  1
  O  O76  1  0.88797600  0.59569200  0.56815300  1
  O  O77  1  0.11202400  0.59569200  0.93184700  1
  O  O78  1  0.11202400  0.40430800  0.43184700  1
  O  O79  1  0.88797600  0.40430800  0.06815300  1
