# generated using pymatgen
data_Sn4SF6
_symmetry_space_group_name_H-M   'P 1'
_cell_length_a   8.68171800
_cell_length_b   12.56946400
_cell_length_c   8.89549900
_cell_angle_alpha   90.00000000
_cell_angle_beta   90.00000000
_cell_angle_gamma   90.00000000
_symmetry_Int_Tables_number   1
_chemical_formula_structural   Sn4SF6
_chemical_formula_sum   'Sn16 S4 F24'
_cell_volume   970.71725298
_cell_formula_units_Z   4
loop_
 _symmetry_equiv_pos_site_id
 _symmetry_equiv_pos_as_xyz
  1  'x, y, z'
loop_
 _atom_site_type_symbol
 _atom_site_label
 _atom_site_symmetry_multiplicity
 _atom_site_fract_x
 _atom_site_fract_y
 _atom_site_fract_z
 _atom_site_occupancy
  Sn  Sn0  1  0.50000000  0.17998800  0.14704000  1
  Sn  Sn1  1  0.50000000  0.82001200  0.64704000  1
  Sn  Sn2  1  0.72746700  0.08514800  0.66791000  1
  Sn  Sn3  1  0.27253300  0.08514800  0.66791000  1
  Sn  Sn4  1  0.50000000  0.34948900  0.55900100  1
  Sn  Sn5  1  0.27253300  0.91485200  0.16791000  1
  Sn  Sn6  1  0.72746700  0.91485200  0.16791000  1
  Sn  Sn7  1  0.50000000  0.65051100  0.05900100  1
  Sn  Sn8  1  0.00000000  0.67998800  0.14704000  1
  Sn  Sn9  1  0.00000000  0.32001200  0.64704000  1
  Sn  Sn10  1  0.22746700  0.58514800  0.66791000  1
  Sn  Sn11  1  0.77253300  0.58514800  0.66791000  1
  Sn  Sn12  1  0.00000000  0.84948900  0.55900100  1
  Sn  Sn13  1  0.77253300  0.41485200  0.16791000  1
  Sn  Sn14  1  0.22746700  0.41485200  0.16791000  1
  Sn  Sn15  1  0.00000000  0.15051100  0.05900100  1
  S  S16  1  0.50000000  0.16340000  0.43799100  1
  S  S17  1  0.50000000  0.83660000  0.93799100  1
  S  S18  1  0.00000000  0.66340000  0.43799100  1
  S  S19  1  0.00000000  0.33660000  0.93799100  1
  F  F20  1  0.82546650  0.09286150  0.89679000  1
  F  F21  1  0.17453350  0.09286150  0.89679000  1
  F  F22  1  0.50000000  0.35103100  0.11256600  1
  F  F23  1  0.17453350  0.90713850  0.39679000  1
  F  F24  1  0.82546650  0.90713850  0.39679000  1
  F  F25  1  0.50000000  0.64896900  0.61256600  1
  F  F26  1  0.24884250  0.75717650  0.67469600  1
  F  F27  1  0.50000000  0.11621200  0.78387200  1
  F  F28  1  0.75115750  0.75717650  0.67469600  1
  F  F29  1  0.75115750  0.24282350  0.17469600  1
  F  F30  1  0.50000000  0.88378800  0.28387200  1
  F  F31  1  0.24884250  0.24282350  0.17469600  1
  F  F32  1  0.32546650  0.59286150  0.89679000  1
  F  F33  1  0.67453350  0.59286150  0.89679000  1
  F  F34  1  0.00000000  0.85103100  0.11256600  1
  F  F35  1  0.67453350  0.40713850  0.39679000  1
  F  F36  1  0.32546650  0.40713850  0.39679000  1
  F  F37  1  0.00000000  0.14896900  0.61256600  1
  F  F38  1  0.74884250  0.25717650  0.67469600  1
  F  F39  1  0.00000000  0.61621200  0.78387200  1
  F  F40  1  0.25115750  0.25717650  0.67469600  1
  F  F41  1  0.25115750  0.74282350  0.17469600  1
  F  F42  1  0.00000000  0.38378800  0.28387200  1
  F  F43  1  0.74884250  0.74282350  0.17469600  1
