# generated using pymatgen
data_Sr3P4
_symmetry_space_group_name_H-M   'P 1'
_cell_length_a   5.87104600
_cell_length_b   14.37329600
_cell_length_c   17.47051200
_cell_angle_alpha   90.00000000
_cell_angle_beta   90.00000000
_cell_angle_gamma   90.00000000
_symmetry_Int_Tables_number   1
_chemical_formula_structural   Sr3P4
_chemical_formula_sum   'Sr24 P32'
_cell_volume   1474.27155210
_cell_formula_units_Z   8
loop_
 _symmetry_equiv_pos_site_id
 _symmetry_equiv_pos_as_xyz
  1  'x, y, z'
loop_
 _atom_site_type_symbol
 _atom_site_label
 _atom_site_symmetry_multiplicity
 _atom_site_fract_x
 _atom_site_fract_y
 _atom_site_fract_z
 _atom_site_occupancy
  Sr  Sr0  1  0.75301950  0.00173950  0.66815200  1
  Sr  Sr1  1  0.75301950  0.49826050  0.83184800  1
  Sr  Sr2  1  0.00301950  0.24826050  0.91815200  1
  Sr  Sr3  1  0.00301950  0.25173950  0.58184800  1
  Sr  Sr4  1  0.49418500  0.25000000  0.75000000  1
  Sr  Sr5  1  0.24418500  0.00000000  0.50000000  1
  Sr  Sr6  1  0.25301950  0.00173950  0.16815200  1
  Sr  Sr7  1  0.25301950  0.49826050  0.33184800  1
  Sr  Sr8  1  0.50301950  0.24826050  0.41815200  1
  Sr  Sr9  1  0.50301950  0.25173950  0.08184800  1
  Sr  Sr10  1  0.99418500  0.25000000  0.25000000  1
  Sr  Sr11  1  0.74418500  0.00000000  0.00000000  1
  Sr  Sr12  1  0.25301950  0.50173950  0.66815200  1
  Sr  Sr13  1  0.25301950  0.99826050  0.83184800  1
  Sr  Sr14  1  0.50301950  0.74826050  0.91815200  1
  Sr  Sr15  1  0.50301950  0.75173950  0.58184800  1
  Sr  Sr16  1  0.99418500  0.75000000  0.75000000  1
  Sr  Sr17  1  0.74418500  0.50000000  0.50000000  1
  Sr  Sr18  1  0.75301950  0.50173950  0.16815200  1
  Sr  Sr19  1  0.75301950  0.99826050  0.33184800  1
  Sr  Sr20  1  0.00301950  0.74826050  0.41815200  1
  Sr  Sr21  1  0.00301950  0.75173950  0.08184800  1
  Sr  Sr22  1  0.49418500  0.75000000  0.25000000  1
  Sr  Sr23  1  0.24418500  0.50000000  0.00000000  1
  P  P24  1  0.99785700  0.16927100  0.74903800  1
  P  P25  1  0.99785700  0.33072900  0.75096200  1
  P  P26  1  0.24785700  0.08072900  0.99903800  1
  P  P27  1  0.24785700  0.41927100  0.50096200  1
  P  P28  1  0.24043100  0.40839300  0.82691700  1
  P  P29  1  0.24043100  0.09160700  0.67308300  1
  P  P30  1  0.49043100  0.15839300  0.92308300  1
  P  P31  1  0.49043100  0.34160700  0.57691700  1
  P  P32  1  0.49785700  0.16927100  0.24903800  1
  P  P33  1  0.49785700  0.33072900  0.25096200  1
  P  P34  1  0.74785700  0.08072900  0.49903800  1
  P  P35  1  0.74785700  0.41927100  0.00096200  1
  P  P36  1  0.74043100  0.40839300  0.32691700  1
  P  P37  1  0.74043100  0.09160700  0.17308300  1
  P  P38  1  0.99043100  0.15839300  0.42308300  1
  P  P39  1  0.99043100  0.34160700  0.07691700  1
  P  P40  1  0.49785700  0.66927100  0.74903800  1
  P  P41  1  0.49785700  0.83072900  0.75096200  1
  P  P42  1  0.74785700  0.58072900  0.99903800  1
  P  P43  1  0.74785700  0.91927100  0.50096200  1
  P  P44  1  0.74043100  0.90839300  0.82691700  1
  P  P45  1  0.74043100  0.59160700  0.67308300  1
  P  P46  1  0.99043100  0.65839300  0.92308300  1
  P  P47  1  0.99043100  0.84160700  0.57691700  1
  P  P48  1  0.99785700  0.66927100  0.24903800  1
  P  P49  1  0.99785700  0.83072900  0.25096200  1
  P  P50  1  0.24785700  0.58072900  0.49903800  1
  P  P51  1  0.24785700  0.91927100  0.00096200  1
  P  P52  1  0.24043100  0.90839300  0.32691700  1
  P  P53  1  0.24043100  0.59160700  0.17308300  1
  P  P54  1  0.49043100  0.65839300  0.42308300  1
  P  P55  1  0.49043100  0.84160700  0.07691700  1
