# generated using pymatgen
data_SiO2
_symmetry_space_group_name_H-M   'P 1'
_cell_length_a   14.06452800
_cell_length_b   17.68831600
_cell_length_c   5.11937200
_cell_angle_alpha   90.00000000
_cell_angle_beta   90.00000000
_cell_angle_gamma   90.00000000
_symmetry_Int_Tables_number   1
_chemical_formula_structural   SiO2
_chemical_formula_sum   'Si24 O48'
_cell_volume   1273.58618368
_cell_formula_units_Z   24
loop_
 _symmetry_equiv_pos_site_id
 _symmetry_equiv_pos_as_xyz
  1  'x, y, z'
loop_
 _atom_site_type_symbol
 _atom_site_label
 _atom_site_symmetry_multiplicity
 _atom_site_fract_x
 _atom_site_fract_y
 _atom_site_fract_z
 _atom_site_occupancy
  Si  Si0  1  0.70574800  0.71103000  0.49079200  1
  Si  Si1  1  0.29425200  0.28897000  0.99079200  1
  Si  Si2  1  0.29425200  0.71103000  0.49079200  1
  Si  Si3  1  0.70574800  0.28897000  0.99079200  1
  Si  Si4  1  0.70500050  0.95141150  0.91544000  1
  Si  Si5  1  0.29499950  0.04858850  0.41544000  1
  Si  Si6  1  0.29499950  0.95141150  0.91544000  1
  Si  Si7  1  0.70500050  0.04858850  0.41544000  1
  Si  Si8  1  0.50000000  0.77418000  0.39211700  1
  Si  Si9  1  0.50000000  0.22582000  0.89211700  1
  Si  Si10  1  0.50000000  0.87735500  0.89259200  1
  Si  Si11  1  0.50000000  0.12264500  0.39259200  1
  Si  Si12  1  0.20574800  0.21103000  0.49079200  1
  Si  Si13  1  0.79425200  0.78897000  0.99079200  1
  Si  Si14  1  0.79425200  0.21103000  0.49079200  1
  Si  Si15  1  0.20574800  0.78897000  0.99079200  1
  Si  Si16  1  0.20500050  0.45141150  0.91544000  1
  Si  Si17  1  0.79499950  0.54858850  0.41544000  1
  Si  Si18  1  0.79499950  0.45141150  0.91544000  1
  Si  Si19  1  0.20500050  0.54858850  0.41544000  1
  Si  Si20  1  0.00000000  0.27418000  0.39211700  1
  Si  Si21  1  0.00000000  0.72582000  0.89211700  1
  Si  Si22  1  0.00000000  0.37735500  0.89259200  1
  Si  Si23  1  0.00000000  0.62264500  0.39259200  1
  O  O24  1  0.22864150  0.12141950  0.47519900  1
  O  O25  1  0.77135850  0.87858050  0.97519900  1
  O  O26  1  0.77135850  0.12141950  0.47519900  1
  O  O27  1  0.22864150  0.87858050  0.97519900  1
  O  O28  1  0.59304600  0.92950900  0.94099500  1
  O  O29  1  0.40695400  0.07049100  0.44099500  1
  O  O30  1  0.40695400  0.92950900  0.94099500  1
  O  O31  1  0.59304600  0.07049100  0.44099500  1
  O  O32  1  0.50000000  0.80632100  0.09446100  1
  O  O33  1  0.50000000  0.19367900  0.59446100  1
  O  O34  1  0.59316400  0.72177500  0.43468200  1
  O  O35  1  0.40683600  0.27822500  0.93468200  1
  O  O36  1  0.50000000  0.15454200  0.09420400  1
  O  O37  1  0.50000000  0.84545800  0.59420400  1
  O  O38  1  0.72980650  0.25780650  0.28214900  1
  O  O39  1  0.27019350  0.74219350  0.78214900  1
  O  O40  1  0.27019350  0.25780650  0.28214900  1
  O  O41  1  0.72980650  0.74219350  0.78214900  1
  O  O42  1  0.72864150  0.01849750  0.12265700  1
  O  O43  1  0.27135850  0.98150250  0.62265700  1
  O  O44  1  0.27135850  0.01849750  0.12265700  1
  O  O45  1  0.72864150  0.98150250  0.62265700  1
  O  O46  1  0.59316400  0.27822500  0.93468200  1
  O  O47  1  0.40683600  0.72177500  0.43468200  1
  O  O48  1  0.72864150  0.62141950  0.47519900  1
  O  O49  1  0.27135850  0.37858050  0.97519900  1
  O  O50  1  0.27135850  0.62141950  0.47519900  1
  O  O51  1  0.72864150  0.37858050  0.97519900  1
  O  O52  1  0.09304600  0.42950900  0.94099500  1
  O  O53  1  0.90695400  0.57049100  0.44099500  1
  O  O54  1  0.90695400  0.42950900  0.94099500  1
  O  O55  1  0.09304600  0.57049100  0.44099500  1
  O  O56  1  0.00000000  0.30632100  0.09446100  1
  O  O57  1  0.00000000  0.69367900  0.59446100  1
  O  O58  1  0.09316400  0.22177500  0.43468200  1
  O  O59  1  0.90683600  0.77822500  0.93468200  1
  O  O60  1  0.00000000  0.65454200  0.09420400  1
  O  O61  1  0.00000000  0.34545800  0.59420400  1
  O  O62  1  0.22980650  0.75780650  0.28214900  1
  O  O63  1  0.77019350  0.24219350  0.78214900  1
  O  O64  1  0.77019350  0.75780650  0.28214900  1
  O  O65  1  0.22980650  0.24219350  0.78214900  1
  O  O66  1  0.22864150  0.51849750  0.12265700  1
  O  O67  1  0.77135850  0.48150250  0.62265700  1
  O  O68  1  0.77135850  0.51849750  0.12265700  1
  O  O69  1  0.22864150  0.48150250  0.62265700  1
  O  O70  1  0.09316400  0.77822500  0.93468200  1
  O  O71  1  0.90683600  0.22177500  0.43468200  1
