# generated using pymatgen
data_TiAgF6
_symmetry_space_group_name_H-M   'P 1'
_cell_length_a   5.26291985
_cell_length_b   5.45788282
_cell_length_c   5.61679349
_cell_angle_alpha   116.57862857
_cell_angle_beta   89.59002019
_cell_angle_gamma   118.69593160
_symmetry_Int_Tables_number   1
_chemical_formula_structural   TiAgF6
_chemical_formula_sum   'Ti1 Ag1 F6'
_cell_volume   122.05154596
_cell_formula_units_Z   1
loop_
 _symmetry_equiv_pos_site_id
 _symmetry_equiv_pos_as_xyz
  1  'x, y, z'
loop_
 _atom_site_type_symbol
 _atom_site_label
 _atom_site_symmetry_multiplicity
 _atom_site_fract_x
 _atom_site_fract_y
 _atom_site_fract_z
 _atom_site_occupancy
  Ti  Ti0  1  0.50000000  0.50000000  0.50000000  1
  Ag  Ag1  1  0.00000000  0.00000000  0.00000000  1
  F  F2  1  0.42306876  0.29482993  0.29093139  1
  F  F3  1  0.57693124  0.70517007  0.70906861  1
  F  F4  1  0.25693179  0.14081946  0.72737597  1
  F  F5  1  0.74306821  0.85918054  0.27262403  1
  F  F6  1  0.84927196  0.38271211  0.74120369  1
  F  F7  1  0.15072804  0.61728789  0.25879631  1
