# generated using pymatgen
data_Ba3Ca2(SiN3)2
_symmetry_space_group_name_H-M   'P 1'
_cell_length_a   10.14884000
_cell_length_b   6.88399800
_cell_length_c   13.44096987
_cell_angle_alpha   90.00000000
_cell_angle_beta   101.89011010
_cell_angle_gamma   90.00000000
_symmetry_Int_Tables_number   1
_chemical_formula_structural   Ba3Ca2(SiN3)2
_chemical_formula_sum   'Ba12 Ca8 Si8 N24'
_cell_volume   918.90022412
_cell_formula_units_Z   4
loop_
 _symmetry_equiv_pos_site_id
 _symmetry_equiv_pos_as_xyz
  1  'x, y, z'
loop_
 _atom_site_type_symbol
 _atom_site_label
 _atom_site_symmetry_multiplicity
 _atom_site_fract_x
 _atom_site_fract_y
 _atom_site_fract_z
 _atom_site_occupancy
  Ba  Ba0  1  0.00000000  0.40339000  0.75000000  1
  Ba  Ba1  1  0.00000000  0.59661000  0.25000000  1
  Ba  Ba2  1  0.94061000  0.73805100  0.50734800  1
  Ba  Ba3  1  0.05939000  0.73805100  0.99265200  1
  Ba  Ba4  1  0.05939000  0.26194900  0.49265200  1
  Ba  Ba5  1  0.94061000  0.26194900  0.00734800  1
  Ba  Ba6  1  0.50000000  0.90339000  0.75000000  1
  Ba  Ba7  1  0.50000000  0.09661000  0.25000000  1
  Ba  Ba8  1  0.44061000  0.23805100  0.50734800  1
  Ba  Ba9  1  0.55939000  0.23805100  0.99265200  1
  Ba  Ba10  1  0.55939000  0.76194900  0.49265200  1
  Ba  Ba11  1  0.44061000  0.76194900  0.00734800  1
  Ca  Ca12  1  0.34856700  0.43884100  0.78147300  1
  Ca  Ca13  1  0.65143300  0.43884100  0.71852700  1
  Ca  Ca14  1  0.65143300  0.56115900  0.21852700  1
  Ca  Ca15  1  0.34856700  0.56115900  0.28147300  1
  Ca  Ca16  1  0.84856700  0.93884100  0.78147300  1
  Ca  Ca17  1  0.15143300  0.93884100  0.71852700  1
  Ca  Ca18  1  0.15143300  0.06115900  0.21852700  1
  Ca  Ca19  1  0.84856700  0.06115900  0.28147300  1
  Si  Si20  1  0.72080100  0.64864600  0.92045100  1
  Si  Si21  1  0.27919900  0.64864600  0.57954900  1
  Si  Si22  1  0.27919900  0.35135400  0.07954900  1
  Si  Si23  1  0.72080100  0.35135400  0.42045100  1
  Si  Si24  1  0.22080100  0.14864600  0.92045100  1
  Si  Si25  1  0.77919900  0.14864600  0.57954900  1
  Si  Si26  1  0.77919900  0.85135400  0.07954900  1
  Si  Si27  1  0.22080100  0.85135400  0.42045100  1
  N  N28  1  0.56320700  0.54638800  0.86994000  1
  N  N29  1  0.43679300  0.54638800  0.63006000  1
  N  N30  1  0.43679300  0.45361200  0.13006000  1
  N  N31  1  0.56320700  0.45361200  0.36994000  1
  N  N32  1  0.21274950  0.40937850  0.94604600  1
  N  N33  1  0.78725050  0.40937850  0.55395400  1
  N  N34  1  0.78725050  0.59062150  0.05395400  1
  N  N35  1  0.21274950  0.59062150  0.44604600  1
  N  N36  1  0.83227200  0.60214300  0.83932900  1
  N  N37  1  0.16772800  0.60214300  0.66067100  1
  N  N38  1  0.16772800  0.39785700  0.16067100  1
  N  N39  1  0.83227200  0.39785700  0.33932900  1
  N  N40  1  0.06320700  0.04638800  0.86994000  1
  N  N41  1  0.93679300  0.04638800  0.63006000  1
  N  N42  1  0.93679300  0.95361200  0.13006000  1
  N  N43  1  0.06320700  0.95361200  0.36994000  1
  N  N44  1  0.71274950  0.90937850  0.94604600  1
  N  N45  1  0.28725050  0.90937850  0.55395400  1
  N  N46  1  0.28725050  0.09062150  0.05395400  1
  N  N47  1  0.71274950  0.09062150  0.44604600  1
  N  N48  1  0.33227200  0.10214300  0.83932900  1
  N  N49  1  0.66772800  0.10214300  0.66067100  1
  N  N50  1  0.66772800  0.89785700  0.16067100  1
  N  N51  1  0.33227200  0.89785700  0.33932900  1
