# generated using pymatgen
data_Na2PtS2
_symmetry_space_group_name_H-M   'P 1'
_cell_length_a   3.59335000
_cell_length_b   10.50496800
_cell_length_c   10.96056000
_cell_angle_alpha   90.00000000
_cell_angle_beta   90.00000000
_cell_angle_gamma   90.00000000
_symmetry_Int_Tables_number   1
_chemical_formula_structural   Na2PtS2
_chemical_formula_sum   'Na8 Pt4 S8'
_cell_volume   413.73951222
_cell_formula_units_Z   4
loop_
 _symmetry_equiv_pos_site_id
 _symmetry_equiv_pos_as_xyz
  1  'x, y, z'
loop_
 _atom_site_type_symbol
 _atom_site_label
 _atom_site_symmetry_multiplicity
 _atom_site_fract_x
 _atom_site_fract_y
 _atom_site_fract_z
 _atom_site_occupancy
  Na  Na0  1  0.00000000  0.17172800  0.90590000  1
  Na  Na1  1  0.50000000  0.32827200  0.40590000  1
  Na  Na2  1  0.00000000  0.43092000  0.12264700  1
  Na  Na3  1  0.50000000  0.06908000  0.62264700  1
  Na  Na4  1  0.50000000  0.67172800  0.90590000  1
  Na  Na5  1  0.00000000  0.82827200  0.40590000  1
  Na  Na6  1  0.50000000  0.93092000  0.12264700  1
  Na  Na7  1  0.00000000  0.56908000  0.62264700  1
  Pt  Pt8  1  0.50000000  0.36541800  0.74602700  1
  Pt  Pt9  1  0.00000000  0.13458200  0.24602700  1
  Pt  Pt10  1  0.00000000  0.86541800  0.74602700  1
  Pt  Pt11  1  0.50000000  0.63458200  0.24602700  1
  S  S12  1  0.50000000  0.05182800  0.36326000  1
  S  S13  1  0.00000000  0.44817200  0.86326000  1
  S  S14  1  0.50000000  0.21713400  0.12816700  1
  S  S15  1  0.00000000  0.28286600  0.62816700  1
  S  S16  1  0.00000000  0.55182800  0.36326000  1
  S  S17  1  0.50000000  0.94817200  0.86326000  1
  S  S18  1  0.00000000  0.71713400  0.12816700  1
  S  S19  1  0.50000000  0.78286600  0.62816700  1
