# generated using pymatgen
data_FeBO3
_symmetry_space_group_name_H-M   'P 1'
_cell_length_a   4.67433754
_cell_length_b   4.67433754
_cell_length_c   14.69255651
_cell_angle_alpha   90.00000000
_cell_angle_beta   90.00000000
_cell_angle_gamma   120.00000000
_symmetry_Int_Tables_number   1
_chemical_formula_structural   FeBO3
_chemical_formula_sum   'Fe6 B6 O18'
_cell_volume   278.01494441
_cell_formula_units_Z   6
loop_
 _symmetry_equiv_pos_site_id
 _symmetry_equiv_pos_as_xyz
  1  'x, y, z'
loop_
 _atom_site_type_symbol
 _atom_site_label
 _atom_site_symmetry_multiplicity
 _atom_site_fract_x
 _atom_site_fract_y
 _atom_site_fract_z
 _atom_site_occupancy
  Fe  Fe0  1  0.00000000  0.00000000  0.00000000  1
  Fe  Fe1  1  0.33333333  0.66666667  0.16666667  1
  Fe  Fe2  1  0.66666667  0.33333333  0.33333333  1
  Fe  Fe3  1  0.00000000  0.00000000  0.50000000  1
  Fe  Fe4  1  0.33333333  0.66666667  0.66666667  1
  Fe  Fe5  1  0.66666667  0.33333333  0.83333333  1
  B  B6  1  0.66666667  0.33333333  0.08333333  1
  B  B7  1  0.00000000  0.00000000  0.25000000  1
  B  B8  1  0.33333333  0.66666667  0.41666667  1
  B  B9  1  0.66666667  0.33333333  0.58333333  1
  B  B10  1  0.00000000  0.00000000  0.75000000  1
  B  B11  1  0.33333333  0.66666667  0.91666667  1
  O  O12  1  0.66666667  0.03663933  0.08333333  1
  O  O13  1  0.96336067  0.63002733  0.08333333  1
  O  O14  1  0.29669400  0.00000000  0.25000000  1
  O  O15  1  0.00000000  0.29669400  0.25000000  1
  O  O16  1  0.70330600  0.70330600  0.25000000  1
  O  O17  1  0.36997267  0.33333333  0.08333333  1
  O  O18  1  0.33333333  0.36997267  0.41666667  1
  O  O19  1  0.63002733  0.96336067  0.41666667  1
  O  O20  1  0.96336067  0.33333333  0.58333333  1
  O  O21  1  0.66666667  0.63002733  0.58333333  1
  O  O22  1  0.36997267  0.03663933  0.58333333  1
  O  O23  1  0.03663933  0.66666667  0.41666667  1
  O  O24  1  0.00000000  0.70330600  0.75000000  1
  O  O25  1  0.29669400  0.29669400  0.75000000  1
  O  O26  1  0.63002733  0.66666667  0.91666667  1
  O  O27  1  0.33333333  0.96336067  0.91666667  1
  O  O28  1  0.03663933  0.36997267  0.91666667  1
  O  O29  1  0.70330600  0.00000000  0.75000000  1
