# generated using pymatgen
data_Ba4Nd2Cd3Se10
_symmetry_space_group_name_H-M   'P 1'
_cell_length_a   4.40245800
_cell_length_b   19.19958800
_cell_length_c   28.05450100
_cell_angle_alpha   90.00000000
_cell_angle_beta   90.00000000
_cell_angle_gamma   90.00000000
_symmetry_Int_Tables_number   1
_chemical_formula_structural   Ba4Nd2Cd3Se10
_chemical_formula_sum   'Ba16 Nd8 Cd12 Se40'
_cell_volume   2371.31735177
_cell_formula_units_Z   4
loop_
 _symmetry_equiv_pos_site_id
 _symmetry_equiv_pos_as_xyz
  1  'x, y, z'
loop_
 _atom_site_type_symbol
 _atom_site_label
 _atom_site_symmetry_multiplicity
 _atom_site_fract_x
 _atom_site_fract_y
 _atom_site_fract_z
 _atom_site_occupancy
  Ba  Ba0  1  0.00000000  0.40576300  0.66106500  1
  Ba  Ba1  1  0.50000000  0.09423700  0.16106500  1
  Ba  Ba2  1  0.00000000  0.42489900  0.84241400  1
  Ba  Ba3  1  0.50000000  0.07510100  0.34241400  1
  Ba  Ba4  1  0.50000000  0.33410100  0.39037500  1
  Ba  Ba5  1  0.00000000  0.16589900  0.89037500  1
  Ba  Ba6  1  0.50000000  0.33443400  0.10783900  1
  Ba  Ba7  1  0.00000000  0.16556600  0.60783900  1
  Ba  Ba8  1  0.50000000  0.90576300  0.66106500  1
  Ba  Ba9  1  0.00000000  0.59423700  0.16106500  1
  Ba  Ba10  1  0.50000000  0.92489900  0.84241400  1
  Ba  Ba11  1  0.00000000  0.57510100  0.34241400  1
  Ba  Ba12  1  0.00000000  0.83410100  0.39037500  1
  Ba  Ba13  1  0.50000000  0.66589900  0.89037500  1
  Ba  Ba14  1  0.00000000  0.83443400  0.10783900  1
  Ba  Ba15  1  0.50000000  0.66556600  0.60783900  1
  Nd  Nd16  1  0.00000000  0.49704000  0.50032400  1
  Nd  Nd17  1  0.50000000  0.00296000  0.00032400  1
  Nd  Nd18  1  0.50000000  0.41751800  0.24620000  1
  Nd  Nd19  1  0.00000000  0.08248200  0.74620000  1
  Nd  Nd20  1  0.50000000  0.99704000  0.50032400  1
  Nd  Nd21  1  0.00000000  0.50296000  0.00032400  1
  Nd  Nd22  1  0.00000000  0.91751800  0.24620000  1
  Nd  Nd23  1  0.50000000  0.58248200  0.74620000  1
  Cd  Cd24  1  0.50000000  0.28532900  0.76857700  1
  Cd  Cd25  1  0.00000000  0.21467100  0.26857700  1
  Cd  Cd26  1  0.50000000  0.34432000  0.53869400  1
  Cd  Cd27  1  0.00000000  0.15568000  0.03869400  1
  Cd  Cd28  1  0.50000000  0.35178200  0.95485000  1
  Cd  Cd29  1  0.00000000  0.14821800  0.45485000  1
  Cd  Cd30  1  0.00000000  0.78532900  0.76857700  1
  Cd  Cd31  1  0.50000000  0.71467100  0.26857700  1
  Cd  Cd32  1  0.00000000  0.84432000  0.53869400  1
  Cd  Cd33  1  0.50000000  0.65568000  0.03869400  1
  Cd  Cd34  1  0.00000000  0.85178200  0.95485000  1
  Cd  Cd35  1  0.50000000  0.64821800  0.45485000  1
  Se  Se36  1  0.50000000  0.07923400  0.67542400  1
  Se  Se37  1  0.00000000  0.42076600  0.17542400  1
  Se  Se38  1  0.50000000  0.09254000  0.81832400  1
  Se  Se39  1  0.00000000  0.40746000  0.31832400  1
  Se  Se40  1  0.50000000  0.15405100  0.50984000  1
  Se  Se41  1  0.00000000  0.34594900  0.00984000  1
  Se  Se42  1  0.50000000  0.15643600  0.98152700  1
  Se  Se43  1  0.00000000  0.34356400  0.48152700  1
  Se  Se44  1  0.50000000  0.26273600  0.23074200  1
  Se  Se45  1  0.00000000  0.23726400  0.73074200  1
  Se  Se46  1  0.50000000  0.29008200  0.62265900  1
  Se  Se47  1  0.00000000  0.20991800  0.12265900  1
  Se  Se48  1  0.50000000  0.29331600  0.86843600  1
  Se  Se49  1  0.00000000  0.20668400  0.36843600  1
  Se  Se50  1  0.50000000  0.42807000  0.75227700  1
  Se  Se51  1  0.00000000  0.07193000  0.25227700  1
  Se  Se52  1  0.50000000  0.48456100  0.57033500  1
  Se  Se53  1  0.00000000  0.01543900  0.07033500  1
  Se  Se54  1  0.00000000  0.00961400  0.42596900  1
  Se  Se55  1  0.50000000  0.49038600  0.92596900  1
  Se  Se56  1  0.00000000  0.57923400  0.67542400  1
  Se  Se57  1  0.50000000  0.92076600  0.17542400  1
  Se  Se58  1  0.00000000  0.59254000  0.81832400  1
  Se  Se59  1  0.50000000  0.90746000  0.31832400  1
  Se  Se60  1  0.00000000  0.65405100  0.50984000  1
  Se  Se61  1  0.50000000  0.84594900  0.00984000  1
  Se  Se62  1  0.00000000  0.65643600  0.98152700  1
  Se  Se63  1  0.50000000  0.84356400  0.48152700  1
  Se  Se64  1  0.00000000  0.76273600  0.23074200  1
  Se  Se65  1  0.50000000  0.73726400  0.73074200  1
  Se  Se66  1  0.00000000  0.79008200  0.62265900  1
  Se  Se67  1  0.50000000  0.70991800  0.12265900  1
  Se  Se68  1  0.00000000  0.79331600  0.86843600  1
  Se  Se69  1  0.50000000  0.70668400  0.36843600  1
  Se  Se70  1  0.00000000  0.92807000  0.75227700  1
  Se  Se71  1  0.50000000  0.57193000  0.25227700  1
  Se  Se72  1  0.00000000  0.98456100  0.57033500  1
  Se  Se73  1  0.50000000  0.51543900  0.07033500  1
  Se  Se74  1  0.50000000  0.50961400  0.42596900  1
  Se  Se75  1  0.00000000  0.99038600  0.92596900  1
