# generated using pymatgen
data_BaYAgTe3
_symmetry_space_group_name_H-M   'P 1'
_cell_length_a   4.53922600
_cell_length_b   15.18989400
_cell_length_c   11.53464700
_cell_angle_alpha   90.00000000
_cell_angle_beta   90.00000000
_cell_angle_gamma   90.00000000
_symmetry_Int_Tables_number   1
_chemical_formula_structural   BaYAgTe3
_chemical_formula_sum   'Ba4 Y4 Ag4 Te12'
_cell_volume   795.31808368
_cell_formula_units_Z   4
loop_
 _symmetry_equiv_pos_site_id
 _symmetry_equiv_pos_as_xyz
  1  'x, y, z'
loop_
 _atom_site_type_symbol
 _atom_site_label
 _atom_site_symmetry_multiplicity
 _atom_site_fract_x
 _atom_site_fract_y
 _atom_site_fract_z
 _atom_site_occupancy
  Ba  Ba0  1  0.00000000  0.24377000  0.75000000  1
  Ba  Ba1  1  0.50000000  0.25623000  0.25000000  1
  Ba  Ba2  1  0.50000000  0.74377000  0.75000000  1
  Ba  Ba3  1  0.00000000  0.75623000  0.25000000  1
  Y  Y4  1  0.00000000  0.00000000  0.50000000  1
  Y  Y5  1  0.00000000  0.00000000  0.00000000  1
  Y  Y6  1  0.50000000  0.50000000  0.50000000  1
  Y  Y7  1  0.50000000  0.50000000  0.00000000  1
  Ag  Ag8  1  0.50000000  0.03131000  0.75000000  1
  Ag  Ag9  1  0.00000000  0.46869000  0.25000000  1
  Ag  Ag10  1  0.00000000  0.53131000  0.75000000  1
  Ag  Ag11  1  0.50000000  0.96869000  0.25000000  1
  Te  Te12  1  0.00000000  0.36188700  0.44928300  1
  Te  Te13  1  0.50000000  0.41990400  0.75000000  1
  Te  Te14  1  0.50000000  0.13811300  0.94928300  1
  Te  Te15  1  0.50000000  0.13811300  0.55071700  1
  Te  Te16  1  0.00000000  0.36188700  0.05071700  1
  Te  Te17  1  0.00000000  0.08009600  0.25000000  1
  Te  Te18  1  0.50000000  0.86188700  0.44928300  1
  Te  Te19  1  0.00000000  0.91990400  0.75000000  1
  Te  Te20  1  0.00000000  0.63811300  0.94928300  1
  Te  Te21  1  0.00000000  0.63811300  0.55071700  1
  Te  Te22  1  0.50000000  0.86188700  0.05071700  1
  Te  Te23  1  0.50000000  0.58009600  0.25000000  1
