# generated using pymatgen
data_VCrO4
_symmetry_space_group_name_H-M   'P 1'
_cell_length_a   5.64461008
_cell_length_b   8.44649301
_cell_length_c   6.19175100
_cell_angle_alpha   90.00000000
_cell_angle_beta   90.00000000
_cell_angle_gamma   90.00000000
_symmetry_Int_Tables_number   1
_chemical_formula_structural   VCrO4
_chemical_formula_sum   'V4 Cr4 O16'
_cell_volume   295.20510082
_cell_formula_units_Z   4
loop_
 _symmetry_equiv_pos_site_id
 _symmetry_equiv_pos_as_xyz
  1  'x, y, z'
loop_
 _atom_site_type_symbol
 _atom_site_label
 _atom_site_symmetry_multiplicity
 _atom_site_fract_x
 _atom_site_fract_y
 _atom_site_fract_z
 _atom_site_occupancy
  V  V0  1  0.50000000  0.85491700  0.25000000  1
  V  V1  1  0.50000000  0.14508300  0.75000000  1
  V  V2  1  0.00000000  0.35491700  0.25000000  1
  V  V3  1  0.00000000  0.64508300  0.75000000  1
  Cr  Cr4  1  0.00000000  0.00000000  0.00000000  1
  Cr  Cr5  1  0.00000000  0.00000000  0.50000000  1
  Cr  Cr6  1  0.50000000  0.50000000  0.00000000  1
  Cr  Cr7  1  0.50000000  0.50000000  0.50000000  1
  O  O8  1  0.76639450  0.02349350  0.75000000  1
  O  O9  1  0.23360550  0.97650650  0.25000000  1
  O  O10  1  0.76639450  0.97650650  0.25000000  1
  O  O11  1  0.23360550  0.02349350  0.75000000  1
  O  O12  1  0.50000000  0.26510700  0.96776400  1
  O  O13  1  0.50000000  0.73489300  0.46776400  1
  O  O14  1  0.50000000  0.73489300  0.03223600  1
  O  O15  1  0.50000000  0.26510700  0.53223600  1
  O  O16  1  0.26639450  0.52349350  0.75000000  1
  O  O17  1  0.73360550  0.47650650  0.25000000  1
  O  O18  1  0.26639450  0.47650650  0.25000000  1
  O  O19  1  0.73360550  0.52349350  0.75000000  1
  O  O20  1  0.00000000  0.76510700  0.96776400  1
  O  O21  1  0.00000000  0.23489300  0.46776400  1
  O  O22  1  0.00000000  0.23489300  0.03223600  1
  O  O23  1  0.00000000  0.76510700  0.53223600  1
