# generated using pymatgen
data_NdFe3(BO3)4
_symmetry_space_group_name_H-M   'P 1'
_cell_length_a   9.68884737
_cell_length_b   9.68884737
_cell_length_c   7.72482890
_cell_angle_alpha   90.00000000
_cell_angle_beta   90.00000000
_cell_angle_gamma   120.00000000
_symmetry_Int_Tables_number   1
_chemical_formula_structural   NdFe3(BO3)4
_chemical_formula_sum   'Nd3 Fe9 B12 O36'
_cell_volume   628.00590831
_cell_formula_units_Z   3
loop_
 _symmetry_equiv_pos_site_id
 _symmetry_equiv_pos_as_xyz
  1  'x, y, z'
loop_
 _atom_site_type_symbol
 _atom_site_label
 _atom_site_symmetry_multiplicity
 _atom_site_fract_x
 _atom_site_fract_y
 _atom_site_fract_z
 _atom_site_occupancy
  Nd  Nd0  1  0.00000000  0.00000000  0.00000000  1
  Nd  Nd1  1  0.66666667  0.33333333  0.33333333  1
  Nd  Nd2  1  0.33333333  0.66666667  0.66666667  1
  Fe  Fe3  1  0.11592667  0.33333333  0.33333333  1
  Fe  Fe4  1  0.66666667  0.78259333  0.33333333  1
  Fe  Fe5  1  0.21740667  0.88407333  0.33333333  1
  Fe  Fe6  1  0.78259333  0.66666667  0.66666667  1
  Fe  Fe7  1  0.33333333  0.11592667  0.66666667  1
  Fe  Fe8  1  0.88407333  0.21740667  0.66666667  1
  Fe  Fe9  1  0.44926000  0.00000000  0.00000000  1
  Fe  Fe10  1  0.00000000  0.44926000  0.00000000  1
  Fe  Fe11  1  0.55074000  0.55074000  0.00000000  1
  B  B12  1  0.55343900  0.00000000  0.50000000  1
  B  B13  1  0.00000000  0.55343900  0.50000000  1
  B  B14  1  0.44656100  0.44656100  0.50000000  1
  B  B15  1  0.00000000  0.00000000  0.50000000  1
  B  B16  1  0.22010567  0.33333333  0.83333333  1
  B  B17  1  0.66666667  0.88677233  0.83333333  1
  B  B18  1  0.11322767  0.77989433  0.83333333  1
  B  B19  1  0.66666667  0.33333333  0.83333333  1
  B  B20  1  0.88677233  0.66666667  0.16666667  1
  B  B21  1  0.33333333  0.22010567  0.16666667  1
  B  B22  1  0.77989433  0.11322767  0.16666667  1
  B  B23  1  0.33333333  0.66666667  0.16666667  1
  O  O24  1  0.69188200  0.14453700  0.51816400  1
  O  O25  1  0.30811800  0.45265500  0.48183600  1
  O  O26  1  0.14453700  0.69188200  0.48183600  1
  O  O27  1  0.54734500  0.85546300  0.48183600  1
  O  O28  1  0.85659400  0.85659400  0.50000000  1
  O  O29  1  0.00000000  0.14340600  0.50000000  1
  O  O30  1  0.14340600  0.00000000  0.50000000  1
  O  O31  1  0.59001000  0.59001000  0.50000000  1
  O  O32  1  0.00000000  0.40999000  0.50000000  1
  O  O33  1  0.40999000  0.00000000  0.50000000  1
  O  O34  1  0.45265500  0.30811800  0.51816400  1
  O  O35  1  0.85546300  0.54734500  0.51816400  1
  O  O36  1  0.35854867  0.47787033  0.85149733  1
  O  O37  1  0.97478467  0.78598833  0.81516933  1
  O  O38  1  0.81120367  0.02521533  0.81516933  1
  O  O39  1  0.21401167  0.18879633  0.81516933  1
  O  O40  1  0.52326067  0.18992733  0.83333333  1
  O  O41  1  0.66666667  0.47673933  0.83333333  1
  O  O42  1  0.81007267  0.33333333  0.83333333  1
  O  O43  1  0.25667667  0.92334333  0.83333333  1
  O  O44  1  0.66666667  0.74332333  0.83333333  1
  O  O45  1  0.07665667  0.33333333  0.83333333  1
  O  O46  1  0.11932167  0.64145133  0.85149733  1
  O  O47  1  0.52212967  0.88067833  0.85149733  1
  O  O48  1  0.02521533  0.81120367  0.18483067  1
  O  O49  1  0.64145133  0.11932167  0.14850267  1
  O  O50  1  0.47787033  0.35854867  0.14850267  1
  O  O51  1  0.88067833  0.52212967  0.14850267  1
  O  O52  1  0.18992733  0.52326067  0.16666667  1
  O  O53  1  0.33333333  0.81007267  0.16666667  1
  O  O54  1  0.47673933  0.66666667  0.16666667  1
  O  O55  1  0.92334333  0.25667667  0.16666667  1
  O  O56  1  0.33333333  0.07665667  0.16666667  1
  O  O57  1  0.74332333  0.66666667  0.16666667  1
  O  O58  1  0.78598833  0.97478467  0.18483067  1
  O  O59  1  0.18879633  0.21401167  0.18483067  1
