# generated using pymatgen
data_V2CoO6
_symmetry_space_group_name_H-M   'P 1'
_cell_length_a   9.61989342
_cell_length_b   3.58512043
_cell_length_c   6.91153719
_cell_angle_alpha   90.00000000
_cell_angle_beta   104.44254967
_cell_angle_gamma   90.00000000
_symmetry_Int_Tables_number   1
_chemical_formula_structural   V2CoO6
_chemical_formula_sum   'V4 Co2 O12'
_cell_volume   230.83551937
_cell_formula_units_Z   2
loop_
 _symmetry_equiv_pos_site_id
 _symmetry_equiv_pos_as_xyz
  1  'x, y, z'
loop_
 _atom_site_type_symbol
 _atom_site_label
 _atom_site_symmetry_multiplicity
 _atom_site_fract_x
 _atom_site_fract_y
 _atom_site_fract_z
 _atom_site_occupancy
  V  V0  1  0.77527825  0.00000000  0.32045400  1
  V  V1  1  0.72472175  0.50000000  0.67954600  1
  V  V2  1  0.27527825  0.50000000  0.32045400  1
  V  V3  1  0.22472175  0.00000000  0.67954600  1
  Co  Co4  1  0.50000000  0.50000000  0.00000000  1
  Co  Co5  1  0.00000000  0.00000000  0.00000000  1
  O  O6  1  0.72458700  0.00000000  0.59237700  1
  O  O7  1  0.77541300  0.50000000  0.40762300  1
  O  O8  1  0.57129125  0.50000000  0.75607400  1
  O  O9  1  0.92870875  0.00000000  0.24392600  1
  O  O10  1  0.86612900  0.50000000  0.88480900  1
  O  O11  1  0.63387100  0.00000000  0.11519100  1
  O  O12  1  0.22458700  0.50000000  0.59237700  1
  O  O13  1  0.27541300  0.00000000  0.40762300  1
  O  O14  1  0.07129125  0.00000000  0.75607400  1
  O  O15  1  0.42870875  0.50000000  0.24392600  1
  O  O16  1  0.36612900  0.00000000  0.88480900  1
  O  O17  1  0.13387100  0.50000000  0.11519100  1
