# generated using pymatgen
data_BaGd2NiO5
_symmetry_space_group_name_H-M   'P 1'
_cell_length_a   3.83450000
_cell_length_b   5.87353600
_cell_length_c   11.56377400
_cell_angle_alpha   90.00000000
_cell_angle_beta   90.00000000
_cell_angle_gamma   90.00000000
_symmetry_Int_Tables_number   1
_chemical_formula_structural   BaGd2NiO5
_chemical_formula_sum   'Ba2 Gd4 Ni2 O10'
_cell_volume   260.44017134
_cell_formula_units_Z   2
loop_
 _symmetry_equiv_pos_site_id
 _symmetry_equiv_pos_as_xyz
  1  'x, y, z'
loop_
 _atom_site_type_symbol
 _atom_site_label
 _atom_site_symmetry_multiplicity
 _atom_site_fract_x
 _atom_site_fract_y
 _atom_site_fract_z
 _atom_site_occupancy
  Ba  Ba0  1  0.00000000  0.50000000  0.00000000  1
  Ba  Ba1  1  0.50000000  0.00000000  0.50000000  1
  Gd  Gd2  1  0.00000000  0.00000000  0.79657000  1
  Gd  Gd3  1  0.50000000  0.50000000  0.70343000  1
  Gd  Gd4  1  0.50000000  0.50000000  0.29657000  1
  Gd  Gd5  1  0.00000000  0.00000000  0.20343000  1
  Ni  Ni6  1  0.50000000  0.00000000  0.00000000  1
  Ni  Ni7  1  0.00000000  0.50000000  0.50000000  1
  O  O8  1  0.50000000  0.24138450  0.85228750  1
  O  O9  1  0.00000000  0.25861550  0.64771250  1
  O  O10  1  0.00000000  0.74138450  0.64771250  1
  O  O11  1  0.50000000  0.75861550  0.85228750  1
  O  O12  1  0.00000000  0.00000000  0.00000000  1
  O  O13  1  0.00000000  0.74138450  0.35228750  1
  O  O14  1  0.50000000  0.75861550  0.14771250  1
  O  O15  1  0.50000000  0.24138450  0.14771250  1
  O  O16  1  0.00000000  0.25861550  0.35228750  1
  O  O17  1  0.50000000  0.50000000  0.50000000  1
