# generated using pymatgen
data_CsErCdTe3
_symmetry_space_group_name_H-M   'P 1'
_cell_length_a   4.52742000
_cell_length_b   17.37547000
_cell_length_c   11.84082700
_cell_angle_alpha   90.00000000
_cell_angle_beta   90.00000000
_cell_angle_gamma   90.00000000
_symmetry_Int_Tables_number   1
_chemical_formula_structural   CsErCdTe3
_chemical_formula_sum   'Cs4 Er4 Cd4 Te12'
_cell_volume   931.47109341
_cell_formula_units_Z   4
loop_
 _symmetry_equiv_pos_site_id
 _symmetry_equiv_pos_as_xyz
  1  'x, y, z'
loop_
 _atom_site_type_symbol
 _atom_site_label
 _atom_site_symmetry_multiplicity
 _atom_site_fract_x
 _atom_site_fract_y
 _atom_site_fract_z
 _atom_site_occupancy
  Cs  Cs0  1  0.00000000  0.24890600  0.25000000  1
  Cs  Cs1  1  0.50000000  0.25109400  0.75000000  1
  Cs  Cs2  1  0.50000000  0.74890600  0.25000000  1
  Cs  Cs3  1  0.00000000  0.75109400  0.75000000  1
  Er  Er4  1  0.00000000  0.00000000  0.00000000  1
  Er  Er5  1  0.00000000  0.00000000  0.50000000  1
  Er  Er6  1  0.50000000  0.50000000  0.00000000  1
  Er  Er7  1  0.50000000  0.50000000  0.50000000  1
  Cd  Cd8  1  0.00000000  0.46239200  0.75000000  1
  Cd  Cd9  1  0.50000000  0.03760800  0.25000000  1
  Cd  Cd10  1  0.50000000  0.96239200  0.75000000  1
  Cd  Cd11  1  0.00000000  0.53760800  0.25000000  1
  Te  Te12  1  0.50000000  0.11923100  0.04468800  1
  Te  Te13  1  0.00000000  0.38076900  0.95531200  1
  Te  Te14  1  0.00000000  0.38076900  0.54468800  1
  Te  Te15  1  0.50000000  0.11923100  0.45531200  1
  Te  Te16  1  0.00000000  0.06480700  0.75000000  1
  Te  Te17  1  0.50000000  0.43519300  0.25000000  1
  Te  Te18  1  0.00000000  0.61923100  0.04468800  1
  Te  Te19  1  0.50000000  0.88076900  0.95531200  1
  Te  Te20  1  0.50000000  0.88076900  0.54468800  1
  Te  Te21  1  0.00000000  0.61923100  0.45531200  1
  Te  Te22  1  0.50000000  0.56480700  0.75000000  1
  Te  Te23  1  0.00000000  0.93519300  0.25000000  1
