# generated using pymatgen
data_Na5CoSO2
_symmetry_space_group_name_H-M   'P 1'
_cell_length_a   4.61011050
_cell_length_b   4.61011050
_cell_length_c   8.13028300
_cell_angle_alpha   90.00000000
_cell_angle_beta   90.00000000
_cell_angle_gamma   90.00000000
_symmetry_Int_Tables_number   1
_chemical_formula_structural   Na5CoSO2
_chemical_formula_sum   'Na5 Co1 S1 O2'
_cell_volume   172.79387066
_cell_formula_units_Z   1
loop_
 _symmetry_equiv_pos_site_id
 _symmetry_equiv_pos_as_xyz
  1  'x, y, z'
loop_
 _atom_site_type_symbol
 _atom_site_label
 _atom_site_symmetry_multiplicity
 _atom_site_fract_x
 _atom_site_fract_y
 _atom_site_fract_z
 _atom_site_occupancy
  Na  Na0  1  0.00000000  0.00000000  0.50000000  1
  Na  Na1  1  0.00000000  0.50000000  0.25398700  1
  Na  Na2  1  0.50000000  0.00000000  0.25398700  1
  Na  Na3  1  0.00000000  0.50000000  0.74601300  1
  Na  Na4  1  0.50000000  0.00000000  0.74601300  1
  Co  Co5  1  0.00000000  0.00000000  0.00000000  1
  S  S6  1  0.50000000  0.50000000  0.50000000  1
  O  O7  1  0.00000000  0.00000000  0.78193500  1
  O  O8  1  0.00000000  0.00000000  0.21806500  1
