# generated using pymatgen
data_SrCu2GeSe4
_symmetry_space_group_name_H-M   'P 1'
_cell_length_a   6.61987200
_cell_length_b   10.84754800
_cell_length_c   10.89029700
_cell_angle_alpha   90.00000000
_cell_angle_beta   90.00000000
_cell_angle_gamma   90.00000000
_symmetry_Int_Tables_number   1
_chemical_formula_structural   SrCu2GeSe4
_chemical_formula_sum   'Sr4 Cu8 Ge4 Se16'
_cell_volume   782.02546768
_cell_formula_units_Z   4
loop_
 _symmetry_equiv_pos_site_id
 _symmetry_equiv_pos_as_xyz
  1  'x, y, z'
loop_
 _atom_site_type_symbol
 _atom_site_label
 _atom_site_symmetry_multiplicity
 _atom_site_fract_x
 _atom_site_fract_y
 _atom_site_fract_z
 _atom_site_occupancy
  Sr  Sr0  1  0.01256800  0.00000000  0.50000000  1
  Sr  Sr1  1  0.01256800  0.00000000  0.00000000  1
  Sr  Sr2  1  0.51256800  0.50000000  0.50000000  1
  Sr  Sr3  1  0.51256800  0.50000000  0.00000000  1
  Cu  Cu4  1  0.41141200  0.22012100  0.62982200  1
  Cu  Cu5  1  0.41141200  0.77987900  0.37017800  1
  Cu  Cu6  1  0.41141200  0.77987900  0.12982200  1
  Cu  Cu7  1  0.41141200  0.22012100  0.87017800  1
  Cu  Cu8  1  0.91141200  0.72012100  0.62982200  1
  Cu  Cu9  1  0.91141200  0.27987900  0.37017800  1
  Cu  Cu10  1  0.91141200  0.27987900  0.12982200  1
  Cu  Cu11  1  0.91141200  0.72012100  0.87017800  1
  Ge  Ge12  1  0.41111050  0.85253050  0.75000000  1
  Ge  Ge13  1  0.41111050  0.14746950  0.25000000  1
  Ge  Ge14  1  0.91111050  0.35253050  0.75000000  1
  Ge  Ge15  1  0.91111050  0.64746950  0.25000000  1
  Se  Se16  1  0.24983100  0.05257600  0.75000000  1
  Se  Se17  1  0.24983100  0.94742400  0.25000000  1
  Se  Se18  1  0.26571850  0.74501750  0.57583300  1
  Se  Se19  1  0.26571850  0.25498250  0.42416700  1
  Se  Se20  1  0.26571850  0.74501750  0.92416700  1
  Se  Se21  1  0.26571850  0.25498250  0.07583300  1
  Se  Se22  1  0.76893150  0.10465750  0.25000000  1
  Se  Se23  1  0.76893150  0.89534250  0.75000000  1
  Se  Se24  1  0.74983100  0.55257600  0.75000000  1
  Se  Se25  1  0.74983100  0.44742400  0.25000000  1
  Se  Se26  1  0.76571850  0.24501750  0.57583300  1
  Se  Se27  1  0.76571850  0.75498250  0.42416700  1
  Se  Se28  1  0.76571850  0.24501750  0.92416700  1
  Se  Se29  1  0.76571850  0.75498250  0.07583300  1
  Se  Se30  1  0.26893150  0.60465750  0.25000000  1
  Se  Se31  1  0.26893150  0.39534250  0.75000000  1
