# generated using pymatgen
data_Nd3GaO6
_symmetry_space_group_name_H-M   'P 1'
_cell_length_a   9.27989600
_cell_length_b   11.63432200
_cell_length_c   5.63603000
_cell_angle_alpha   90.00000000
_cell_angle_beta   90.00000000
_cell_angle_gamma   90.00000000
_symmetry_Int_Tables_number   1
_chemical_formula_structural   Nd3GaO6
_chemical_formula_sum   'Nd12 Ga4 O24'
_cell_volume   608.49565956
_cell_formula_units_Z   4
loop_
 _symmetry_equiv_pos_site_id
 _symmetry_equiv_pos_as_xyz
  1  'x, y, z'
loop_
 _atom_site_type_symbol
 _atom_site_label
 _atom_site_symmetry_multiplicity
 _atom_site_fract_x
 _atom_site_fract_y
 _atom_site_fract_z
 _atom_site_occupancy
  Nd  Nd0  1  0.50000000  0.89651600  0.07552600  1
  Nd  Nd1  1  0.50000000  0.10348400  0.57552600  1
  Nd  Nd2  1  0.19338450  0.10623850  0.03149900  1
  Nd  Nd3  1  0.80661550  0.89376150  0.53149900  1
  Nd  Nd4  1  0.80661550  0.10623850  0.03149900  1
  Nd  Nd5  1  0.19338450  0.89376150  0.53149900  1
  Nd  Nd6  1  0.00000000  0.39651600  0.07552600  1
  Nd  Nd7  1  0.00000000  0.60348400  0.57552600  1
  Nd  Nd8  1  0.69338450  0.60623850  0.03149900  1
  Nd  Nd9  1  0.30661550  0.39376150  0.53149900  1
  Nd  Nd10  1  0.30661550  0.60623850  0.03149900  1
  Nd  Nd11  1  0.69338450  0.39376150  0.53149900  1
  Ga  Ga12  1  0.50000000  0.69194400  0.49741400  1
  Ga  Ga13  1  0.50000000  0.30805600  0.99741400  1
  Ga  Ga14  1  0.00000000  0.19194400  0.49741400  1
  Ga  Ga15  1  0.00000000  0.80805600  0.99741400  1
  O  O16  1  0.50000000  0.71466400  0.82498900  1
  O  O17  1  0.50000000  0.28533600  0.32498900  1
  O  O18  1  0.50000000  0.54191800  0.36564100  1
  O  O19  1  0.50000000  0.45808200  0.86564100  1
  O  O20  1  0.34066450  0.01314950  0.30143800  1
  O  O21  1  0.65933550  0.98685050  0.80143800  1
  O  O22  1  0.65933550  0.01314950  0.30143800  1
  O  O23  1  0.34066450  0.98685050  0.80143800  1
  O  O24  1  0.65431300  0.23901400  0.82935800  1
  O  O25  1  0.34568700  0.76098600  0.32935800  1
  O  O26  1  0.34568700  0.23901400  0.82935800  1
  O  O27  1  0.65431300  0.76098600  0.32935800  1
  O  O28  1  0.00000000  0.21466400  0.82498900  1
  O  O29  1  0.00000000  0.78533600  0.32498900  1
  O  O30  1  0.00000000  0.04191800  0.36564100  1
  O  O31  1  0.00000000  0.95808200  0.86564100  1
  O  O32  1  0.84066450  0.51314950  0.30143800  1
  O  O33  1  0.15933550  0.48685050  0.80143800  1
  O  O34  1  0.15933550  0.51314950  0.30143800  1
  O  O35  1  0.84066450  0.48685050  0.80143800  1
  O  O36  1  0.15431300  0.73901400  0.82935800  1
  O  O37  1  0.84568700  0.26098600  0.32935800  1
  O  O38  1  0.84568700  0.73901400  0.82935800  1
  O  O39  1  0.15431300  0.26098600  0.32935800  1
