# generated using pymatgen
data_NaMn(SiO3)2
_symmetry_space_group_name_H-M   'P 1'
_cell_length_a   9.66069446
_cell_length_b   8.75416777
_cell_length_c   5.43428255
_cell_angle_alpha   90.00000000
_cell_angle_beta   105.34387721
_cell_angle_gamma   90.00000000
_symmetry_Int_Tables_number   1
_chemical_formula_structural   NaMn(SiO3)2
_chemical_formula_sum   'Na4 Mn4 Si8 O24'
_cell_volume   443.20269397
_cell_formula_units_Z   4
loop_
 _symmetry_equiv_pos_site_id
 _symmetry_equiv_pos_as_xyz
  1  'x, y, z'
loop_
 _atom_site_type_symbol
 _atom_site_label
 _atom_site_symmetry_multiplicity
 _atom_site_fract_x
 _atom_site_fract_y
 _atom_site_fract_z
 _atom_site_occupancy
  Na  Na0  1  0.00000000  0.29644700  0.75000000  1
  Na  Na1  1  0.00000000  0.70355300  0.25000000  1
  Na  Na2  1  0.50000000  0.79644700  0.75000000  1
  Na  Na3  1  0.50000000  0.20355300  0.25000000  1
  Mn  Mn4  1  0.00000000  0.90441950  0.75000000  1
  Mn  Mn5  1  0.00000000  0.09558050  0.25000000  1
  Mn  Mn6  1  0.50000000  0.40441950  0.75000000  1
  Mn  Mn7  1  0.50000000  0.59558050  0.25000000  1
  Si  Si8  1  0.79379700  0.58763200  0.74652600  1
  Si  Si9  1  0.79379700  0.41236800  0.24652600  1
  Si  Si10  1  0.20620300  0.58763200  0.75347400  1
  Si  Si11  1  0.20620300  0.41236800  0.25347400  1
  Si  Si12  1  0.29379700  0.08763200  0.74652600  1
  Si  Si13  1  0.29379700  0.91236800  0.24652600  1
  Si  Si14  1  0.70620300  0.08763200  0.75347400  1
  Si  Si15  1  0.70620300  0.91236800  0.25347400  1
  O  O16  1  0.85540200  0.50669800  0.52051400  1
  O  O17  1  0.14459800  0.50669800  0.97948600  1
  O  O18  1  0.14459800  0.49330200  0.47948600  1
  O  O19  1  0.85540200  0.49330200  0.02051400  1
  O  O20  1  0.86078450  0.75765150  0.80353500  1
  O  O21  1  0.13921550  0.75765150  0.69646500  1
  O  O22  1  0.13921550  0.24234850  0.19646500  1
  O  O23  1  0.86078450  0.24234850  0.30353500  1
  O  O24  1  0.61792050  0.42398650  0.16131700  1
  O  O25  1  0.38207950  0.42398650  0.33868300  1
  O  O26  1  0.38207950  0.57601350  0.83868300  1
  O  O27  1  0.61792050  0.57601350  0.66131700  1
  O  O28  1  0.35540200  0.00669800  0.52051400  1
  O  O29  1  0.64459800  0.00669800  0.97948600  1
  O  O30  1  0.64459800  0.99330200  0.47948600  1
  O  O31  1  0.35540200  0.99330200  0.02051400  1
  O  O32  1  0.36078450  0.25765150  0.80353500  1
  O  O33  1  0.63921550  0.25765150  0.69646500  1
  O  O34  1  0.63921550  0.74234850  0.19646500  1
  O  O35  1  0.36078450  0.74234850  0.30353500  1
  O  O36  1  0.11792050  0.92398650  0.16131700  1
  O  O37  1  0.88207950  0.92398650  0.33868300  1
  O  O38  1  0.88207950  0.07601350  0.83868300  1
  O  O39  1  0.11792050  0.07601350  0.66131700  1
