# generated using pymatgen
data_RbPt2Se3
_symmetry_space_group_name_H-M   'P 1'
_cell_length_a   7.55555352
_cell_length_b   7.55555352
_cell_length_c   20.67004977
_cell_angle_alpha   90.00000000
_cell_angle_beta   90.00000000
_cell_angle_gamma   120.00000000
_symmetry_Int_Tables_number   1
_chemical_formula_structural   RbPt2Se3
_chemical_formula_sum   'Rb6 Pt12 Se18'
_cell_volume   1021.89135944
_cell_formula_units_Z   6
loop_
 _symmetry_equiv_pos_site_id
 _symmetry_equiv_pos_as_xyz
  1  'x, y, z'
loop_
 _atom_site_type_symbol
 _atom_site_label
 _atom_site_symmetry_multiplicity
 _atom_site_fract_x
 _atom_site_fract_y
 _atom_site_fract_z
 _atom_site_occupancy
  Rb  Rb0  1  0.66666667  0.33333333  0.13378533  1
  Rb  Rb1  1  0.00000000  0.00000000  0.19954800  1
  Rb  Rb2  1  0.33333333  0.66666667  0.46711867  1
  Rb  Rb3  1  0.66666667  0.33333333  0.53288133  1
  Rb  Rb4  1  0.00000000  0.00000000  0.80045200  1
  Rb  Rb5  1  0.33333333  0.66666667  0.86621467  1
  Pt  Pt6  1  0.00000000  0.00000000  0.00000000  1
  Pt  Pt7  1  0.50000000  0.00000000  0.00000000  1
  Pt  Pt8  1  0.50000000  0.50000000  0.00000000  1
  Pt  Pt9  1  0.00000000  0.50000000  0.00000000  1
  Pt  Pt10  1  0.66666667  0.33333333  0.33333333  1
  Pt  Pt11  1  0.16666667  0.33333333  0.33333333  1
  Pt  Pt12  1  0.16666667  0.83333333  0.33333333  1
  Pt  Pt13  1  0.66666667  0.83333333  0.33333333  1
  Pt  Pt14  1  0.33333333  0.66666667  0.66666667  1
  Pt  Pt15  1  0.83333333  0.66666667  0.66666667  1
  Pt  Pt16  1  0.83333333  0.16666667  0.66666667  1
  Pt  Pt17  1  0.33333333  0.16666667  0.66666667  1
  Se  Se18  1  0.49558133  0.99116267  0.27404867  1
  Se  Se19  1  0.00883733  0.50441867  0.27404867  1
  Se  Se20  1  0.49558133  0.50441867  0.27404867  1
  Se  Se21  1  0.65782933  0.82891467  0.05928467  1
  Se  Se22  1  0.17108533  0.34217067  0.05928467  1
  Se  Se23  1  0.17108533  0.82891467  0.05928467  1
  Se  Se24  1  0.16224800  0.32449600  0.60738200  1
  Se  Se25  1  0.67550400  0.83775200  0.60738200  1
  Se  Se26  1  0.16224800  0.83775200  0.60738200  1
  Se  Se27  1  0.32449600  0.16224800  0.39261800  1
  Se  Se28  1  0.83775200  0.67550400  0.39261800  1
  Se  Se29  1  0.83775200  0.16224800  0.39261800  1
  Se  Se30  1  0.82891467  0.65782933  0.94071533  1
  Se  Se31  1  0.34217067  0.17108533  0.94071533  1
  Se  Se32  1  0.82891467  0.17108533  0.94071533  1
  Se  Se33  1  0.99116267  0.49558133  0.72595133  1
  Se  Se34  1  0.50441867  0.00883733  0.72595133  1
  Se  Se35  1  0.50441867  0.49558133  0.72595133  1
