# generated using pymatgen
data_Na2Cu3(GeO3)4
_symmetry_space_group_name_H-M   'P 1'
_cell_length_a   5.55585775
_cell_length_b   6.52863621
_cell_length_c   7.77085869
_cell_angle_alpha   88.36591289
_cell_angle_beta   77.57055458
_cell_angle_gamma   89.19034151
_symmetry_Int_Tables_number   1
_chemical_formula_structural   Na2Cu3(GeO3)4
_chemical_formula_sum   'Na2 Cu3 Ge4 O12'
_cell_volume   275.13834240
_cell_formula_units_Z   1
loop_
 _symmetry_equiv_pos_site_id
 _symmetry_equiv_pos_as_xyz
  1  'x, y, z'
loop_
 _atom_site_type_symbol
 _atom_site_label
 _atom_site_symmetry_multiplicity
 _atom_site_fract_x
 _atom_site_fract_y
 _atom_site_fract_z
 _atom_site_occupancy
  Na  Na0  1  0.08288900  0.25477500  0.60662200  1
  Na  Na1  1  0.91711100  0.74522500  0.39337800  1
  Cu  Cu2  1  0.50171400  0.17375600  0.81517000  1
  Cu  Cu3  1  0.49828600  0.82624400  0.18483000  1
  Cu  Cu4  1  0.00000000  0.00000000  0.00000000  1
  Ge  Ge5  1  0.24642100  0.39106700  0.18293600  1
  Ge  Ge6  1  0.75357900  0.60893300  0.81706400  1
  Ge  Ge7  1  0.69172200  0.21457300  0.37071700  1
  Ge  Ge8  1  0.30827800  0.78542700  0.62928300  1
  O  O9  1  0.70016700  0.12453800  0.58347000  1
  O  O10  1  0.29983300  0.87546200  0.41653000  1
  O  O11  1  0.28471600  0.64245500  0.10055600  1
  O  O12  1  0.71528400  0.35754500  0.89944400  1
  O  O13  1  0.26238100  0.18128500  0.04124100  1
  O  O14  1  0.73761900  0.81871500  0.95875900  1
  O  O15  1  0.41359900  0.34649700  0.35721400  1
  O  O16  1  0.58640100  0.65350300  0.64278600  1
  O  O17  1  0.93602600  0.39846700  0.31736500  1
  O  O18  1  0.23409000  0.99492700  0.77433500  1
  O  O19  1  0.76591000  0.00507300  0.22566500  1
  O  O20  1  0.06397400  0.60153300  0.68263500  1
