# generated using pymatgen
data_CaAl2SiO6
_symmetry_space_group_name_H-M   'P 1'
_cell_length_a   9.72109000
_cell_length_b   8.72146800
_cell_length_c   5.33711908
_cell_angle_alpha   90.00000000
_cell_angle_beta   106.08442100
_cell_angle_gamma   90.00000000
_symmetry_Int_Tables_number   1
_chemical_formula_structural   CaAl2SiO6
_chemical_formula_sum   'Ca4 Al8 Si4 O24'
_cell_volume   434.77952777
_cell_formula_units_Z   4
loop_
 _symmetry_equiv_pos_site_id
 _symmetry_equiv_pos_as_xyz
  1  'x, y, z'
loop_
 _atom_site_type_symbol
 _atom_site_label
 _atom_site_symmetry_multiplicity
 _atom_site_fract_x
 _atom_site_fract_y
 _atom_site_fract_z
 _atom_site_occupancy
  Ca  Ca0  1  0.00000000  0.31127700  0.00000000  1
  Ca  Ca1  1  0.00000000  0.68912000  0.50000000  1
  Ca  Ca2  1  0.50000000  0.81127700  0.00000000  1
  Ca  Ca3  1  0.50000000  0.18912000  0.50000000  1
  Al  Al4  1  0.21502550  0.59891850  0.03857200  1
  Al  Al5  1  0.78497450  0.59891850  0.96142800  1
  Al  Al6  1  0.00000000  0.90928000  0.00000000  1
  Al  Al7  1  0.00000000  0.09109400  0.50000000  1
  Al  Al8  1  0.71502550  0.09891850  0.03857200  1
  Al  Al9  1  0.28497450  0.09891850  0.96142800  1
  Al  Al10  1  0.50000000  0.40928000  0.00000000  1
  Al  Al11  1  0.50000000  0.59109400  0.50000000  1
  Si  Si12  1  0.79051400  0.40437000  0.46610700  1
  Si  Si13  1  0.20948600  0.40437000  0.53389300  1
  Si  Si14  1  0.29051400  0.90437000  0.46610700  1
  Si  Si15  1  0.70948600  0.90437000  0.53389300  1
  O  O16  1  0.40443850  0.58243550  0.13755600  1
  O  O17  1  0.12810650  0.77024650  0.92863600  1
  O  O18  1  0.14355450  0.51400550  0.27643000  1
  O  O19  1  0.59556150  0.58243550  0.86244400  1
  O  O20  1  0.87189350  0.77024650  0.07136400  1
  O  O21  1  0.85644550  0.51400550  0.72357000  1
  O  O22  1  0.61314850  0.41778050  0.38154300  1
  O  O23  1  0.86165200  0.23629600  0.55380500  1
  O  O24  1  0.85338150  0.47556150  0.23637200  1
  O  O25  1  0.38685150  0.41778050  0.61845700  1
  O  O26  1  0.13834800  0.23629600  0.44619500  1
  O  O27  1  0.14661850  0.47556150  0.76362800  1
  O  O28  1  0.90443850  0.08243550  0.13755600  1
  O  O29  1  0.62810650  0.27024650  0.92863600  1
  O  O30  1  0.64355450  0.01400550  0.27643000  1
  O  O31  1  0.09556150  0.08243550  0.86244400  1
  O  O32  1  0.37189350  0.27024650  0.07136400  1
  O  O33  1  0.35644550  0.01400550  0.72357000  1
  O  O34  1  0.11314850  0.91778050  0.38154300  1
  O  O35  1  0.36165200  0.73629600  0.55380500  1
  O  O36  1  0.35338150  0.97556150  0.23637200  1
  O  O37  1  0.88685150  0.91778050  0.61845700  1
  O  O38  1  0.63834800  0.73629600  0.44619500  1
  O  O39  1  0.64661850  0.97556150  0.76362800  1
