# generated using pymatgen
data_Na5AsO5
_symmetry_space_group_name_H-M   'P 1'
_cell_length_a   6.03695400
_cell_length_b   6.50431800
_cell_length_c   16.62694200
_cell_angle_alpha   90.00000000
_cell_angle_beta   90.00000000
_cell_angle_gamma   90.00000000
_symmetry_Int_Tables_number   1
_chemical_formula_structural   Na5AsO5
_chemical_formula_sum   'Na20 As4 O20'
_cell_volume   652.87797003
_cell_formula_units_Z   4
loop_
 _symmetry_equiv_pos_site_id
 _symmetry_equiv_pos_as_xyz
  1  'x, y, z'
loop_
 _atom_site_type_symbol
 _atom_site_label
 _atom_site_symmetry_multiplicity
 _atom_site_fract_x
 _atom_site_fract_y
 _atom_site_fract_z
 _atom_site_occupancy
  Na  Na0  1  0.55850200  0.75000000  0.58933300  1
  Na  Na1  1  0.55850200  0.25000000  0.91066700  1
  Na  Na2  1  0.44149800  0.25000000  0.41066700  1
  Na  Na3  1  0.44149800  0.75000000  0.08933300  1
  Na  Na4  1  0.42406900  0.50000000  0.75000000  1
  Na  Na5  1  0.57593100  0.00000000  0.25000000  1
  Na  Na6  1  0.86607900  0.49425000  0.41461900  1
  Na  Na7  1  0.86607900  0.50575000  0.08538100  1
  Na  Na8  1  0.13392100  0.99425000  0.58538100  1
  Na  Na9  1  0.13392100  0.00575000  0.91461900  1
  Na  Na10  1  0.13392100  0.50575000  0.58538100  1
  Na  Na11  1  0.13392100  0.49425000  0.91461900  1
  Na  Na12  1  0.86607900  0.00575000  0.41461900  1
  Na  Na13  1  0.86607900  0.99425000  0.08538100  1
  Na  Na14  1  0.08674400  0.75000000  0.23007000  1
  Na  Na15  1  0.08674400  0.25000000  0.26993000  1
  Na  Na16  1  0.91325600  0.25000000  0.76993000  1
  Na  Na17  1  0.91325600  0.75000000  0.73007000  1
  Na  Na18  1  0.57593100  0.50000000  0.25000000  1
  Na  Na19  1  0.42406900  0.00000000  0.75000000  1
  As  As20  1  0.30662200  0.75000000  0.40406000  1
  As  As21  1  0.30662200  0.25000000  0.09594000  1
  As  As22  1  0.69337800  0.25000000  0.59594000  1
  As  As23  1  0.69337800  0.75000000  0.90406000  1
  O  O24  1  0.42701200  0.75000000  0.94182700  1
  O  O25  1  0.42701200  0.25000000  0.55817300  1
  O  O26  1  0.57298800  0.25000000  0.05817300  1
  O  O27  1  0.57298800  0.75000000  0.44182700  1
  O  O28  1  0.74371700  0.25000000  0.32414700  1
  O  O29  1  0.74371700  0.75000000  0.17585300  1
  O  O30  1  0.11071500  0.75000000  0.47987900  1
  O  O31  1  0.11071500  0.25000000  0.02012100  1
  O  O32  1  0.88928500  0.25000000  0.52012100  1
  O  O33  1  0.88928500  0.75000000  0.97987900  1
  O  O34  1  0.74433000  0.46471500  0.65495000  1
  O  O35  1  0.74433000  0.53528500  0.84505000  1
  O  O36  1  0.25567000  0.96471500  0.34505000  1
  O  O37  1  0.25567000  0.03528500  0.15495000  1
  O  O38  1  0.25567000  0.53528500  0.34505000  1
  O  O39  1  0.25567000  0.46471500  0.15495000  1
  O  O40  1  0.74433000  0.03528500  0.65495000  1
  O  O41  1  0.74433000  0.96471500  0.84505000  1
  O  O42  1  0.25628300  0.75000000  0.67585300  1
  O  O43  1  0.25628300  0.25000000  0.82414700  1
