# generated using pymatgen
data_CsAg3Se2
_symmetry_space_group_name_H-M   'P 1'
_cell_length_a   16.92331400
_cell_length_b   4.49216000
_cell_length_c   9.36033809
_cell_angle_alpha   90.00000000
_cell_angle_beta   112.62268302
_cell_angle_gamma   90.00000000
_symmetry_Int_Tables_number   1
_chemical_formula_structural   CsAg3Se2
_chemical_formula_sum   'Cs4 Ag12 Se8'
_cell_volume   656.84236665
_cell_formula_units_Z   4
loop_
 _symmetry_equiv_pos_site_id
 _symmetry_equiv_pos_as_xyz
  1  'x, y, z'
loop_
 _atom_site_type_symbol
 _atom_site_label
 _atom_site_symmetry_multiplicity
 _atom_site_fract_x
 _atom_site_fract_y
 _atom_site_fract_z
 _atom_site_occupancy
  Cs  Cs0  1  0.13692000  0.00000000  0.04798100  1
  Cs  Cs1  1  0.36308000  0.50000000  0.95201900  1
  Cs  Cs2  1  0.63692000  0.50000000  0.04798100  1
  Cs  Cs3  1  0.86308000  0.00000000  0.95201900  1
  Ag  Ag4  1  0.18839800  0.50000000  0.43698500  1
  Ag  Ag5  1  0.05784600  0.00000000  0.40345900  1
  Ag  Ag6  1  0.41014800  0.00000000  0.36368500  1
  Ag  Ag7  1  0.08985200  0.50000000  0.63631500  1
  Ag  Ag8  1  0.44215400  0.50000000  0.59654100  1
  Ag  Ag9  1  0.31160200  0.00000000  0.56301500  1
  Ag  Ag10  1  0.68839800  0.00000000  0.43698500  1
  Ag  Ag11  1  0.55784600  0.50000000  0.40345900  1
  Ag  Ag12  1  0.91014800  0.50000000  0.36368500  1
  Ag  Ag13  1  0.58985200  0.00000000  0.63631500  1
  Ag  Ag14  1  0.94215400  0.00000000  0.59654100  1
  Ag  Ag15  1  0.81160200  0.50000000  0.56301500  1
  Se  Se16  1  0.02159100  0.50000000  0.22946700  1
  Se  Se17  1  0.47840900  0.00000000  0.77053300  1
  Se  Se18  1  0.19393300  0.00000000  0.68429300  1
  Se  Se19  1  0.30606700  0.50000000  0.31570700  1
  Se  Se20  1  0.52159100  0.00000000  0.22946700  1
  Se  Se21  1  0.97840900  0.50000000  0.77053300  1
  Se  Se22  1  0.69393300  0.50000000  0.68429300  1
  Se  Se23  1  0.80606700  0.00000000  0.31570700  1
