# generated using pymatgen
data_Ho2SiSeO4
_symmetry_space_group_name_H-M   'P 1'
_cell_length_a   6.04202100
_cell_length_b   6.95092600
_cell_length_c   10.82142600
_cell_angle_alpha   90.00000000
_cell_angle_beta   90.00000000
_cell_angle_gamma   90.00000000
_symmetry_Int_Tables_number   1
_chemical_formula_structural   Ho2SiSeO4
_chemical_formula_sum   'Ho8 Si4 Se4 O16'
_cell_volume   454.47436276
_cell_formula_units_Z   4
loop_
 _symmetry_equiv_pos_site_id
 _symmetry_equiv_pos_as_xyz
  1  'x, y, z'
loop_
 _atom_site_type_symbol
 _atom_site_label
 _atom_site_symmetry_multiplicity
 _atom_site_fract_x
 _atom_site_fract_y
 _atom_site_fract_z
 _atom_site_occupancy
  Ho  Ho0  1  0.60940200  0.25000000  0.50000000  1
  Ho  Ho1  1  0.60940200  0.25000000  0.00000000  1
  Ho  Ho2  1  0.39059800  0.75000000  0.50000000  1
  Ho  Ho3  1  0.39059800  0.75000000  0.00000000  1
  Ho  Ho4  1  0.86587900  0.52772100  0.75000000  1
  Ho  Ho5  1  0.86587900  0.97227900  0.25000000  1
  Ho  Ho6  1  0.13412100  0.02772100  0.75000000  1
  Ho  Ho7  1  0.13412100  0.47227900  0.25000000  1
  Si  Si8  1  0.11465800  0.25000000  0.50000000  1
  Si  Si9  1  0.88534200  0.75000000  0.50000000  1
  Si  Si10  1  0.88534200  0.75000000  0.00000000  1
  Si  Si11  1  0.11465800  0.25000000  0.00000000  1
  Se  Se12  1  0.57100000  0.86809100  0.75000000  1
  Se  Se13  1  0.57100000  0.63190900  0.25000000  1
  Se  Se14  1  0.42900000  0.36809100  0.75000000  1
  Se  Se15  1  0.42900000  0.13190900  0.25000000  1
  O  O16  1  0.27840000  0.43222500  0.03143600  1
  O  O17  1  0.27840000  0.06777500  0.96856400  1
  O  O18  1  0.72160000  0.93222500  0.46856400  1
  O  O19  1  0.72160000  0.56777500  0.53143600  1
  O  O20  1  0.72160000  0.56777500  0.96856400  1
  O  O21  1  0.72160000  0.93222500  0.03143600  1
  O  O22  1  0.27840000  0.06777500  0.53143600  1
  O  O23  1  0.27840000  0.43222500  0.46856400  1
  O  O24  1  0.05245400  0.74058800  0.12101300  1
  O  O25  1  0.05245400  0.74058800  0.37898700  1
  O  O26  1  0.94754600  0.24058800  0.37898700  1
  O  O27  1  0.94754600  0.25941200  0.62101300  1
  O  O28  1  0.94754600  0.25941200  0.87898700  1
  O  O29  1  0.94754600  0.24058800  0.12101300  1
  O  O30  1  0.05245400  0.75941200  0.62101300  1
  O  O31  1  0.05245400  0.75941200  0.87898700  1
