# generated using pymatgen
data_BaNi2(PO4)2
_symmetry_space_group_name_H-M   'P 1'
_cell_length_a   4.85253998
_cell_length_b   4.85253998
_cell_length_c   23.77455185
_cell_angle_alpha   90.00000000
_cell_angle_beta   90.00000000
_cell_angle_gamma   120.00000000
_symmetry_Int_Tables_number   1
_chemical_formula_structural   BaNi2(PO4)2
_chemical_formula_sum   'Ba3 Ni6 P6 O24'
_cell_volume   484.82076801
_cell_formula_units_Z   3
loop_
 _symmetry_equiv_pos_site_id
 _symmetry_equiv_pos_as_xyz
  1  'x, y, z'
loop_
 _atom_site_type_symbol
 _atom_site_label
 _atom_site_symmetry_multiplicity
 _atom_site_fract_x
 _atom_site_fract_y
 _atom_site_fract_z
 _atom_site_occupancy
  Ba  Ba0  1  0.00000000  0.00000000  0.00000000  1
  Ba  Ba1  1  0.66666667  0.33333333  0.33333333  1
  Ba  Ba2  1  0.33333333  0.66666667  0.66666667  1
  Ni  Ni3  1  0.00000000  0.00000000  0.16882800  1
  Ni  Ni4  1  0.66666667  0.33333333  0.16450533  1
  Ni  Ni5  1  0.66666667  0.33333333  0.50216133  1
  Ni  Ni6  1  0.33333333  0.66666667  0.49783867  1
  Ni  Ni7  1  0.33333333  0.66666667  0.83549467  1
  Ni  Ni8  1  0.00000000  0.00000000  0.83117200  1
  P  P9  1  0.33333333  0.66666667  0.09427933  1
  P  P10  1  0.33333333  0.66666667  0.23905400  1
  P  P11  1  0.00000000  0.00000000  0.42761267  1
  P  P12  1  0.00000000  0.00000000  0.57238733  1
  P  P13  1  0.66666667  0.33333333  0.76094600  1
  P  P14  1  0.66666667  0.33333333  0.90572067  1
  O  O15  1  0.33333333  0.66666667  0.02996067  1
  O  O16  1  0.33333333  0.66666667  0.30337267  1
  O  O17  1  0.63569867  0.65792633  0.21793933  1
  O  O18  1  0.34207367  0.97777233  0.21793933  1
  O  O19  1  0.02222767  0.36430133  0.21793933  1
  O  O20  1  0.03096800  0.67540700  0.11539400  1
  O  O21  1  0.32459300  0.35556100  0.11539400  1
  O  O22  1  0.64443900  0.96903200  0.11539400  1
  O  O23  1  0.00000000  0.00000000  0.36329400  1
  O  O24  1  0.00000000  0.00000000  0.63670600  1
  O  O25  1  0.30236533  0.99125967  0.55127267  1
  O  O26  1  0.00874033  0.31110567  0.55127267  1
  O  O27  1  0.68889433  0.69763467  0.55127267  1
  O  O28  1  0.69763467  0.00874033  0.44872733  1
  O  O29  1  0.99125967  0.68889433  0.44872733  1
  O  O30  1  0.31110567  0.30236533  0.44872733  1
  O  O31  1  0.66666667  0.33333333  0.69662733  1
  O  O32  1  0.66666667  0.33333333  0.97003933  1
  O  O33  1  0.96903200  0.32459300  0.88460600  1
  O  O34  1  0.67540700  0.64443900  0.88460600  1
  O  O35  1  0.35556100  0.03096800  0.88460600  1
  O  O36  1  0.36430133  0.34207367  0.78206067  1
  O  O37  1  0.65792633  0.02222767  0.78206067  1
  O  O38  1  0.97777233  0.63569867  0.78206067  1
