# generated using pymatgen
data_Rb2GaAs2
_symmetry_space_group_name_H-M   'P 1'
_cell_length_a   9.23597900
_cell_length_b   14.92385800
_cell_length_c   11.88862887
_cell_angle_alpha   90.00000000
_cell_angle_beta   118.23246210
_cell_angle_gamma   90.00000000
_symmetry_Int_Tables_number   1
_chemical_formula_structural   Rb2GaAs2
_chemical_formula_sum   'Rb16 Ga8 As16'
_cell_volume   1443.74090311
_cell_formula_units_Z   8
loop_
 _symmetry_equiv_pos_site_id
 _symmetry_equiv_pos_as_xyz
  1  'x, y, z'
loop_
 _atom_site_type_symbol
 _atom_site_label
 _atom_site_symmetry_multiplicity
 _atom_site_fract_x
 _atom_site_fract_y
 _atom_site_fract_z
 _atom_site_occupancy
  Rb  Rb0  1  0.49241700  0.38289100  0.43062100  1
  Rb  Rb1  1  0.50758300  0.88289100  0.06937900  1
  Rb  Rb2  1  0.50758300  0.61710900  0.56937900  1
  Rb  Rb3  1  0.49241700  0.11710900  0.93062100  1
  Rb  Rb4  1  0.20514000  0.38639600  0.02301000  1
  Rb  Rb5  1  0.79486000  0.88639600  0.47699000  1
  Rb  Rb6  1  0.79486000  0.61360400  0.97699000  1
  Rb  Rb7  1  0.20514000  0.11360400  0.52301000  1
  Rb  Rb8  1  0.59078900  0.13056000  0.40661900  1
  Rb  Rb9  1  0.40921100  0.63056000  0.09338100  1
  Rb  Rb10  1  0.40921100  0.86944000  0.59338100  1
  Rb  Rb11  1  0.59078900  0.36944000  0.90661900  1
  Rb  Rb12  1  0.01345600  0.12912100  0.03563100  1
  Rb  Rb13  1  0.98654400  0.62912100  0.46436900  1
  Rb  Rb14  1  0.98654400  0.87087900  0.96436900  1
  Rb  Rb15  1  0.01345600  0.37087900  0.53563100  1
  Ga  Ga16  1  0.00112900  0.05830000  0.74333300  1
  Ga  Ga17  1  0.99887100  0.55830000  0.75666700  1
  Ga  Ga18  1  0.00112900  0.44170000  0.24333300  1
  Ga  Ga19  1  0.85651600  0.21632300  0.24265400  1
  Ga  Ga20  1  0.14348400  0.71632300  0.25734600  1
  Ga  Ga21  1  0.14348400  0.78367700  0.75734600  1
  Ga  Ga22  1  0.85651600  0.28367700  0.74265400  1
  Ga  Ga23  1  0.99887100  0.94170000  0.25666700  1
  As  As24  1  0.79716300  0.44506600  0.73966400  1
  As  As25  1  0.37250200  0.80964800  0.28750900  1
  As  As26  1  0.37250200  0.69035200  0.78750900  1
  As  As27  1  0.62749800  0.30964800  0.21249100  1
  As  As28  1  0.10654500  0.28869600  0.27173400  1
  As  As29  1  0.89345500  0.78869600  0.22826600  1
  As  As30  1  0.89345500  0.71130400  0.72826600  1
  As  As31  1  0.10654500  0.21130400  0.77173400  1
  As  As32  1  0.20283700  0.94506600  0.76033600  1
  As  As33  1  0.20283700  0.55493400  0.26033600  1
  As  As34  1  0.79716300  0.05493400  0.23966400  1
  As  As35  1  0.72976600  0.03525200  0.72096300  1
  As  As36  1  0.72976600  0.46474800  0.22096300  1
  As  As37  1  0.27023400  0.96474800  0.27903700  1
  As  As38  1  0.62749800  0.19035200  0.71249100  1
  As  As39  1  0.27023400  0.53525200  0.77903700  1
