# generated using pymatgen
data_LaPO4
_symmetry_space_group_name_H-M   'P 1'
_cell_length_a   7.29029600
_cell_length_b   7.29029600
_cell_length_c   6.34442400
_cell_angle_alpha   90.00000000
_cell_angle_beta   90.00000000
_cell_angle_gamma   90.00000000
_symmetry_Int_Tables_number   1
_chemical_formula_structural   LaPO4
_chemical_formula_sum   'La4 P4 O16'
_cell_volume   337.19608456
_cell_formula_units_Z   4
loop_
 _symmetry_equiv_pos_site_id
 _symmetry_equiv_pos_as_xyz
  1  'x, y, z'
loop_
 _atom_site_type_symbol
 _atom_site_label
 _atom_site_symmetry_multiplicity
 _atom_site_fract_x
 _atom_site_fract_y
 _atom_site_fract_z
 _atom_site_occupancy
  La  La0  1  0.50000000  0.50000000  0.50000000  1
  La  La1  1  0.50000000  0.00000000  0.25000000  1
  La  La2  1  0.00000000  0.00000000  0.00000000  1
  La  La3  1  0.00000000  0.50000000  0.75000000  1
  P  P4  1  0.50000000  0.00000000  0.75000000  1
  P  P5  1  0.00000000  0.00000000  0.50000000  1
  P  P6  1  0.00000000  0.50000000  0.25000000  1
  P  P7  1  0.50000000  0.50000000  0.00000000  1
  O  O8  1  0.83140950  0.50000000  0.40084050  1
  O  O9  1  0.00000000  0.83140950  0.65084050  1
  O  O10  1  0.00000000  0.16859050  0.65084050  1
  O  O11  1  0.66859050  0.00000000  0.90084050  1
  O  O12  1  0.16859050  0.00000000  0.34915950  1
  O  O13  1  0.50000000  0.16859050  0.59915950  1
  O  O14  1  0.00000000  0.33140950  0.09915950  1
  O  O15  1  0.83140950  0.00000000  0.34915950  1
  O  O16  1  0.33140950  0.00000000  0.90084050  1
  O  O17  1  0.50000000  0.33140950  0.15084050  1
  O  O18  1  0.50000000  0.66859050  0.15084050  1
  O  O19  1  0.16859050  0.50000000  0.40084050  1
  O  O20  1  0.66859050  0.50000000  0.84915950  1
  O  O21  1  0.00000000  0.66859050  0.09915950  1
  O  O22  1  0.50000000  0.83140950  0.59915950  1
  O  O23  1  0.33140950  0.50000000  0.84915950  1
