# generated using pymatgen
data_GdAl3(BO3)4
_symmetry_space_group_name_H-M   'P 1'
_cell_length_a   9.38236149
_cell_length_b   9.38236149
_cell_length_c   7.33876327
_cell_angle_alpha   90.00000000
_cell_angle_beta   90.00000000
_cell_angle_gamma   120.00000000
_symmetry_Int_Tables_number   1
_chemical_formula_structural   GdAl3(BO3)4
_chemical_formula_sum   'Gd3 Al9 B12 O36'
_cell_volume   559.47132757
_cell_formula_units_Z   3
loop_
 _symmetry_equiv_pos_site_id
 _symmetry_equiv_pos_as_xyz
  1  'x, y, z'
loop_
 _atom_site_type_symbol
 _atom_site_label
 _atom_site_symmetry_multiplicity
 _atom_site_fract_x
 _atom_site_fract_y
 _atom_site_fract_z
 _atom_site_occupancy
  Gd  Gd0  1  0.00000000  0.00000000  0.00000000  1
  Gd  Gd1  1  0.66666667  0.33333333  0.33333333  1
  Gd  Gd2  1  0.33333333  0.66666667  0.66666667  1
  Al  Al3  1  0.11124067  0.33333333  0.33333333  1
  Al  Al4  1  0.66666667  0.77790733  0.33333333  1
  Al  Al5  1  0.22209267  0.88875933  0.33333333  1
  Al  Al6  1  0.77790733  0.66666667  0.66666667  1
  Al  Al7  1  0.33333333  0.11124067  0.66666667  1
  Al  Al8  1  0.88875933  0.22209267  0.66666667  1
  Al  Al9  1  0.44457400  0.00000000  0.00000000  1
  Al  Al10  1  0.00000000  0.44457400  0.00000000  1
  Al  Al11  1  0.55542600  0.55542600  0.00000000  1
  B  B12  1  0.55710100  0.00000000  0.50000000  1
  B  B13  1  0.00000000  0.55710100  0.50000000  1
  B  B14  1  0.44289900  0.44289900  0.50000000  1
  B  B15  1  0.00000000  0.00000000  0.50000000  1
  B  B16  1  0.22376767  0.33333333  0.83333333  1
  B  B17  1  0.66666667  0.89043433  0.83333333  1
  B  B18  1  0.10956567  0.77623233  0.83333333  1
  B  B19  1  0.66666667  0.33333333  0.83333333  1
  B  B20  1  0.89043433  0.66666667  0.16666667  1
  B  B21  1  0.33333333  0.22376767  0.16666667  1
  B  B22  1  0.77623233  0.10956567  0.16666667  1
  B  B23  1  0.33333333  0.66666667  0.16666667  1
  O  O24  1  0.44894700  0.30062100  0.52320500  1
  O  O25  1  0.55105300  0.85167400  0.47679500  1
  O  O26  1  0.30062100  0.44894700  0.47679500  1
  O  O27  1  0.14832600  0.69937900  0.47679500  1
  O  O28  1  0.85139300  0.85139300  0.50000000  1
  O  O29  1  0.00000000  0.14860700  0.50000000  1
  O  O30  1  0.14860700  0.00000000  0.50000000  1
  O  O31  1  0.59130500  0.59130500  0.50000000  1
  O  O32  1  0.00000000  0.40869500  0.50000000  1
  O  O33  1  0.40869500  0.00000000  0.50000000  1
  O  O34  1  0.85167400  0.55105300  0.52320500  1
  O  O35  1  0.69937900  0.14832600  0.52320500  1
  O  O36  1  0.11561367  0.63395433  0.85653833  1
  O  O37  1  0.21771967  0.18500733  0.81012833  1
  O  O38  1  0.96728767  0.78228033  0.81012833  1
  O  O39  1  0.81499267  0.03271233  0.81012833  1
  O  O40  1  0.51805967  0.18472633  0.83333333  1
  O  O41  1  0.66666667  0.48194033  0.83333333  1
  O  O42  1  0.81527367  0.33333333  0.83333333  1
  O  O43  1  0.25797167  0.92463833  0.83333333  1
  O  O44  1  0.66666667  0.74202833  0.83333333  1
  O  O45  1  0.07536167  0.33333333  0.83333333  1
  O  O46  1  0.51834067  0.88438633  0.85653833  1
  O  O47  1  0.36604567  0.48165933  0.85653833  1
  O  O48  1  0.78228033  0.96728767  0.18987167  1
  O  O49  1  0.88438633  0.51834067  0.14346167  1
  O  O50  1  0.63395433  0.11561367  0.14346167  1
  O  O51  1  0.48165933  0.36604567  0.14346167  1
  O  O52  1  0.18472633  0.51805967  0.16666667  1
  O  O53  1  0.33333333  0.81527367  0.16666667  1
  O  O54  1  0.48194033  0.66666667  0.16666667  1
  O  O55  1  0.92463833  0.25797167  0.16666667  1
  O  O56  1  0.33333333  0.07536167  0.16666667  1
  O  O57  1  0.74202833  0.66666667  0.16666667  1
  O  O58  1  0.18500733  0.21771967  0.18987167  1
  O  O59  1  0.03271233  0.81499267  0.18987167  1
