# generated using pymatgen
data_LiMnBO3
_symmetry_space_group_name_H-M   'P 1'
_cell_length_a   8.27041972
_cell_length_b   8.27041972
_cell_length_c   3.19468300
_cell_angle_alpha   90.00000000
_cell_angle_beta   90.00000000
_cell_angle_gamma   120.00000000
_symmetry_Int_Tables_number   1
_chemical_formula_structural   LiMnBO3
_chemical_formula_sum   'Li3 Mn3 B3 O9'
_cell_volume   189.24024579
_cell_formula_units_Z   3
loop_
 _symmetry_equiv_pos_site_id
 _symmetry_equiv_pos_as_xyz
  1  'x, y, z'
loop_
 _atom_site_type_symbol
 _atom_site_label
 _atom_site_symmetry_multiplicity
 _atom_site_fract_x
 _atom_site_fract_y
 _atom_site_fract_z
 _atom_site_occupancy
  Li  Li0  1  0.36809600  0.31769800  0.00000000  1
  Li  Li1  1  0.94960200  0.63190400  0.00000000  1
  Li  Li2  1  0.68230200  0.05039800  0.00000000  1
  Mn  Mn3  1  0.30554800  0.96173300  0.50000000  1
  Mn  Mn4  1  0.65618500  0.69445200  0.50000000  1
  Mn  Mn5  1  0.03826700  0.34381500  0.50000000  1
  B  B6  1  0.00000000  0.00000000  0.00000000  1
  B  B7  1  0.66666667  0.33333333  0.50000000  1
  B  B8  1  0.33333333  0.66666667  0.00000000  1
  O  O9  1  0.80632100  0.89460700  0.00000000  1
  O  O10  1  0.10539300  0.91171400  0.00000000  1
  O  O11  1  0.08828600  0.19367900  0.00000000  1
  O  O12  1  0.78168100  0.52692800  0.50000000  1
  O  O13  1  0.47307200  0.25475300  0.50000000  1
  O  O14  1  0.74524700  0.21831900  0.50000000  1
  O  O15  1  0.41458600  0.86031000  0.00000000  1
  O  O16  1  0.13969000  0.55427600  0.00000000  1
  O  O17  1  0.44572400  0.58541400  0.00000000  1
