# generated using pymatgen
data_CaMn2O4
_symmetry_space_group_name_H-M   'P 1'
_cell_length_a   3.20501000
_cell_length_b   9.80941100
_cell_length_c   10.19612000
_cell_angle_alpha   90.00000000
_cell_angle_beta   90.00000000
_cell_angle_gamma   90.00000000
_symmetry_Int_Tables_number   1
_chemical_formula_structural   CaMn2O4
_chemical_formula_sum   'Ca4 Mn8 O16'
_cell_volume   320.55847123
_cell_formula_units_Z   4
loop_
 _symmetry_equiv_pos_site_id
 _symmetry_equiv_pos_as_xyz
  1  'x, y, z'
loop_
 _atom_site_type_symbol
 _atom_site_label
 _atom_site_symmetry_multiplicity
 _atom_site_fract_x
 _atom_site_fract_y
 _atom_site_fract_z
 _atom_site_occupancy
  Ca  Ca0  1  0.67849700  0.75000000  0.85087300  1
  Ca  Ca1  1  0.67849700  0.25000000  0.64912700  1
  Ca  Ca2  1  0.32150300  0.75000000  0.35087300  1
  Ca  Ca3  1  0.32150300  0.25000000  0.14912700  1
  Mn  Mn4  1  0.20371600  0.06873700  0.88812700  1
  Mn  Mn5  1  0.79628400  0.43126300  0.38812700  1
  Mn  Mn6  1  0.20371600  0.93126300  0.61187300  1
  Mn  Mn7  1  0.79628400  0.56873700  0.11187300  1
  Mn  Mn8  1  0.20371600  0.56873700  0.61187300  1
  Mn  Mn9  1  0.79628400  0.06873700  0.38812700  1
  Mn  Mn10  1  0.20371600  0.43126300  0.88812700  1
  Mn  Mn11  1  0.79628400  0.93126300  0.11187300  1
  O  O12  1  0.58979800  0.00000000  0.75000000  1
  O  O13  1  0.58979800  0.50000000  0.75000000  1
  O  O14  1  0.41020200  0.00000000  0.25000000  1
  O  O15  1  0.41020200  0.50000000  0.25000000  1
  O  O16  1  0.18570100  0.25000000  0.81337000  1
  O  O17  1  0.81429900  0.25000000  0.31337000  1
  O  O18  1  0.81429900  0.75000000  0.18663000  1
  O  O19  1  0.18570100  0.75000000  0.68663000  1
  O  O20  1  0.79922000  0.89161700  0.47255300  1
  O  O21  1  0.20078000  0.10838300  0.52744700  1
  O  O22  1  0.20078000  0.89161700  0.97255300  1
  O  O23  1  0.20078000  0.60838300  0.97255300  1
  O  O24  1  0.79922000  0.10838300  0.02744700  1
  O  O25  1  0.79922000  0.60838300  0.47255300  1
  O  O26  1  0.79922000  0.39161700  0.02744700  1
  O  O27  1  0.20078000  0.39161700  0.52744700  1
