# generated using pymatgen
data_NaAg3S2
_symmetry_space_group_name_H-M   'P 1'
_cell_length_a   12.57324000
_cell_length_b   12.57324000
_cell_length_c   12.57324000
_cell_angle_alpha   90.00000000
_cell_angle_beta   90.00000000
_cell_angle_gamma   90.00000000
_symmetry_Int_Tables_number   1
_chemical_formula_structural   NaAg3S2
_chemical_formula_sum   'Na16 Ag48 S32'
_cell_volume   1987.65779653
_cell_formula_units_Z   16
loop_
 _symmetry_equiv_pos_site_id
 _symmetry_equiv_pos_as_xyz
  1  'x, y, z'
loop_
 _atom_site_type_symbol
 _atom_site_label
 _atom_site_symmetry_multiplicity
 _atom_site_fract_x
 _atom_site_fract_y
 _atom_site_fract_z
 _atom_site_occupancy
  Na  Na0  1  0.87500000  0.87500000  0.12500000  1
  Na  Na1  1  0.37500000  0.12500000  0.37500000  1
  Na  Na2  1  0.62500000  0.87500000  0.37500000  1
  Na  Na3  1  0.12500000  0.12500000  0.12500000  1
  Na  Na4  1  0.87500000  0.37500000  0.62500000  1
  Na  Na5  1  0.37500000  0.62500000  0.87500000  1
  Na  Na6  1  0.62500000  0.37500000  0.87500000  1
  Na  Na7  1  0.12500000  0.62500000  0.62500000  1
  Na  Na8  1  0.37500000  0.87500000  0.62500000  1
  Na  Na9  1  0.87500000  0.12500000  0.87500000  1
  Na  Na10  1  0.12500000  0.87500000  0.87500000  1
  Na  Na11  1  0.62500000  0.12500000  0.62500000  1
  Na  Na12  1  0.37500000  0.37500000  0.12500000  1
  Na  Na13  1  0.87500000  0.62500000  0.37500000  1
  Na  Na14  1  0.12500000  0.37500000  0.37500000  1
  Na  Na15  1  0.62500000  0.62500000  0.12500000  1
  Ag  Ag16  1  0.42145400  0.75000000  0.25000000  1
  Ag  Ag17  1  0.17145400  0.00000000  0.50000000  1
  Ag  Ag18  1  0.25000000  0.92145400  0.25000000  1
  Ag  Ag19  1  0.25000000  0.75000000  0.42145400  1
  Ag  Ag20  1  0.25000000  0.75000000  0.07854600  1
  Ag  Ag21  1  0.25000000  0.57854600  0.25000000  1
  Ag  Ag22  1  0.82854600  0.00000000  0.50000000  1
  Ag  Ag23  1  0.00000000  0.00000000  0.32854600  1
  Ag  Ag24  1  0.50000000  0.00000000  0.17145400  1
  Ag  Ag25  1  0.50000000  0.67145400  0.50000000  1
  Ag  Ag26  1  0.50000000  0.32854600  0.50000000  1
  Ag  Ag27  1  0.07854600  0.75000000  0.25000000  1
  Ag  Ag28  1  0.42145400  0.25000000  0.75000000  1
  Ag  Ag29  1  0.17145400  0.50000000  0.00000000  1
  Ag  Ag30  1  0.25000000  0.42145400  0.75000000  1
  Ag  Ag31  1  0.25000000  0.25000000  0.92145400  1
  Ag  Ag32  1  0.25000000  0.25000000  0.57854600  1
  Ag  Ag33  1  0.25000000  0.07854600  0.75000000  1
  Ag  Ag34  1  0.82854600  0.50000000  0.00000000  1
  Ag  Ag35  1  0.00000000  0.50000000  0.82854600  1
  Ag  Ag36  1  0.50000000  0.50000000  0.67145400  1
  Ag  Ag37  1  0.50000000  0.17145400  0.00000000  1
  Ag  Ag38  1  0.50000000  0.82854600  0.00000000  1
  Ag  Ag39  1  0.07854600  0.25000000  0.75000000  1
  Ag  Ag40  1  0.92145400  0.75000000  0.75000000  1
  Ag  Ag41  1  0.67145400  0.00000000  0.00000000  1
  Ag  Ag42  1  0.75000000  0.92145400  0.75000000  1
  Ag  Ag43  1  0.75000000  0.75000000  0.92145400  1
  Ag  Ag44  1  0.75000000  0.75000000  0.57854600  1
  Ag  Ag45  1  0.75000000  0.57854600  0.75000000  1
  Ag  Ag46  1  0.32854600  0.00000000  0.00000000  1
  Ag  Ag47  1  0.50000000  0.00000000  0.82854600  1
  Ag  Ag48  1  0.00000000  0.00000000  0.67145400  1
  Ag  Ag49  1  0.00000000  0.67145400  0.00000000  1
  Ag  Ag50  1  0.00000000  0.32854600  0.00000000  1
  Ag  Ag51  1  0.57854600  0.75000000  0.75000000  1
  Ag  Ag52  1  0.92145400  0.25000000  0.25000000  1
  Ag  Ag53  1  0.67145400  0.50000000  0.50000000  1
  Ag  Ag54  1  0.75000000  0.42145400  0.25000000  1
  Ag  Ag55  1  0.75000000  0.25000000  0.42145400  1
  Ag  Ag56  1  0.75000000  0.25000000  0.07854600  1
  Ag  Ag57  1  0.75000000  0.07854600  0.25000000  1
  Ag  Ag58  1  0.32854600  0.50000000  0.50000000  1
  Ag  Ag59  1  0.50000000  0.50000000  0.32854600  1
  Ag  Ag60  1  0.00000000  0.50000000  0.17145400  1
  Ag  Ag61  1  0.00000000  0.17145400  0.50000000  1
  Ag  Ag62  1  0.00000000  0.82854600  0.50000000  1
  Ag  Ag63  1  0.57854600  0.25000000  0.25000000  1
  S  S64  1  0.13801667  0.13801667  0.36198333  1
  S  S65  1  0.38801667  0.88801667  0.38801667  1
  S  S66  1  0.36198333  0.13801667  0.13801667  1
  S  S67  1  0.13801667  0.36198333  0.13801667  1
  S  S68  1  0.61198333  0.11198333  0.38801667  1
  S  S69  1  0.11198333  0.88801667  0.11198333  1
  S  S70  1  0.88801667  0.11198333  0.11198333  1
  S  S71  1  0.36198333  0.36198333  0.36198333  1
  S  S72  1  0.13801667  0.63801667  0.86198333  1
  S  S73  1  0.38801667  0.38801667  0.88801667  1
  S  S74  1  0.36198333  0.63801667  0.63801667  1
  S  S75  1  0.13801667  0.86198333  0.63801667  1
  S  S76  1  0.61198333  0.61198333  0.88801667  1
  S  S77  1  0.11198333  0.38801667  0.61198333  1
  S  S78  1  0.88801667  0.61198333  0.61198333  1
  S  S79  1  0.36198333  0.86198333  0.86198333  1
  S  S80  1  0.63801667  0.13801667  0.86198333  1
  S  S81  1  0.88801667  0.88801667  0.88801667  1
  S  S82  1  0.86198333  0.13801667  0.63801667  1
  S  S83  1  0.63801667  0.36198333  0.63801667  1
  S  S84  1  0.11198333  0.11198333  0.88801667  1
  S  S85  1  0.61198333  0.88801667  0.61198333  1
  S  S86  1  0.38801667  0.11198333  0.61198333  1
  S  S87  1  0.86198333  0.36198333  0.86198333  1
  S  S88  1  0.63801667  0.63801667  0.36198333  1
  S  S89  1  0.88801667  0.38801667  0.38801667  1
  S  S90  1  0.86198333  0.63801667  0.13801667  1
  S  S91  1  0.63801667  0.86198333  0.13801667  1
  S  S92  1  0.11198333  0.61198333  0.38801667  1
  S  S93  1  0.61198333  0.38801667  0.11198333  1
  S  S94  1  0.38801667  0.61198333  0.11198333  1
  S  S95  1  0.86198333  0.86198333  0.36198333  1
