# generated using pymatgen
data_K8SnSb4
_symmetry_space_group_name_H-M   'P 1'
_cell_length_a   16.50342200
_cell_length_b   16.50342200
_cell_length_c   16.50342200
_cell_angle_alpha   90.00000000
_cell_angle_beta   90.00000000
_cell_angle_gamma   90.00000000
_symmetry_Int_Tables_number   1
_chemical_formula_structural   K8SnSb4
_chemical_formula_sum   'K64 Sn8 Sb32'
_cell_volume   4494.92049819
_cell_formula_units_Z   8
loop_
 _symmetry_equiv_pos_site_id
 _symmetry_equiv_pos_as_xyz
  1  'x, y, z'
loop_
 _atom_site_type_symbol
 _atom_site_label
 _atom_site_symmetry_multiplicity
 _atom_site_fract_x
 _atom_site_fract_y
 _atom_site_fract_z
 _atom_site_occupancy
  K  K0  1  0.37500000  0.12500000  0.37500000  1
  K  K1  1  0.87500000  0.87500000  0.12500000  1
  K  K2  1  0.62500000  0.87500000  0.37500000  1
  K  K3  1  0.12500000  0.12500000  0.12500000  1
  K  K4  1  0.25000000  0.75000000  0.02250200  1
  K  K5  1  0.22749800  0.00000000  0.50000000  1
  K  K6  1  0.77250200  0.00000000  0.50000000  1
  K  K7  1  0.00000000  0.00000000  0.27250200  1
  K  K8  1  0.50000000  0.27250200  0.50000000  1
  K  K9  1  0.50000000  0.72749800  0.50000000  1
  K  K10  1  0.25000000  0.97749800  0.25000000  1
  K  K11  1  0.02250200  0.75000000  0.25000000  1
  K  K12  1  0.47749800  0.75000000  0.25000000  1
  K  K13  1  0.25000000  0.52250200  0.25000000  1
  K  K14  1  0.50000000  0.00000000  0.22749800  1
  K  K15  1  0.25000000  0.75000000  0.47749800  1
  K  K16  1  0.37500000  0.62500000  0.87500000  1
  K  K17  1  0.87500000  0.37500000  0.62500000  1
  K  K18  1  0.62500000  0.37500000  0.87500000  1
  K  K19  1  0.12500000  0.62500000  0.62500000  1
  K  K20  1  0.25000000  0.25000000  0.52250200  1
  K  K21  1  0.22749800  0.50000000  0.00000000  1
  K  K22  1  0.77250200  0.50000000  0.00000000  1
  K  K23  1  0.00000000  0.50000000  0.77250200  1
  K  K24  1  0.50000000  0.77250200  0.00000000  1
  K  K25  1  0.50000000  0.22749800  0.00000000  1
  K  K26  1  0.25000000  0.47749800  0.75000000  1
  K  K27  1  0.02250200  0.25000000  0.75000000  1
  K  K28  1  0.47749800  0.25000000  0.75000000  1
  K  K29  1  0.25000000  0.02250200  0.75000000  1
  K  K30  1  0.50000000  0.50000000  0.72749800  1
  K  K31  1  0.25000000  0.25000000  0.97749800  1
  K  K32  1  0.87500000  0.12500000  0.87500000  1
  K  K33  1  0.37500000  0.87500000  0.62500000  1
  K  K34  1  0.12500000  0.87500000  0.87500000  1
  K  K35  1  0.62500000  0.12500000  0.62500000  1
  K  K36  1  0.75000000  0.75000000  0.52250200  1
  K  K37  1  0.72749800  0.00000000  0.00000000  1
  K  K38  1  0.27250200  0.00000000  0.00000000  1
  K  K39  1  0.50000000  0.00000000  0.77250200  1
  K  K40  1  0.00000000  0.27250200  0.00000000  1
  K  K41  1  0.00000000  0.72749800  0.00000000  1
  K  K42  1  0.75000000  0.97749800  0.75000000  1
  K  K43  1  0.52250200  0.75000000  0.75000000  1
  K  K44  1  0.97749800  0.75000000  0.75000000  1
  K  K45  1  0.75000000  0.52250200  0.75000000  1
  K  K46  1  0.00000000  0.00000000  0.72749800  1
  K  K47  1  0.75000000  0.75000000  0.97749800  1
  K  K48  1  0.87500000  0.62500000  0.37500000  1
  K  K49  1  0.37500000  0.37500000  0.12500000  1
  K  K50  1  0.12500000  0.37500000  0.37500000  1
  K  K51  1  0.62500000  0.62500000  0.12500000  1
  K  K52  1  0.75000000  0.25000000  0.02250200  1
  K  K53  1  0.72749800  0.50000000  0.50000000  1
  K  K54  1  0.27250200  0.50000000  0.50000000  1
  K  K55  1  0.50000000  0.50000000  0.27250200  1
  K  K56  1  0.00000000  0.77250200  0.50000000  1
  K  K57  1  0.00000000  0.22749800  0.50000000  1
  K  K58  1  0.75000000  0.47749800  0.25000000  1
  K  K59  1  0.52250200  0.25000000  0.25000000  1
  K  K60  1  0.97749800  0.25000000  0.25000000  1
  K  K61  1  0.75000000  0.02250200  0.25000000  1
  K  K62  1  0.00000000  0.50000000  0.22749800  1
  K  K63  1  0.75000000  0.25000000  0.47749800  1
  Sn  Sn64  1  0.25000000  0.25000000  0.25000000  1
  Sn  Sn65  1  0.50000000  0.00000000  0.50000000  1
  Sn  Sn66  1  0.25000000  0.75000000  0.75000000  1
  Sn  Sn67  1  0.50000000  0.50000000  0.00000000  1
  Sn  Sn68  1  0.75000000  0.25000000  0.75000000  1
  Sn  Sn69  1  0.00000000  0.00000000  0.00000000  1
  Sn  Sn70  1  0.75000000  0.75000000  0.25000000  1
  Sn  Sn71  1  0.00000000  0.50000000  0.50000000  1
  Sb  Sb72  1  0.10309800  0.89690200  0.10309800  1
  Sb  Sb73  1  0.14690200  0.14690200  0.35309800  1
  Sb  Sb74  1  0.35309800  0.14690200  0.14690200  1
  Sb  Sb75  1  0.35309800  0.35309800  0.35309800  1
  Sb  Sb76  1  0.89690200  0.10309800  0.10309800  1
  Sb  Sb77  1  0.39690200  0.89690200  0.39690200  1
  Sb  Sb78  1  0.60309800  0.10309800  0.39690200  1
  Sb  Sb79  1  0.14690200  0.35309800  0.14690200  1
  Sb  Sb80  1  0.10309800  0.39690200  0.60309800  1
  Sb  Sb81  1  0.14690200  0.64690200  0.85309800  1
  Sb  Sb82  1  0.35309800  0.64690200  0.64690200  1
  Sb  Sb83  1  0.35309800  0.85309800  0.85309800  1
  Sb  Sb84  1  0.89690200  0.60309800  0.60309800  1
  Sb  Sb85  1  0.39690200  0.39690200  0.89690200  1
  Sb  Sb86  1  0.60309800  0.60309800  0.89690200  1
  Sb  Sb87  1  0.14690200  0.85309800  0.64690200  1
  Sb  Sb88  1  0.60309800  0.89690200  0.60309800  1
  Sb  Sb89  1  0.64690200  0.14690200  0.85309800  1
  Sb  Sb90  1  0.85309800  0.14690200  0.64690200  1
  Sb  Sb91  1  0.85309800  0.35309800  0.85309800  1
  Sb  Sb92  1  0.39690200  0.10309800  0.60309800  1
  Sb  Sb93  1  0.89690200  0.89690200  0.89690200  1
  Sb  Sb94  1  0.10309800  0.10309800  0.89690200  1
  Sb  Sb95  1  0.64690200  0.35309800  0.64690200  1
  Sb  Sb96  1  0.60309800  0.39690200  0.10309800  1
  Sb  Sb97  1  0.64690200  0.64690200  0.35309800  1
  Sb  Sb98  1  0.85309800  0.64690200  0.14690200  1
  Sb  Sb99  1  0.85309800  0.85309800  0.35309800  1
  Sb  Sb100  1  0.39690200  0.60309800  0.10309800  1
  Sb  Sb101  1  0.89690200  0.39690200  0.39690200  1
  Sb  Sb102  1  0.10309800  0.60309800  0.39690200  1
  Sb  Sb103  1  0.64690200  0.85309800  0.14690200  1
