# generated using pymatgen
data_Sr3Er2(BO3)4
_symmetry_space_group_name_H-M   'P 1'
_cell_length_a   7.37573400
_cell_length_b   8.71819000
_cell_length_c   16.27192900
_cell_angle_alpha   90.00000000
_cell_angle_beta   90.00000000
_cell_angle_gamma   90.00000000
_symmetry_Int_Tables_number   1
_chemical_formula_structural   Sr3Er2(BO3)4
_chemical_formula_sum   'Sr12 Er8 B16 O48'
_cell_volume   1046.33467062
_cell_formula_units_Z   4
loop_
 _symmetry_equiv_pos_site_id
 _symmetry_equiv_pos_as_xyz
  1  'x, y, z'
loop_
 _atom_site_type_symbol
 _atom_site_label
 _atom_site_symmetry_multiplicity
 _atom_site_fract_x
 _atom_site_fract_y
 _atom_site_fract_z
 _atom_site_occupancy
  Sr  Sr0  1  0.66907900  0.35195800  0.93621100  1
  Sr  Sr1  1  0.33092100  0.64804200  0.43621100  1
  Sr  Sr2  1  0.83092100  0.85195800  0.43621100  1
  Sr  Sr3  1  0.16907900  0.14804200  0.93621100  1
  Sr  Sr4  1  0.96602400  0.33888000  0.73063100  1
  Sr  Sr5  1  0.03397600  0.66112000  0.23063100  1
  Sr  Sr6  1  0.53397600  0.83888000  0.23063100  1
  Sr  Sr7  1  0.46602400  0.16112000  0.73063100  1
  Sr  Sr8  1  0.69642600  0.34764500  0.18778900  1
  Sr  Sr9  1  0.30357400  0.65235500  0.68778900  1
  Sr  Sr10  1  0.80357400  0.84764500  0.68778900  1
  Sr  Sr11  1  0.19642600  0.15235500  0.18778900  1
  Er  Er12  1  0.00173000  0.32347100  0.39742100  1
  Er  Er13  1  0.99827000  0.67652900  0.89742100  1
  Er  Er14  1  0.49827000  0.82347100  0.89742100  1
  Er  Er15  1  0.50173000  0.17652900  0.39742100  1
  Er  Er16  1  0.68265100  0.47328600  0.56302200  1
  Er  Er17  1  0.31734900  0.52671400  0.06302200  1
  Er  Er18  1  0.81734900  0.97328600  0.06302200  1
  Er  Er19  1  0.18265100  0.02671400  0.56302200  1
  B  B20  1  0.98578300  0.37432800  0.05685000  1
  B  B21  1  0.01421700  0.62567200  0.55685000  1
  B  B22  1  0.51421700  0.87432800  0.55685000  1
  B  B23  1  0.48578300  0.12567200  0.05685000  1
  B  B24  1  0.28907700  0.34503300  0.55848000  1
  B  B25  1  0.71092300  0.65496700  0.05848000  1
  B  B26  1  0.21092300  0.84503300  0.05848000  1
  B  B27  1  0.78907700  0.15496700  0.55848000  1
  B  B28  1  0.34582500  0.43222400  0.27257800  1
  B  B29  1  0.65417500  0.56777600  0.77257800  1
  B  B30  1  0.15417500  0.93222400  0.77257800  1
  B  B31  1  0.84582500  0.06777600  0.27257800  1
  B  B32  1  0.32419500  0.45646500  0.86318400  1
  B  B33  1  0.67580500  0.54353500  0.36318400  1
  B  B34  1  0.17580500  0.95646500  0.36318400  1
  B  B35  1  0.82419500  0.04353500  0.86318400  1
  O  O36  1  0.38292300  0.25949400  0.05266500  1
  O  O37  1  0.61707700  0.74050600  0.55266500  1
  O  O38  1  0.11707700  0.75949400  0.55266500  1
  O  O39  1  0.88292300  0.24050600  0.05266500  1
  O  O40  1  0.05704600  0.42417900  0.13109300  1
  O  O41  1  0.94295400  0.57582100  0.63109300  1
  O  O42  1  0.44295400  0.92417900  0.63109300  1
  O  O43  1  0.55704600  0.07582100  0.13109300  1
  O  O44  1  0.03487000  0.45784300  0.98686100  1
  O  O45  1  0.96513000  0.54215700  0.48686100  1
  O  O46  1  0.46513000  0.95784300  0.48686100  1
  O  O47  1  0.53487000  0.04215700  0.98686100  1
  O  O48  1  0.22439900  0.26425800  0.62515200  1
  O  O49  1  0.77560100  0.73574200  0.12515200  1
  O  O50  1  0.27560100  0.76425800  0.12515200  1
  O  O51  1  0.72439900  0.23574200  0.62515200  1
  O  O52  1  0.26996900  0.27248600  0.48208900  1
  O  O53  1  0.73003100  0.72751400  0.98208900  1
  O  O54  1  0.23003100  0.77248600  0.98208900  1
  O  O55  1  0.76996900  0.22751400  0.48208900  1
  O  O56  1  0.62567200  0.51633200  0.06639100  1
  O  O57  1  0.37432800  0.48366800  0.56639100  1
  O  O58  1  0.87432800  0.01633200  0.56639100  1
  O  O59  1  0.12567200  0.98366800  0.06639100  1
  O  O60  1  0.20640400  0.46656300  0.32703300  1
  O  O61  1  0.79359600  0.53343700  0.82703300  1
  O  O62  1  0.29359600  0.96656300  0.82703300  1
  O  O63  1  0.70640400  0.03343700  0.32703300  1
  O  O64  1  0.44156500  0.29608800  0.28221400  1
  O  O65  1  0.55843500  0.70391200  0.78221400  1
  O  O66  1  0.05843500  0.79608800  0.78221400  1
  O  O67  1  0.94156500  0.20391200  0.28221400  1
  O  O68  1  0.61384200  0.47765600  0.70574500  1
  O  O69  1  0.38615800  0.52234400  0.20574500  1
  O  O70  1  0.88615800  0.97765600  0.20574500  1
  O  O71  1  0.11384200  0.02234400  0.70574500  1
  O  O72  1  0.81730900  0.48404900  0.31755700  1
  O  O73  1  0.18269100  0.51595100  0.81755700  1
  O  O74  1  0.68269100  0.98404900  0.81755700  1
  O  O75  1  0.31730900  0.01595100  0.31755700  1
  O  O76  1  0.38228400  0.30748700  0.85094800  1
  O  O77  1  0.61771600  0.69251300  0.35094800  1
  O  O78  1  0.11771600  0.80748700  0.35094800  1
  O  O79  1  0.88228400  0.19251300  0.85094800  1
  O  O80  1  0.58994100  0.45607100  0.42378900  1
  O  O81  1  0.41005900  0.54392900  0.92378900  1
  O  O82  1  0.91005900  0.95607100  0.92378900  1
  O  O83  1  0.08994100  0.04392900  0.42378900  1
