# generated using pymatgen
data_K4ZnP2
_symmetry_space_group_name_H-M   'P 1'
_cell_length_a   5.67507344
_cell_length_b   5.67507344
_cell_length_c   26.34969140
_cell_angle_alpha   90.00000000
_cell_angle_beta   90.00000000
_cell_angle_gamma   120.00000000
_symmetry_Int_Tables_number   1
_chemical_formula_structural   K4ZnP2
_chemical_formula_sum   'K12 Zn3 P6'
_cell_volume   734.93534984
_cell_formula_units_Z   3
loop_
 _symmetry_equiv_pos_site_id
 _symmetry_equiv_pos_as_xyz
  1  'x, y, z'
loop_
 _atom_site_type_symbol
 _atom_site_label
 _atom_site_symmetry_multiplicity
 _atom_site_fract_x
 _atom_site_fract_y
 _atom_site_fract_z
 _atom_site_occupancy
  K  K0  1  0.00000000  0.00000000  0.20854900  1
  K  K1  1  0.66666667  0.33333333  0.12478433  1
  K  K2  1  0.33333333  0.66666667  0.05227567  1
  K  K3  1  0.33333333  0.66666667  0.28105767  1
  K  K4  1  0.66666667  0.33333333  0.54188233  1
  K  K5  1  0.33333333  0.66666667  0.45811767  1
  K  K6  1  0.00000000  0.00000000  0.38560900  1
  K  K7  1  0.00000000  0.00000000  0.61439100  1
  K  K8  1  0.33333333  0.66666667  0.87521567  1
  K  K9  1  0.00000000  0.00000000  0.79145100  1
  K  K10  1  0.66666667  0.33333333  0.71894233  1
  K  K11  1  0.66666667  0.33333333  0.94772433  1
  Zn  Zn12  1  0.00000000  0.00000000  0.00000000  1
  Zn  Zn13  1  0.66666667  0.33333333  0.33333333  1
  Zn  Zn14  1  0.33333333  0.66666667  0.66666667  1
  P  P15  1  0.00000000  0.00000000  0.08446200  1
  P  P16  1  0.66666667  0.33333333  0.24887133  1
  P  P17  1  0.66666667  0.33333333  0.41779533  1
  P  P18  1  0.33333333  0.66666667  0.58220467  1
  P  P19  1  0.33333333  0.66666667  0.75112867  1
  P  P20  1  0.00000000  0.00000000  0.91553800  1
