# generated using pymatgen
data_Sb3Ir
_symmetry_space_group_name_H-M   'P 1'
_cell_length_a   9.39461400
_cell_length_b   9.39461400
_cell_length_c   9.39461400
_cell_angle_alpha   90.00000000
_cell_angle_beta   90.00000000
_cell_angle_gamma   90.00000000
_symmetry_Int_Tables_number   1
_chemical_formula_structural   Sb3Ir
_chemical_formula_sum   'Sb24 Ir8'
_cell_volume   829.15709702
_cell_formula_units_Z   8
loop_
 _symmetry_equiv_pos_site_id
 _symmetry_equiv_pos_as_xyz
  1  'x, y, z'
loop_
 _atom_site_type_symbol
 _atom_site_label
 _atom_site_symmetry_multiplicity
 _atom_site_fract_x
 _atom_site_fract_y
 _atom_site_fract_z
 _atom_site_occupancy
  Sb  Sb0  1  0.16023000  0.34603200  0.50000000  1
  Sb  Sb1  1  0.83977000  0.34603200  0.50000000  1
  Sb  Sb2  1  0.66023000  0.15396800  0.00000000  1
  Sb  Sb3  1  0.15396800  0.00000000  0.33977000  1
  Sb  Sb4  1  0.33977000  0.15396800  0.00000000  1
  Sb  Sb5  1  0.15396800  0.00000000  0.66023000  1
  Sb  Sb6  1  0.50000000  0.83977000  0.34603200  1
  Sb  Sb7  1  0.34603200  0.50000000  0.16023000  1
  Sb  Sb8  1  0.00000000  0.66023000  0.15396800  1
  Sb  Sb9  1  0.34603200  0.50000000  0.83977000  1
  Sb  Sb10  1  0.50000000  0.16023000  0.34603200  1
  Sb  Sb11  1  0.00000000  0.33977000  0.15396800  1
  Sb  Sb12  1  0.66023000  0.84603200  0.00000000  1
  Sb  Sb13  1  0.33977000  0.84603200  0.00000000  1
  Sb  Sb14  1  0.16023000  0.65396800  0.50000000  1
  Sb  Sb15  1  0.65396800  0.50000000  0.83977000  1
  Sb  Sb16  1  0.83977000  0.65396800  0.50000000  1
  Sb  Sb17  1  0.65396800  0.50000000  0.16023000  1
  Sb  Sb18  1  0.00000000  0.33977000  0.84603200  1
  Sb  Sb19  1  0.84603200  0.00000000  0.66023000  1
  Sb  Sb20  1  0.50000000  0.16023000  0.65396800  1
  Sb  Sb21  1  0.84603200  0.00000000  0.33977000  1
  Sb  Sb22  1  0.00000000  0.66023000  0.84603200  1
  Sb  Sb23  1  0.50000000  0.83977000  0.65396800  1
  Ir  Ir24  1  0.25000000  0.25000000  0.75000000  1
  Ir  Ir25  1  0.25000000  0.75000000  0.25000000  1
  Ir  Ir26  1  0.75000000  0.25000000  0.25000000  1
  Ir  Ir27  1  0.25000000  0.25000000  0.25000000  1
  Ir  Ir28  1  0.75000000  0.75000000  0.25000000  1
  Ir  Ir29  1  0.75000000  0.25000000  0.75000000  1
  Ir  Ir30  1  0.25000000  0.75000000  0.75000000  1
  Ir  Ir31  1  0.75000000  0.75000000  0.75000000  1
