# generated using pymatgen
data_SrMnO3
_symmetry_space_group_name_H-M   'P 1'
_cell_length_a   5.52375604
_cell_length_b   5.52375604
_cell_length_c   9.24944400
_cell_angle_alpha   90.00000000
_cell_angle_beta   90.00000000
_cell_angle_gamma   120.00000000
_symmetry_Int_Tables_number   1
_chemical_formula_structural   SrMnO3
_chemical_formula_sum   'Sr4 Mn4 O12'
_cell_volume   244.40789914
_cell_formula_units_Z   4
loop_
 _symmetry_equiv_pos_site_id
 _symmetry_equiv_pos_as_xyz
  1  'x, y, z'
loop_
 _atom_site_type_symbol
 _atom_site_label
 _atom_site_symmetry_multiplicity
 _atom_site_fract_x
 _atom_site_fract_y
 _atom_site_fract_z
 _atom_site_occupancy
  Sr  Sr0  1  0.66666667  0.33333333  0.75000000  1
  Sr  Sr1  1  0.33333333  0.66666667  0.25000000  1
  Sr  Sr2  1  0.00000000  0.00000000  0.50000000  1
  Sr  Sr3  1  0.00000000  0.00000000  0.00000000  1
  Mn  Mn4  1  0.66666667  0.33333333  0.11308000  1
  Mn  Mn5  1  0.33333333  0.66666667  0.61308000  1
  Mn  Mn6  1  0.33333333  0.66666667  0.88692000  1
  Mn  Mn7  1  0.66666667  0.33333333  0.38692000  1
  O  O8  1  0.81892100  0.18107900  0.25000000  1
  O  O9  1  0.63784200  0.81892100  0.75000000  1
  O  O10  1  0.18107900  0.36215800  0.75000000  1
  O  O11  1  0.81892100  0.63784200  0.25000000  1
  O  O12  1  0.36215800  0.18107900  0.25000000  1
  O  O13  1  0.18107900  0.81892100  0.75000000  1
  O  O14  1  0.50000000  0.00000000  0.50000000  1
  O  O15  1  0.50000000  0.50000000  0.00000000  1
  O  O16  1  0.50000000  0.00000000  0.00000000  1
  O  O17  1  0.50000000  0.50000000  0.50000000  1
  O  O18  1  0.00000000  0.50000000  0.50000000  1
  O  O19  1  0.00000000  0.50000000  0.00000000  1
