# generated using pymatgen
data_SrV2O6
_symmetry_space_group_name_H-M   'P 1'
_cell_length_a   3.71334374
_cell_length_b   9.82844743
_cell_length_c   12.99695088
_cell_angle_alpha   90.00000000
_cell_angle_beta   90.00000000
_cell_angle_gamma   90.00000000
_symmetry_Int_Tables_number   1
_chemical_formula_structural   SrV2O6
_chemical_formula_sum   'Sr4 V8 O24'
_cell_volume   474.34196668
_cell_formula_units_Z   4
loop_
 _symmetry_equiv_pos_site_id
 _symmetry_equiv_pos_as_xyz
  1  'x, y, z'
loop_
 _atom_site_type_symbol
 _atom_site_label
 _atom_site_symmetry_multiplicity
 _atom_site_fract_x
 _atom_site_fract_y
 _atom_site_fract_z
 _atom_site_occupancy
  Sr  Sr0  1  0.25000000  0.63561304  0.11596436  1
  Sr  Sr1  1  0.75000000  0.36438696  0.88403564  1
  Sr  Sr2  1  0.25000000  0.13561304  0.38403564  1
  Sr  Sr3  1  0.75000000  0.86438696  0.61596436  1
  V  V4  1  0.25000000  0.24198536  0.09534818  1
  V  V5  1  0.75000000  0.75801464  0.90465182  1
  V  V6  1  0.25000000  0.74198536  0.40465182  1
  V  V7  1  0.75000000  0.25801464  0.59534818  1
  V  V8  1  0.25000000  0.00013603  0.86302493  1
  V  V9  1  0.75000000  0.99986397  0.13697507  1
  V  V10  1  0.75000000  0.49986397  0.36302493  1
  V  V11  1  0.25000000  0.50013603  0.63697507  1
  O  O12  1  0.25000000  0.39110706  0.02442903  1
  O  O13  1  0.75000000  0.60889294  0.97557097  1
  O  O14  1  0.25000000  0.89110706  0.47557097  1
  O  O15  1  0.75000000  0.10889294  0.52442903  1
  O  O16  1  0.25000000  0.28401271  0.21751625  1
  O  O17  1  0.75000000  0.71598729  0.78248375  1
  O  O18  1  0.25000000  0.78401271  0.28248375  1
  O  O19  1  0.75000000  0.21598729  0.71751625  1
  O  O20  1  0.25000000  0.03533771  0.10195561  1
  O  O21  1  0.75000000  0.96466229  0.89804439  1
  O  O22  1  0.25000000  0.53533771  0.39804439  1
  O  O23  1  0.75000000  0.46466229  0.60195561  1
  O  O24  1  0.75000000  0.33088165  0.39058538  1
  O  O25  1  0.25000000  0.66911835  0.60941462  1
  O  O26  1  0.75000000  0.83088165  0.10941462  1
  O  O27  1  0.25000000  0.16911835  0.89058538  1
  O  O28  1  0.75000000  0.52801262  0.23524462  1
  O  O29  1  0.25000000  0.47198738  0.76475538  1
  O  O30  1  0.25000000  0.80919393  0.92802761  1
  O  O31  1  0.25000000  0.97198738  0.73524462  1
  O  O32  1  0.75000000  0.69080607  0.42802761  1
  O  O33  1  0.25000000  0.30919393  0.57197239  1
  O  O34  1  0.75000000  0.19080607  0.07197239  1
  O  O35  1  0.75000000  0.02801262  0.26475538  1
