# generated using pymatgen
data_Cs2LiAl3F12
_symmetry_space_group_name_H-M   'P 1'
_cell_length_a   7.09144002
_cell_length_b   7.09144002
_cell_length_c   17.82179429
_cell_angle_alpha   90.00000000
_cell_angle_beta   90.00000000
_cell_angle_gamma   120.00000000
_symmetry_Int_Tables_number   1
_chemical_formula_structural   Cs2LiAl3F12
_chemical_formula_sum   'Cs6 Li3 Al9 F36'
_cell_volume   776.15940797
_cell_formula_units_Z   3
loop_
 _symmetry_equiv_pos_site_id
 _symmetry_equiv_pos_as_xyz
  1  'x, y, z'
loop_
 _atom_site_type_symbol
 _atom_site_label
 _atom_site_symmetry_multiplicity
 _atom_site_fract_x
 _atom_site_fract_y
 _atom_site_fract_z
 _atom_site_occupancy
  Cs  Cs0  1  0.33333333  0.66666667  0.03933667  1
  Cs  Cs1  1  0.33333333  0.66666667  0.29399667  1
  Cs  Cs2  1  0.00000000  0.00000000  0.37267000  1
  Cs  Cs3  1  0.00000000  0.00000000  0.62733000  1
  Cs  Cs4  1  0.66666667  0.33333333  0.70600333  1
  Cs  Cs5  1  0.66666667  0.33333333  0.96066333  1
  Li  Li6  1  0.00000000  0.00000000  0.00000000  1
  Li  Li7  1  0.66666667  0.33333333  0.33333333  1
  Li  Li8  1  0.33333333  0.66666667  0.66666667  1
  Al  Al9  1  0.83333333  0.16666667  0.16666667  1
  Al  Al10  1  0.33333333  0.16666667  0.16666667  1
  Al  Al11  1  0.83333333  0.66666667  0.16666667  1
  Al  Al12  1  0.50000000  0.50000000  0.50000000  1
  Al  Al13  1  0.00000000  0.50000000  0.50000000  1
  Al  Al14  1  0.50000000  0.00000000  0.50000000  1
  Al  Al15  1  0.16666667  0.83333333  0.83333333  1
  Al  Al16  1  0.66666667  0.83333333  0.83333333  1
  Al  Al17  1  0.16666667  0.33333333  0.83333333  1
  F  F18  1  0.54122033  0.45877967  0.15225967  1
  F  F19  1  0.85962867  0.71925733  0.06871433  1
  F  F20  1  0.28074267  0.14037133  0.06871433  1
  F  F21  1  0.38592400  0.19296200  0.26461900  1
  F  F22  1  0.80703800  0.61407600  0.26461900  1
  F  F23  1  0.85962867  0.14037133  0.06871433  1
  F  F24  1  0.54122033  0.08244067  0.15225967  1
  F  F25  1  0.91755933  0.45877967  0.15225967  1
  F  F26  1  0.74910733  0.87455367  0.18107367  1
  F  F27  1  0.12544633  0.87455367  0.18107367  1
  F  F28  1  0.12544633  0.25089267  0.18107367  1
  F  F29  1  0.80703800  0.19296200  0.26461900  1
  F  F30  1  0.20788700  0.79211300  0.48559300  1
  F  F31  1  0.52629533  0.05259067  0.40204767  1
  F  F32  1  0.94740933  0.47370467  0.40204767  1
  F  F33  1  0.05259067  0.52629533  0.59795233  1
  F  F34  1  0.47370467  0.94740933  0.59795233  1
  F  F35  1  0.52629533  0.47370467  0.40204767  1
  F  F36  1  0.20788700  0.41577400  0.48559300  1
  F  F37  1  0.58422600  0.79211300  0.48559300  1
  F  F38  1  0.41577400  0.20788700  0.51440700  1
  F  F39  1  0.79211300  0.20788700  0.51440700  1
  F  F40  1  0.79211300  0.58422600  0.51440700  1
  F  F41  1  0.47370467  0.52629533  0.59795233  1
  F  F42  1  0.87455367  0.12544633  0.81892633  1
  F  F43  1  0.19296200  0.38592400  0.73538100  1
  F  F44  1  0.61407600  0.80703800  0.73538100  1
  F  F45  1  0.71925733  0.85962867  0.93128567  1
  F  F46  1  0.14037133  0.28074267  0.93128567  1
  F  F47  1  0.19296200  0.80703800  0.73538100  1
  F  F48  1  0.87455367  0.74910733  0.81892633  1
  F  F49  1  0.25089267  0.12544633  0.81892633  1
  F  F50  1  0.08244067  0.54122033  0.84774033  1
  F  F51  1  0.45877967  0.54122033  0.84774033  1
  F  F52  1  0.45877967  0.91755933  0.84774033  1
  F  F53  1  0.14037133  0.85962867  0.93128567  1
