# generated using pymatgen
data_CsNd(PO3)4
_symmetry_space_group_name_H-M   'P 1'
_cell_length_a   7.23109600
_cell_length_b   9.31677000
_cell_length_c   8.91329429
_cell_angle_alpha   90.00000000
_cell_angle_beta   99.60261483
_cell_angle_gamma   90.00000000
_symmetry_Int_Tables_number   1
_chemical_formula_structural   CsNd(PO3)4
_chemical_formula_sum   'Cs2 Nd2 P8 O24'
_cell_volume   592.07887240
_cell_formula_units_Z   2
loop_
 _symmetry_equiv_pos_site_id
 _symmetry_equiv_pos_as_xyz
  1  'x, y, z'
loop_
 _atom_site_type_symbol
 _atom_site_label
 _atom_site_symmetry_multiplicity
 _atom_site_fract_x
 _atom_site_fract_y
 _atom_site_fract_z
 _atom_site_occupancy
  Cs  Cs0  1  0.83072000  0.17279000  0.82659100  1
  Cs  Cs1  1  0.16928000  0.67279000  0.17340900  1
  Nd  Nd2  1  0.70014100  0.00752600  0.30230300  1
  Nd  Nd3  1  0.29985900  0.50752600  0.69769700  1
  P  P4  1  0.19160700  0.08107000  0.22598100  1
  P  P5  1  0.80839300  0.58107000  0.77401900  1
  P  P6  1  0.41662700  0.28226400  0.07138400  1
  P  P7  1  0.58337300  0.78226400  0.92861600  1
  P  P8  1  0.56059700  0.39807100  0.37615100  1
  P  P9  1  0.43940300  0.89807100  0.62384900  1
  P  P10  1  0.85539400  0.63503300  0.45786900  1
  P  P11  1  0.14460600  0.13503300  0.54213100  1
  O  O12  1  0.34374900  0.97060300  0.23158400  1
  O  O13  1  0.65625100  0.47060300  0.76841600  1
  O  O14  1  0.98967200  0.03692600  0.18287400  1
  O  O15  1  0.01032800  0.53692600  0.81712600  1
  O  O16  1  0.22399400  0.20862700  0.10992000  1
  O  O17  1  0.77600600  0.70862700  0.89008000  1
  O  O18  1  0.57551300  0.17637400  0.09254800  1
  O  O19  1  0.42448700  0.67637400  0.90745200  1
  O  O20  1  0.63915500  0.85524000  0.07746000  1
  O  O21  1  0.36084500  0.35524000  0.92254000  1
  O  O22  1  0.45266500  0.40652600  0.20015700  1
  O  O23  1  0.54733500  0.90652600  0.79984300  1
  O  O24  1  0.22408800  0.16695200  0.38641300  1
  O  O25  1  0.77591200  0.66695200  0.61358700  1
  O  O26  1  0.95701200  0.06319500  0.50727600  1
  O  O27  1  0.04298800  0.56319500  0.49272400  1
  O  O28  1  0.83823400  0.77072900  0.36708100  1
  O  O29  1  0.16176600  0.27072900  0.63291900  1
  O  O30  1  0.28787200  0.02214700  0.63668600  1
  O  O31  1  0.71212800  0.52214700  0.36331400  1
  O  O32  1  0.34812600  0.75437800  0.59391900  1
  O  O33  1  0.65187400  0.25437800  0.40608100  1
  O  O34  1  0.57497800  0.95214800  0.52727600  1
  O  O35  1  0.42502200  0.45214800  0.47272400  1
