# generated using pymatgen
data_BaMg2Si2O7
_symmetry_space_group_name_H-M   'P 1'
_cell_length_a   7.35107600
_cell_length_b   12.85478800
_cell_length_c   13.90877424
_cell_angle_alpha   90.00000000
_cell_angle_beta   90.23018435
_cell_angle_gamma   90.00000000
_symmetry_Int_Tables_number   1
_chemical_formula_structural   BaMg2Si2O7
_chemical_formula_sum   'Ba8 Mg16 Si16 O56'
_cell_volume   1314.32020626
_cell_formula_units_Z   8
loop_
 _symmetry_equiv_pos_site_id
 _symmetry_equiv_pos_as_xyz
  1  'x, y, z'
loop_
 _atom_site_type_symbol
 _atom_site_label
 _atom_site_symmetry_multiplicity
 _atom_site_fract_x
 _atom_site_fract_y
 _atom_site_fract_z
 _atom_site_occupancy
  Ba  Ba0  1  0.79848700  0.98359700  0.87936500  1
  Ba  Ba1  1  0.20151300  0.98359700  0.62063500  1
  Ba  Ba2  1  0.70151300  0.51640300  0.12063500  1
  Ba  Ba3  1  0.29848700  0.51640300  0.37936500  1
  Ba  Ba4  1  0.29848700  0.48359700  0.87936500  1
  Ba  Ba5  1  0.70151300  0.48359700  0.62063500  1
  Ba  Ba6  1  0.20151300  0.01640300  0.12063500  1
  Ba  Ba7  1  0.79848700  0.01640300  0.37936500  1
  Mg  Mg8  1  0.50000000  0.73110800  0.75000000  1
  Mg  Mg9  1  0.00000000  0.76889200  0.25000000  1
  Mg  Mg10  1  0.00000000  0.77076800  0.75000000  1
  Mg  Mg11  1  0.50000000  0.72923200  0.25000000  1
  Mg  Mg12  1  0.96230150  0.76506850  0.49121900  1
  Mg  Mg13  1  0.03769850  0.76506850  0.00878100  1
  Mg  Mg14  1  0.53769850  0.73493150  0.50878100  1
  Mg  Mg15  1  0.46230150  0.73493150  0.99121900  1
  Mg  Mg16  1  0.00000000  0.23110800  0.75000000  1
  Mg  Mg17  1  0.50000000  0.26889200  0.25000000  1
  Mg  Mg18  1  0.50000000  0.27076800  0.75000000  1
  Mg  Mg19  1  0.00000000  0.22923200  0.25000000  1
  Mg  Mg20  1  0.46230150  0.26506850  0.49121900  1
  Mg  Mg21  1  0.53769850  0.26506850  0.00878100  1
  Mg  Mg22  1  0.03769850  0.23493150  0.50878100  1
  Mg  Mg23  1  0.96230150  0.23493150  0.99121900  1
  Si  Si24  1  0.21471050  0.62620650  0.63365800  1
  Si  Si25  1  0.78528950  0.62620650  0.86634200  1
  Si  Si26  1  0.28528950  0.87379350  0.36634200  1
  Si  Si27  1  0.71471050  0.87379350  0.13365800  1
  Si  Si28  1  0.67785150  0.89494750  0.62114400  1
  Si  Si29  1  0.32214850  0.89494750  0.87885600  1
  Si  Si30  1  0.82214850  0.60505250  0.37885600  1
  Si  Si31  1  0.17785150  0.60505250  0.12114400  1
  Si  Si32  1  0.71471050  0.12620650  0.63365800  1
  Si  Si33  1  0.28528950  0.12620650  0.86634200  1
  Si  Si34  1  0.78528950  0.37379350  0.36634200  1
  Si  Si35  1  0.21471050  0.37379350  0.13365800  1
  Si  Si36  1  0.17785150  0.39494750  0.62114400  1
  Si  Si37  1  0.82214850  0.39494750  0.87885600  1
  Si  Si38  1  0.32214850  0.10505250  0.37885600  1
  Si  Si39  1  0.67785150  0.10505250  0.12114400  1
  O  O40  1  0.07468500  0.72375600  0.61453000  1
  O  O41  1  0.92531500  0.72375600  0.88547000  1
  O  O42  1  0.42531500  0.77624400  0.38547000  1
  O  O43  1  0.57468500  0.77624400  0.11453000  1
  O  O44  1  0.82941700  0.88388100  0.70527300  1
  O  O45  1  0.17058300  0.88388100  0.79472700  1
  O  O46  1  0.67058300  0.61611900  0.29472700  1
  O  O47  1  0.32941700  0.61611900  0.20527300  1
  O  O48  1  0.75098450  0.86069150  0.51453900  1
  O  O49  1  0.24901550  0.86069150  0.98546100  1
  O  O50  1  0.74901550  0.63930850  0.48546100  1
  O  O51  1  0.25098450  0.63930850  0.01453900  1
  O  O52  1  0.49718250  0.81998350  0.63423600  1
  O  O53  1  0.50281750  0.81998350  0.86576400  1
  O  O54  1  0.00281750  0.68001650  0.36576400  1
  O  O55  1  0.99718250  0.68001650  0.13423600  1
  O  O56  1  0.09250800  0.51593300  0.62131300  1
  O  O57  1  0.90749200  0.51593300  0.87868700  1
  O  O58  1  0.40749200  0.98406700  0.37868700  1
  O  O59  1  0.59250800  0.98406700  0.12131300  1
  O  O60  1  0.28065700  0.64090000  0.74580500  1
  O  O61  1  0.71934300  0.64090000  0.75419500  1
  O  O62  1  0.21934300  0.85910000  0.25419500  1
  O  O63  1  0.78065700  0.85910000  0.24580500  1
  O  O64  1  0.38301250  0.61578050  0.55786600  1
  O  O65  1  0.61698750  0.61578050  0.94213400  1
  O  O66  1  0.11698750  0.88421950  0.44213400  1
  O  O67  1  0.88301250  0.88421950  0.05786600  1
  O  O68  1  0.57468500  0.22375600  0.61453000  1
  O  O69  1  0.42531500  0.22375600  0.88547000  1
  O  O70  1  0.92531500  0.27624400  0.38547000  1
  O  O71  1  0.07468500  0.27624400  0.11453000  1
  O  O72  1  0.32941700  0.38388100  0.70527300  1
  O  O73  1  0.67058300  0.38388100  0.79472700  1
  O  O74  1  0.17058300  0.11611900  0.29472700  1
  O  O75  1  0.82941700  0.11611900  0.20527300  1
  O  O76  1  0.25098450  0.36069150  0.51453900  1
  O  O77  1  0.74901550  0.36069150  0.98546100  1
  O  O78  1  0.24901550  0.13930850  0.48546100  1
  O  O79  1  0.75098450  0.13930850  0.01453900  1
  O  O80  1  0.99718250  0.31998350  0.63423600  1
  O  O81  1  0.00281750  0.31998350  0.86576400  1
  O  O82  1  0.50281750  0.18001650  0.36576400  1
  O  O83  1  0.49718250  0.18001650  0.13423600  1
  O  O84  1  0.59250800  0.01593300  0.62131300  1
  O  O85  1  0.40749200  0.01593300  0.87868700  1
  O  O86  1  0.90749200  0.48406700  0.37868700  1
  O  O87  1  0.09250800  0.48406700  0.12131300  1
  O  O88  1  0.78065700  0.14090000  0.74580500  1
  O  O89  1  0.21934300  0.14090000  0.75419500  1
  O  O90  1  0.71934300  0.35910000  0.25419500  1
  O  O91  1  0.28065700  0.35910000  0.24580500  1
  O  O92  1  0.88301250  0.11578050  0.55786600  1
  O  O93  1  0.11698750  0.11578050  0.94213400  1
  O  O94  1  0.61698750  0.38421950  0.44213400  1
  O  O95  1  0.38301250  0.38421950  0.05786600  1
