# generated using pymatgen
data_CdCN2
_symmetry_space_group_name_H-M   'P 1'
_cell_length_a   3.61050641
_cell_length_b   3.61050641
_cell_length_c   14.63451979
_cell_angle_alpha   90.00000000
_cell_angle_beta   90.00000000
_cell_angle_gamma   120.00000000
_symmetry_Int_Tables_number   1
_chemical_formula_structural   CdCN2
_chemical_formula_sum   'Cd3 C3 N6'
_cell_volume   165.21343027
_cell_formula_units_Z   3
loop_
 _symmetry_equiv_pos_site_id
 _symmetry_equiv_pos_as_xyz
  1  'x, y, z'
loop_
 _atom_site_type_symbol
 _atom_site_label
 _atom_site_symmetry_multiplicity
 _atom_site_fract_x
 _atom_site_fract_y
 _atom_site_fract_z
 _atom_site_occupancy
  Cd  Cd0  1  0.00000000  0.00000000  0.00000000  1
  Cd  Cd1  1  0.66666667  0.33333333  0.33333333  1
  Cd  Cd2  1  0.33333333  0.66666667  0.66666667  1
  C  C3  1  0.33333333  0.66666667  0.16666667  1
  C  C4  1  1.00000000  1.00000000  0.50000000  1
  C  C5  1  0.66666667  0.33333333  0.83333333  1
  N  N6  1  0.33333333  0.66666667  0.08212267  1
  N  N7  1  0.33333333  0.66666667  0.25121067  1
  N  N8  1  0.00000000  0.00000000  0.41545600  1
  N  N9  1  0.00000000  0.00000000  0.58454400  1
  N  N10  1  0.66666667  0.33333333  0.74878933  1
  N  N11  1  0.66666667  0.33333333  0.91787733  1
