# generated using pymatgen
data_TiNiO3
_symmetry_space_group_name_H-M   'P 1'
_cell_length_a   5.07415618
_cell_length_b   5.07415618
_cell_length_c   13.95704946
_cell_angle_alpha   90.00000000
_cell_angle_beta   90.00000000
_cell_angle_gamma   120.00000000
_symmetry_Int_Tables_number   1
_chemical_formula_structural   TiNiO3
_chemical_formula_sum   'Ti6 Ni6 O18'
_cell_volume   311.20882939
_cell_formula_units_Z   6
loop_
 _symmetry_equiv_pos_site_id
 _symmetry_equiv_pos_as_xyz
  1  'x, y, z'
loop_
 _atom_site_type_symbol
 _atom_site_label
 _atom_site_symmetry_multiplicity
 _atom_site_fract_x
 _atom_site_fract_y
 _atom_site_fract_z
 _atom_site_occupancy
  Ti  Ti0  1  0.00000000  0.00000000  0.14291100  1
  Ti  Ti1  1  0.66666667  0.33333333  0.19042233  1
  Ti  Ti2  1  0.66666667  0.33333333  0.47624433  1
  Ti  Ti3  1  0.33333333  0.66666667  0.52375567  1
  Ti  Ti4  1  0.33333333  0.66666667  0.80957767  1
  Ti  Ti5  1  0.00000000  0.00000000  0.85708900  1
  Ni  Ni6  1  0.33333333  0.66666667  0.31670533  1
  Ni  Ni7  1  0.33333333  0.66666667  0.01662800  1
  Ni  Ni8  1  0.00000000  0.00000000  0.65003867  1
  Ni  Ni9  1  0.00000000  0.00000000  0.34996133  1
  Ni  Ni10  1  0.66666667  0.33333333  0.98337200  1
  Ni  Ni11  1  0.66666667  0.33333333  0.68329467  1
  O  O12  1  0.70077517  0.68431783  0.24671833  1
  O  O13  1  0.31568217  0.01645733  0.24671833  1
  O  O14  1  0.98354267  0.29922483  0.24671833  1
  O  O15  1  0.96589150  0.64901550  0.08661500  1
  O  O16  1  0.35098450  0.31687600  0.08661500  1
  O  O17  1  0.68312400  0.03410850  0.08661500  1
  O  O18  1  0.36744183  0.01765117  0.58005167  1
  O  O19  1  0.98234883  0.34979067  0.58005167  1
  O  O20  1  0.65020933  0.63255817  0.58005167  1
  O  O21  1  0.63255817  0.98234883  0.41994833  1
  O  O22  1  0.01765117  0.65020933  0.41994833  1
  O  O23  1  0.34979067  0.36744183  0.41994833  1
  O  O24  1  0.03410850  0.35098450  0.91338500  1
  O  O25  1  0.64901550  0.68312400  0.91338500  1
  O  O26  1  0.31687600  0.96589150  0.91338500  1
  O  O27  1  0.29922483  0.31568217  0.75328167  1
  O  O28  1  0.68431783  0.98354267  0.75328167  1
  O  O29  1  0.01645733  0.70077517  0.75328167  1
