# generated using pymatgen
data_Ta2ZnO6
_symmetry_space_group_name_H-M   'P 1'
_cell_length_a   4.76162700
_cell_length_b   5.11557500
_cell_length_c   17.36277100
_cell_angle_alpha   90.00000000
_cell_angle_beta   90.00000000
_cell_angle_gamma   90.00000000
_symmetry_Int_Tables_number   1
_chemical_formula_structural   Ta2ZnO6
_chemical_formula_sum   'Ta8 Zn4 O24'
_cell_volume   422.93036360
_cell_formula_units_Z   4
loop_
 _symmetry_equiv_pos_site_id
 _symmetry_equiv_pos_as_xyz
  1  'x, y, z'
loop_
 _atom_site_type_symbol
 _atom_site_label
 _atom_site_symmetry_multiplicity
 _atom_site_fract_x
 _atom_site_fract_y
 _atom_site_fract_z
 _atom_site_occupancy
  Ta  Ta0  1  0.50000000  0.75000000  0.05577300  1
  Ta  Ta1  1  0.00000000  0.25000000  0.44422700  1
  Ta  Ta2  1  0.50000000  0.25000000  0.94422700  1
  Ta  Ta3  1  0.00000000  0.75000000  0.55577300  1
  Ta  Ta4  1  0.00000000  0.25000000  0.78075700  1
  Ta  Ta5  1  0.50000000  0.75000000  0.71924300  1
  Ta  Ta6  1  0.00000000  0.75000000  0.21924300  1
  Ta  Ta7  1  0.50000000  0.25000000  0.28075700  1
  Zn  Zn8  1  0.00000000  0.75000000  0.89822800  1
  Zn  Zn9  1  0.50000000  0.25000000  0.60177200  1
  Zn  Zn10  1  0.00000000  0.25000000  0.10177200  1
  Zn  Zn11  1  0.50000000  0.75000000  0.39822800  1
  O  O12  1  0.75985900  0.42776600  0.21181500  1
  O  O13  1  0.25985900  0.57223400  0.28818500  1
  O  O14  1  0.74014100  0.92776600  0.28818500  1
  O  O15  1  0.24014100  0.07223400  0.21181500  1
  O  O16  1  0.24014100  0.57223400  0.78818500  1
  O  O17  1  0.74014100  0.42776600  0.71181500  1
  O  O18  1  0.25985900  0.07223400  0.71181500  1
  O  O19  1  0.75985900  0.92776600  0.78818500  1
  O  O20  1  0.77029400  0.89893200  0.12813300  1
  O  O21  1  0.27029400  0.10106800  0.37186700  1
  O  O22  1  0.72970600  0.39893200  0.37186700  1
  O  O23  1  0.22970600  0.60106800  0.12813300  1
  O  O24  1  0.78318200  0.42804000  0.53536900  1
  O  O25  1  0.28318200  0.57196000  0.96463100  1
  O  O26  1  0.71681800  0.92804000  0.96463100  1
  O  O27  1  0.21681800  0.07196000  0.53536900  1
  O  O28  1  0.21681800  0.57196000  0.46463100  1
  O  O29  1  0.71681800  0.42804000  0.03536900  1
  O  O30  1  0.28318200  0.07196000  0.03536900  1
  O  O31  1  0.78318200  0.92804000  0.46463100  1
  O  O32  1  0.77029400  0.39893200  0.87186700  1
  O  O33  1  0.27029400  0.60106800  0.62813300  1
  O  O34  1  0.72970600  0.89893200  0.62813300  1
  O  O35  1  0.22970600  0.10106800  0.87186700  1
