# generated using pymatgen
data_Sc4C3
_symmetry_space_group_name_H-M   'P 1'
_cell_length_a   7.22638000
_cell_length_b   7.22638000
_cell_length_c   7.22638000
_cell_angle_alpha   90.00000000
_cell_angle_beta   90.00000000
_cell_angle_gamma   90.00000000
_symmetry_Int_Tables_number   1
_chemical_formula_structural   Sc4C3
_chemical_formula_sum   'Sc16 C12'
_cell_volume   377.36566749
_cell_formula_units_Z   4
loop_
 _symmetry_equiv_pos_site_id
 _symmetry_equiv_pos_as_xyz
  1  'x, y, z'
loop_
 _atom_site_type_symbol
 _atom_site_label
 _atom_site_symmetry_multiplicity
 _atom_site_fract_x
 _atom_site_fract_y
 _atom_site_fract_z
 _atom_site_occupancy
  Sc  Sc0  1  0.95071600  0.45071600  0.04928400  1
  Sc  Sc1  1  0.29928400  0.29928400  0.29928400  1
  Sc  Sc2  1  0.45071600  0.04928400  0.95071600  1
  Sc  Sc3  1  0.04928400  0.95071600  0.45071600  1
  Sc  Sc4  1  0.70071600  0.79928400  0.20071600  1
  Sc  Sc5  1  0.79928400  0.20071600  0.70071600  1
  Sc  Sc6  1  0.20071600  0.70071600  0.79928400  1
  Sc  Sc7  1  0.04928400  0.04928400  0.04928400  1
  Sc  Sc8  1  0.45071600  0.95071600  0.54928400  1
  Sc  Sc9  1  0.79928400  0.79928400  0.79928400  1
  Sc  Sc10  1  0.95071600  0.54928400  0.45071600  1
  Sc  Sc11  1  0.54928400  0.45071600  0.95071600  1
  Sc  Sc12  1  0.20071600  0.29928400  0.70071600  1
  Sc  Sc13  1  0.29928400  0.70071600  0.20071600  1
  Sc  Sc14  1  0.70071600  0.20071600  0.29928400  1
  Sc  Sc15  1  0.54928400  0.54928400  0.54928400  1
  C  C16  1  0.00000000  0.75000000  0.12500000  1
  C  C17  1  0.25000000  0.37500000  0.00000000  1
  C  C18  1  0.75000000  0.12500000  0.00000000  1
  C  C19  1  0.12500000  0.00000000  0.75000000  1
  C  C20  1  0.37500000  0.00000000  0.25000000  1
  C  C21  1  0.00000000  0.25000000  0.37500000  1
  C  C22  1  0.50000000  0.25000000  0.62500000  1
  C  C23  1  0.75000000  0.87500000  0.50000000  1
  C  C24  1  0.25000000  0.62500000  0.50000000  1
  C  C25  1  0.62500000  0.50000000  0.25000000  1
  C  C26  1  0.87500000  0.50000000  0.75000000  1
  C  C27  1  0.50000000  0.75000000  0.87500000  1
