# generated using pymatgen
data_AlP
_symmetry_space_group_name_H-M   'P 1'
_cell_length_a   5.50711200
_cell_length_b   5.50711200
_cell_length_c   5.50711200
_cell_angle_alpha   90.00000000
_cell_angle_beta   90.00000000
_cell_angle_gamma   90.00000000
_symmetry_Int_Tables_number   1
_chemical_formula_structural   AlP
_chemical_formula_sum   'Al4 P4'
_cell_volume   167.02124894
_cell_formula_units_Z   4
loop_
 _symmetry_equiv_pos_site_id
 _symmetry_equiv_pos_as_xyz
  1  'x, y, z'
loop_
 _atom_site_type_symbol
 _atom_site_label
 _atom_site_symmetry_multiplicity
 _atom_site_fract_x
 _atom_site_fract_y
 _atom_site_fract_z
 _atom_site_occupancy
  Al  Al0  1  0.00000000  0.00000000  0.00000000  1
  Al  Al1  1  0.00000000  0.50000000  0.50000000  1
  Al  Al2  1  0.50000000  0.00000000  0.50000000  1
  Al  Al3  1  0.50000000  0.50000000  0.00000000  1
  P  P4  1  0.25000000  0.25000000  0.75000000  1
  P  P5  1  0.25000000  0.75000000  0.25000000  1
  P  P6  1  0.75000000  0.25000000  0.25000000  1
  P  P7  1  0.75000000  0.75000000  0.75000000  1
