# generated using pymatgen
data_FeAgO2
_symmetry_space_group_name_H-M   'P 1'
_cell_length_a   3.07774574
_cell_length_b   3.07774574
_cell_length_c   18.82390808
_cell_angle_alpha   90.00000000
_cell_angle_beta   90.00000000
_cell_angle_gamma   120.00000000
_symmetry_Int_Tables_number   1
_chemical_formula_structural   FeAgO2
_chemical_formula_sum   'Fe3 Ag3 O6'
_cell_volume   154.42083717
_cell_formula_units_Z   3
loop_
 _symmetry_equiv_pos_site_id
 _symmetry_equiv_pos_as_xyz
  1  'x, y, z'
loop_
 _atom_site_type_symbol
 _atom_site_label
 _atom_site_symmetry_multiplicity
 _atom_site_fract_x
 _atom_site_fract_y
 _atom_site_fract_z
 _atom_site_occupancy
  Fe  Fe0  1  0.66666667  0.33333333  0.83333333  1
  Fe  Fe1  1  0.33333333  0.66666667  0.16666667  1
  Fe  Fe2  1  1.00000000  1.00000000  0.50000000  1
  Ag  Ag3  1  0.00000000  0.00000000  0.00000000  1
  Ag  Ag4  1  0.66666667  0.33333333  0.33333333  1
  Ag  Ag5  1  0.33333333  0.66666667  0.66666667  1
  O  O6  1  0.00000000  0.00000000  0.88764717  1
  O  O7  1  0.33333333  0.66666667  0.77901950  1
  O  O8  1  0.66666667  0.33333333  0.22098050  1
  O  O9  1  0.00000000  0.00000000  0.11235283  1
  O  O10  1  0.33333333  0.66666667  0.55431383  1
  O  O11  1  0.66666667  0.33333333  0.44568617  1
