# generated using pymatgen
data_K3B(SO4)3
_symmetry_space_group_name_H-M   'P 1'
_cell_length_a   7.21334400
_cell_length_b   14.60536000
_cell_length_c   22.81087600
_cell_angle_alpha   90.00000000
_cell_angle_beta   90.00000000
_cell_angle_gamma   90.00000000
_symmetry_Int_Tables_number   1
_chemical_formula_structural   K3B(SO4)3
_chemical_formula_sum   'K24 B8 S24 O96'
_cell_volume   2403.20530358
_cell_formula_units_Z   8
loop_
 _symmetry_equiv_pos_site_id
 _symmetry_equiv_pos_as_xyz
  1  'x, y, z'
loop_
 _atom_site_type_symbol
 _atom_site_label
 _atom_site_symmetry_multiplicity
 _atom_site_fract_x
 _atom_site_fract_y
 _atom_site_fract_z
 _atom_site_occupancy
  K  K0  1  0.64204250  0.61652050  0.17920350  1
  K  K1  1  0.64204250  0.38347950  0.32079650  1
  K  K2  1  0.85795750  0.61652050  0.82079650  1
  K  K3  1  0.85795750  0.38347950  0.67920350  1
  K  K4  1  0.35795750  0.38347950  0.82079650  1
  K  K5  1  0.35795750  0.61652050  0.67920350  1
  K  K6  1  0.14204250  0.38347950  0.17920350  1
  K  K7  1  0.14204250  0.61652050  0.32079650  1
  K  K8  1  0.25000000  0.05937100  0.00000000  1
  K  K9  1  0.75000000  0.44062900  0.00000000  1
  K  K10  1  0.75000000  0.94062900  0.00000000  1
  K  K11  1  0.25000000  0.55937100  0.00000000  1
  K  K12  1  0.14204250  0.11652050  0.67920350  1
  K  K13  1  0.14204250  0.88347950  0.82079650  1
  K  K14  1  0.35795750  0.11652050  0.32079650  1
  K  K15  1  0.35795750  0.88347950  0.17920350  1
  K  K16  1  0.85795750  0.88347950  0.32079650  1
  K  K17  1  0.85795750  0.11652050  0.17920350  1
  K  K18  1  0.64204250  0.88347950  0.67920350  1
  K  K19  1  0.64204250  0.11652050  0.82079650  1
  K  K20  1  0.75000000  0.55937100  0.50000000  1
  K  K21  1  0.25000000  0.94062900  0.50000000  1
  K  K22  1  0.25000000  0.44062900  0.50000000  1
  K  K23  1  0.75000000  0.05937100  0.50000000  1
  B  B24  1  0.00000000  0.25000000  0.91769000  1
  B  B25  1  0.50000000  0.25000000  0.08231000  1
  B  B26  1  0.00000000  0.75000000  0.08231000  1
  B  B27  1  0.50000000  0.75000000  0.91769000  1
  B  B28  1  0.50000000  0.75000000  0.41769000  1
  B  B29  1  0.00000000  0.75000000  0.58231000  1
  B  B30  1  0.50000000  0.25000000  0.58231000  1
  B  B31  1  0.00000000  0.25000000  0.41769000  1
  S  S32  1  0.64805550  0.62170750  0.34329950  1
  S  S33  1  0.64805550  0.37829250  0.15670050  1
  S  S34  1  0.85194450  0.62170750  0.65670050  1
  S  S35  1  0.85194450  0.37829250  0.84329950  1
  S  S36  1  0.35194450  0.37829250  0.65670050  1
  S  S37  1  0.35194450  0.62170750  0.84329950  1
  S  S38  1  0.14805550  0.37829250  0.34329950  1
  S  S39  1  0.14805550  0.62170750  0.15670050  1
  S  S40  1  0.25000000  0.31432700  0.00000000  1
  S  S41  1  0.75000000  0.18567300  0.00000000  1
  S  S42  1  0.75000000  0.68567300  0.00000000  1
  S  S43  1  0.25000000  0.81432700  0.00000000  1
  S  S44  1  0.14805550  0.12170750  0.84329950  1
  S  S45  1  0.14805550  0.87829250  0.65670050  1
  S  S46  1  0.35194450  0.12170750  0.15670050  1
  S  S47  1  0.35194450  0.87829250  0.34329950  1
  S  S48  1  0.85194450  0.87829250  0.15670050  1
  S  S49  1  0.85194450  0.12170750  0.34329950  1
  S  S50  1  0.64805550  0.87829250  0.84329950  1
  S  S51  1  0.64805550  0.12170750  0.65670050  1
  S  S52  1  0.75000000  0.81432700  0.50000000  1
  S  S53  1  0.25000000  0.68567300  0.50000000  1
  S  S54  1  0.25000000  0.18567300  0.50000000  1
  S  S55  1  0.75000000  0.31432700  0.50000000  1
  O  O56  1  0.01082450  0.33454250  0.88478650  1
  O  O57  1  0.51082450  0.16545750  0.11521350  1
  O  O58  1  0.48917550  0.33454250  0.11521350  1
  O  O59  1  0.98917550  0.16545750  0.88478650  1
  O  O60  1  0.98917550  0.66545750  0.11521350  1
  O  O61  1  0.48917550  0.83454250  0.88478650  1
  O  O62  1  0.51082450  0.66545750  0.88478650  1
  O  O63  1  0.01082450  0.83454250  0.11521350  1
  O  O64  1  0.53893050  0.57917050  0.29649650  1
  O  O65  1  0.53893050  0.42082950  0.20350350  1
  O  O66  1  0.96106950  0.57917050  0.70350350  1
  O  O67  1  0.96106950  0.42082950  0.79649650  1
  O  O68  1  0.46106950  0.42082950  0.70350350  1
  O  O69  1  0.46106950  0.57917050  0.79649650  1
  O  O70  1  0.03893050  0.42082950  0.29649650  1
  O  O71  1  0.03893050  0.57917050  0.20350350  1
  O  O72  1  0.60090050  0.63250450  0.02588150  1
  O  O73  1  0.10090050  0.86749550  0.97411850  1
  O  O74  1  0.89909950  0.63250450  0.97411850  1
  O  O75  1  0.39909950  0.86749550  0.02588150  1
  O  O76  1  0.39909950  0.36749550  0.97411850  1
  O  O77  1  0.89909950  0.13250450  0.02588150  1
  O  O78  1  0.10090050  0.36749550  0.02588150  1
  O  O79  1  0.60090050  0.13250450  0.97411850  1
  O  O80  1  0.17289150  0.24439450  0.95515150  1
  O  O81  1  0.67289150  0.25560550  0.04484850  1
  O  O82  1  0.32710850  0.24439450  0.04484850  1
  O  O83  1  0.82710850  0.25560550  0.95515150  1
  O  O84  1  0.82710850  0.75560550  0.04484850  1
  O  O85  1  0.32710850  0.74439450  0.95515150  1
  O  O86  1  0.67289150  0.75560550  0.95515150  1
  O  O87  1  0.17289150  0.74439450  0.04484850  1
  O  O88  1  0.74334700  0.55390200  0.38026900  1
  O  O89  1  0.74334700  0.44609800  0.11973100  1
  O  O90  1  0.75665300  0.55390200  0.61973100  1
  O  O91  1  0.75665300  0.44609800  0.88026900  1
  O  O92  1  0.25665300  0.44609800  0.61973100  1
  O  O93  1  0.25665300  0.55390200  0.88026900  1
  O  O94  1  0.24334700  0.44609800  0.38026900  1
  O  O95  1  0.24334700  0.55390200  0.11973100  1
  O  O96  1  0.26934650  0.19588850  0.82357850  1
  O  O97  1  0.76934650  0.30411150  0.17642150  1
  O  O98  1  0.23065350  0.19588850  0.17642150  1
  O  O99  1  0.73065350  0.30411150  0.82357850  1
  O  O100  1  0.73065350  0.80411150  0.17642150  1
  O  O101  1  0.23065350  0.69588850  0.82357850  1
  O  O102  1  0.76934650  0.80411150  0.82357850  1
  O  O103  1  0.26934650  0.69588850  0.17642150  1
  O  O104  1  0.51082450  0.83454250  0.38478650  1
  O  O105  1  0.01082450  0.66545750  0.61521350  1
  O  O106  1  0.98917550  0.83454250  0.61521350  1
  O  O107  1  0.48917550  0.66545750  0.38478650  1
  O  O108  1  0.48917550  0.16545750  0.61521350  1
  O  O109  1  0.98917550  0.33454250  0.38478650  1
  O  O110  1  0.01082450  0.16545750  0.38478650  1
  O  O111  1  0.51082450  0.33454250  0.61521350  1
  O  O112  1  0.03893050  0.07917050  0.79649650  1
  O  O113  1  0.03893050  0.92082950  0.70350350  1
  O  O114  1  0.46106950  0.07917050  0.20350350  1
  O  O115  1  0.46106950  0.92082950  0.29649650  1
  O  O116  1  0.96106950  0.92082950  0.20350350  1
  O  O117  1  0.96106950  0.07917050  0.29649650  1
  O  O118  1  0.53893050  0.92082950  0.79649650  1
  O  O119  1  0.53893050  0.07917050  0.70350350  1
  O  O120  1  0.10090050  0.13250450  0.52588150  1
  O  O121  1  0.60090050  0.36749550  0.47411850  1
  O  O122  1  0.39909950  0.13250450  0.47411850  1
  O  O123  1  0.89909950  0.36749550  0.52588150  1
  O  O124  1  0.89909950  0.86749550  0.47411850  1
  O  O125  1  0.39909950  0.63250450  0.52588150  1
  O  O126  1  0.60090050  0.86749550  0.52588150  1
  O  O127  1  0.10090050  0.63250450  0.47411850  1
  O  O128  1  0.67289150  0.74439450  0.45515150  1
  O  O129  1  0.17289150  0.75560550  0.54484850  1
  O  O130  1  0.82710850  0.74439450  0.54484850  1
  O  O131  1  0.32710850  0.75560550  0.45515150  1
  O  O132  1  0.32710850  0.25560550  0.54484850  1
  O  O133  1  0.82710850  0.24439450  0.45515150  1
  O  O134  1  0.17289150  0.25560550  0.45515150  1
  O  O135  1  0.67289150  0.24439450  0.54484850  1
  O  O136  1  0.24334700  0.05390200  0.88026900  1
  O  O137  1  0.24334700  0.94609800  0.61973100  1
  O  O138  1  0.25665300  0.05390200  0.11973100  1
  O  O139  1  0.25665300  0.94609800  0.38026900  1
  O  O140  1  0.75665300  0.94609800  0.11973100  1
  O  O141  1  0.75665300  0.05390200  0.38026900  1
  O  O142  1  0.74334700  0.94609800  0.88026900  1
  O  O143  1  0.74334700  0.05390200  0.61973100  1
  O  O144  1  0.76934650  0.69588850  0.32357850  1
  O  O145  1  0.26934650  0.80411150  0.67642150  1
  O  O146  1  0.73065350  0.69588850  0.67642150  1
  O  O147  1  0.23065350  0.80411150  0.32357850  1
  O  O148  1  0.23065350  0.30411150  0.67642150  1
  O  O149  1  0.73065350  0.19588850  0.32357850  1
  O  O150  1  0.26934650  0.30411150  0.32357850  1
  O  O151  1  0.76934650  0.19588850  0.67642150  1
