# generated using pymatgen
data_BaMnV2(AgO4)2
_symmetry_space_group_name_H-M   'P 1'
_cell_length_a   5.63470028
_cell_length_b   5.63470028
_cell_length_c   7.47257950
_cell_angle_alpha   90.00000000
_cell_angle_beta   90.00000000
_cell_angle_gamma   120.00000000
_symmetry_Int_Tables_number   1
_chemical_formula_structural   BaMnV2(AgO4)2
_chemical_formula_sum   'Ba1 Mn1 V2 Ag2 O8'
_cell_volume   205.46734860
_cell_formula_units_Z   1
loop_
 _symmetry_equiv_pos_site_id
 _symmetry_equiv_pos_as_xyz
  1  'x, y, z'
loop_
 _atom_site_type_symbol
 _atom_site_label
 _atom_site_symmetry_multiplicity
 _atom_site_fract_x
 _atom_site_fract_y
 _atom_site_fract_z
 _atom_site_occupancy
  Ba  Ba0  1  0.00000000  0.00000000  0.00000000  1
  Mn  Mn1  1  0.00000000  0.00000000  0.50000000  1
  V  V2  1  0.66666667  0.33333333  0.24821600  1
  V  V3  1  0.33333333  0.66666667  0.75178400  1
  Ag  Ag4  1  0.33333333  0.66666667  0.30900000  1
  Ag  Ag5  1  0.66666667  0.33333333  0.69100000  1
  O  O6  1  0.66666667  0.33333333  0.01949200  1
  O  O7  1  0.33333333  0.66666667  0.98050800  1
  O  O8  1  0.74718300  0.66530200  0.31829200  1
  O  O9  1  0.91811900  0.25281700  0.31829200  1
  O  O10  1  0.33469800  0.08188100  0.31829200  1
  O  O11  1  0.25281700  0.33469800  0.68170800  1
  O  O12  1  0.66530200  0.91811900  0.68170800  1
  O  O13  1  0.08188100  0.74718300  0.68170800  1
