# generated using pymatgen
data_La7Mo7O30
_symmetry_space_group_name_H-M   'P 1'
_cell_length_a   17.25997424
_cell_length_b   17.25997424
_cell_length_c   6.93794759
_cell_angle_alpha   90.00000000
_cell_angle_beta   90.00000000
_cell_angle_gamma   120.00000000
_symmetry_Int_Tables_number   1
_chemical_formula_structural   La7Mo7O30
_chemical_formula_sum   'La21 Mo21 O90'
_cell_volume   1789.95425784
_cell_formula_units_Z   3
loop_
 _symmetry_equiv_pos_site_id
 _symmetry_equiv_pos_as_xyz
  1  'x, y, z'
loop_
 _atom_site_type_symbol
 _atom_site_label
 _atom_site_symmetry_multiplicity
 _atom_site_fract_x
 _atom_site_fract_y
 _atom_site_fract_z
 _atom_site_occupancy
  La  La0  1  0.65433833  0.11499467  0.00609567  1
  La  La1  1  0.55167200  0.87267700  0.33942900  1
  La  La2  1  0.87267700  0.32100500  0.66057100  1
  La  La3  1  0.01232833  0.21833867  0.32723767  1
  La  La4  1  0.11499467  0.46065633  0.99390433  1
  La  La5  1  0.79398967  0.01232833  0.67276233  1
  La  La6  1  0.00000000  0.00000000  0.00000000  1
  La  La7  1  0.32100500  0.44832800  0.33942900  1
  La  La8  1  0.21833867  0.20601033  0.67276233  1
  La  La9  1  0.53934367  0.65433833  0.99390433  1
  La  La10  1  0.67899500  0.55167200  0.66057100  1
  La  La11  1  0.78166133  0.79398967  0.32723767  1
  La  La12  1  0.46065633  0.34566167  0.00609567  1
  La  La13  1  0.66666667  0.33333333  0.33333333  1
  La  La14  1  0.98767167  0.78166133  0.67276233  1
  La  La15  1  0.88500533  0.53934367  0.00609567  1
  La  La16  1  0.20601033  0.98767167  0.32723767  1
  La  La17  1  0.34566167  0.88500533  0.99390433  1
  La  La18  1  0.44832800  0.12732300  0.66057100  1
  La  La19  1  0.12732300  0.67899500  0.33942900  1
  La  La20  1  0.33333333  0.66666667  0.66666667  1
  Mo  Mo21  1  0.85152567  0.32349033  0.16106633  1
  Mo  Mo22  1  0.00984300  0.19470200  0.82773300  1
  Mo  Mo23  1  0.13863133  0.48180767  0.49439967  1
  Mo  Mo24  1  0.81514100  0.00984300  0.17226700  1
  Mo  Mo25  1  0.65682367  0.13863133  0.50560033  1
  Mo  Mo26  1  0.52803533  0.85152567  0.83893367  1
  Mo  Mo27  1  0.00000000  0.00000000  0.50000000  1
  Mo  Mo28  1  0.51819233  0.65682367  0.49439967  1
  Mo  Mo29  1  0.67650967  0.52803533  0.16106633  1
  Mo  Mo30  1  0.80529800  0.81514100  0.82773300  1
  Mo  Mo31  1  0.48180767  0.34317633  0.50560033  1
  Mo  Mo32  1  0.32349033  0.47196467  0.83893367  1
  Mo  Mo33  1  0.19470200  0.18485900  0.17226700  1
  Mo  Mo34  1  0.66666667  0.33333333  0.83333333  1
  Mo  Mo35  1  0.18485900  0.99015700  0.82773300  1
  Mo  Mo36  1  0.34317633  0.86136867  0.49439967  1
  Mo  Mo37  1  0.47196467  0.14847433  0.16106633  1
  Mo  Mo38  1  0.14847433  0.67650967  0.83893367  1
  Mo  Mo39  1  0.99015700  0.80529800  0.17226700  1
  Mo  Mo40  1  0.86136867  0.51819233  0.50560033  1
  Mo  Mo41  1  0.33333333  0.66666667  0.16666667  1
  O  O42  1  0.26315200  0.55675600  0.36564400  1
  O  O43  1  0.77657733  0.37306267  0.03231067  1
  O  O44  1  0.96027067  0.07018133  0.69897733  1
  O  O45  1  0.40351467  0.77657733  0.96768933  1
  O  O46  1  0.89008933  0.96027067  0.30102267  1
  O  O47  1  0.70639600  0.26315200  0.63435600  1
  O  O48  1  0.94804767  0.40521033  0.02720833  1
  O  O49  1  0.92812300  0.20950400  0.69387500  1
  O  O50  1  0.12382933  0.38528567  0.36054167  1
  O  O51  1  0.71861900  0.92812300  0.30612500  1
  O  O52  1  0.73854367  0.12382933  0.63945833  1
  O  O53  1  0.54283733  0.94804767  0.97279167  1
  O  O54  1  0.72286933  0.21689067  0.28729167  1
  O  O55  1  0.44977600  0.83931200  0.62062500  1
  O  O56  1  0.57089800  0.80943900  0.03451600  1
  O  O57  1  0.57187433  0.09576867  0.70118267  1
  O  O58  1  0.85722767  0.09479233  0.36784933  1
  O  O59  1  0.09576867  0.52389433  0.29881733  1
  O  O60  1  0.09479233  0.23756467  0.63215067  1
  O  O61  1  0.80943900  0.23854100  0.96548400  1
  O  O62  1  0.62436933  0.90972267  0.67109567  1
  O  O63  1  0.61868667  0.04229733  0.33776233  1
  O  O64  1  0.75694400  0.04798000  0.00442900  1
  O  O65  1  0.04229733  0.42361067  0.66223767  1
  O  O66  1  0.04798000  0.29103600  0.99557100  1
  O  O67  1  0.90972267  0.28535333  0.32890433  1
  O  O68  1  0.83931200  0.38953600  0.37937500  1
  O  O69  1  0.21689067  0.49402133  0.71270833  1
  O  O70  1  0.94379733  0.11644267  0.04604167  1
  O  O71  1  0.82735467  0.94379733  0.95395833  1
  O  O72  1  0.92981867  0.89008933  0.69897733  1
  O  O73  1  0.44324400  0.70639600  0.36564400  1
  O  O74  1  0.62693733  0.40351467  0.03231067  1
  O  O75  1  0.07018133  0.10991067  0.30102267  1
  O  O76  1  0.55675600  0.29360400  0.63435600  1
  O  O77  1  0.37306267  0.59648533  0.96768933  1
  O  O78  1  0.61471433  0.73854367  0.36054167  1
  O  O79  1  0.59478967  0.54283733  0.02720833  1
  O  O80  1  0.79049600  0.71861900  0.69387500  1
  O  O81  1  0.38528567  0.26145633  0.63945833  1
  O  O82  1  0.40521033  0.45716267  0.97279167  1
  O  O83  1  0.20950400  0.28138100  0.30612500  1
  O  O84  1  0.38953600  0.55022400  0.62062500  1
  O  O85  1  0.11644267  0.17264533  0.95395833  1
  O  O86  1  0.23756467  0.14277233  0.36784933  1
  O  O87  1  0.23854100  0.42910200  0.03451600  1
  O  O88  1  0.52389433  0.42812567  0.70118267  1
  O  O89  1  0.76243533  0.85722767  0.63215067  1
  O  O90  1  0.76145900  0.57089800  0.96548400  1
  O  O91  1  0.47610567  0.57187433  0.29881733  1
  O  O92  1  0.29103600  0.24305600  0.00442900  1
  O  O93  1  0.28535333  0.37563067  0.67109567  1
  O  O94  1  0.42361067  0.38131333  0.33776233  1
  O  O95  1  0.70896400  0.75694400  0.99557100  1
  O  O96  1  0.71464667  0.62436933  0.32890433  1
  O  O97  1  0.57638933  0.61868667  0.66223767  1
  O  O98  1  0.50597867  0.72286933  0.71270833  1
  O  O99  1  0.88355733  0.82735467  0.04604167  1
  O  O100  1  0.61046400  0.44977600  0.37937500  1
  O  O101  1  0.49402133  0.27713067  0.28729167  1
  O  O102  1  0.59648533  0.22342267  0.03231067  1
  O  O103  1  0.10991067  0.03972933  0.69897733  1
  O  O104  1  0.29360400  0.73684800  0.36564400  1
  O  O105  1  0.73684800  0.44324400  0.63435600  1
  O  O106  1  0.22342267  0.62693733  0.96768933  1
  O  O107  1  0.03972933  0.92981867  0.30102267  1
  O  O108  1  0.28138100  0.07187700  0.69387500  1
  O  O109  1  0.26145633  0.87617067  0.36054167  1
  O  O110  1  0.45716267  0.05195233  0.02720833  1
  O  O111  1  0.05195233  0.59478967  0.97279167  1
  O  O112  1  0.07187700  0.79049600  0.30612500  1
  O  O113  1  0.87617067  0.61471433  0.63945833  1
  O  O114  1  0.05620267  0.88355733  0.95395833  1
  O  O115  1  0.78310933  0.50597867  0.28729167  1
  O  O116  1  0.90423133  0.47610567  0.70118267  1
  O  O117  1  0.90520767  0.76243533  0.36784933  1
  O  O118  1  0.19056100  0.76145900  0.03451600  1
  O  O119  1  0.42910200  0.19056100  0.96548400  1
  O  O120  1  0.42812567  0.90423133  0.29881733  1
  O  O121  1  0.14277233  0.90520767  0.63215067  1
  O  O122  1  0.95770267  0.57638933  0.33776233  1
  O  O123  1  0.95202000  0.70896400  0.00442900  1
  O  O124  1  0.09027733  0.71464667  0.67109567  1
  O  O125  1  0.37563067  0.09027733  0.32890433  1
  O  O126  1  0.38131333  0.95770267  0.66223767  1
  O  O127  1  0.24305600  0.95202000  0.99557100  1
  O  O128  1  0.17264533  0.05620267  0.04604167  1
  O  O129  1  0.55022400  0.16068800  0.37937500  1
  O  O130  1  0.27713067  0.78310933  0.71270833  1
  O  O131  1  0.16068800  0.61046400  0.62062500  1
