# generated using pymatgen
data_Ba2Ga2S5
_symmetry_space_group_name_H-M   'P 1'
_cell_length_a   15.65505000
_cell_length_b   15.05136400
_cell_length_c   8.64498149
_cell_angle_alpha   90.00000000
_cell_angle_beta   105.33314479
_cell_angle_gamma   90.00000000
_symmetry_Int_Tables_number   1
_chemical_formula_structural   Ba2Ga2S5
_chemical_formula_sum   'Ba16 Ga16 S40'
_cell_volume   1964.50737314
_cell_formula_units_Z   8
loop_
 _symmetry_equiv_pos_site_id
 _symmetry_equiv_pos_as_xyz
  1  'x, y, z'
loop_
 _atom_site_type_symbol
 _atom_site_label
 _atom_site_symmetry_multiplicity
 _atom_site_fract_x
 _atom_site_fract_y
 _atom_site_fract_z
 _atom_site_occupancy
  Ba  Ba0  1  0.35173400  0.62929700  0.61055800  1
  Ba  Ba1  1  0.64826600  0.62929700  0.88944200  1
  Ba  Ba2  1  0.64826600  0.37070300  0.38944200  1
  Ba  Ba3  1  0.35173400  0.37070300  0.11055800  1
  Ba  Ba4  1  0.14958700  0.41792500  0.60524000  1
  Ba  Ba5  1  0.85041300  0.41792500  0.89476000  1
  Ba  Ba6  1  0.85041300  0.58207500  0.39476000  1
  Ba  Ba7  1  0.14958700  0.58207500  0.10524000  1
  Ba  Ba8  1  0.85173400  0.12929700  0.61055800  1
  Ba  Ba9  1  0.14826600  0.12929700  0.88944200  1
  Ba  Ba10  1  0.14826600  0.87070300  0.38944200  1
  Ba  Ba11  1  0.85173400  0.87070300  0.11055800  1
  Ba  Ba12  1  0.64958700  0.91792500  0.60524000  1
  Ba  Ba13  1  0.35041300  0.91792500  0.89476000  1
  Ba  Ba14  1  0.35041300  0.08207500  0.39476000  1
  Ba  Ba15  1  0.64958700  0.08207500  0.10524000  1
  Ga  Ga16  1  0.07257350  0.69539350  0.61555300  1
  Ga  Ga17  1  0.92742650  0.69539350  0.88444700  1
  Ga  Ga18  1  0.92742650  0.30460650  0.38444700  1
  Ga  Ga19  1  0.07257350  0.30460650  0.11555300  1
  Ga  Ga20  1  0.89790350  0.87439350  0.58729800  1
  Ga  Ga21  1  0.10209650  0.87439350  0.91270200  1
  Ga  Ga22  1  0.10209650  0.12560650  0.41270200  1
  Ga  Ga23  1  0.89790350  0.12560650  0.08729800  1
  Ga  Ga24  1  0.57257350  0.19539350  0.61555300  1
  Ga  Ga25  1  0.42742650  0.19539350  0.88444700  1
  Ga  Ga26  1  0.42742650  0.80460650  0.38444700  1
  Ga  Ga27  1  0.57257350  0.80460650  0.11555300  1
  Ga  Ga28  1  0.39790350  0.37439350  0.58729800  1
  Ga  Ga29  1  0.60209650  0.37439350  0.91270200  1
  Ga  Ga30  1  0.60209650  0.62560650  0.41270200  1
  Ga  Ga31  1  0.39790350  0.62560650  0.08729800  1
  S  S32  1  0.00000000  0.03257500  0.25000000  1
  S  S33  1  0.00000000  0.96742500  0.75000000  1
  S  S34  1  0.17618500  0.78976500  0.76513100  1
  S  S35  1  0.82381500  0.78976500  0.73486900  1
  S  S36  1  0.82381500  0.21023500  0.23486900  1
  S  S37  1  0.17618500  0.21023500  0.26513100  1
  S  S38  1  0.14025500  0.61769200  0.46259500  1
  S  S39  1  0.85974500  0.61769200  0.03740500  1
  S  S40  1  0.85974500  0.38230800  0.53740500  1
  S  S41  1  0.14025500  0.38230800  0.96259500  1
  S  S42  1  0.70768600  0.45371600  0.08763600  1
  S  S43  1  0.29231400  0.45371600  0.41236400  1
  S  S44  1  0.29231400  0.54628400  0.91236400  1
  S  S45  1  0.70768600  0.54628400  0.58763600  1
  S  S46  1  0.96118650  0.77733250  0.44163500  1
  S  S47  1  0.03881350  0.77733250  0.05836500  1
  S  S48  1  0.00000000  0.60041000  0.75000000  1
  S  S49  1  0.00000000  0.39959000  0.25000000  1
  S  S50  1  0.96118650  0.22266750  0.94163500  1
  S  S51  1  0.03881350  0.22266750  0.55836500  1
  S  S52  1  0.50000000  0.53257500  0.25000000  1
  S  S53  1  0.50000000  0.46742500  0.75000000  1
  S  S54  1  0.67618500  0.28976500  0.76513100  1
  S  S55  1  0.32381500  0.28976500  0.73486900  1
  S  S56  1  0.32381500  0.71023500  0.23486900  1
  S  S57  1  0.67618500  0.71023500  0.26513100  1
  S  S58  1  0.64025500  0.11769200  0.46259500  1
  S  S59  1  0.35974500  0.11769200  0.03740500  1
  S  S60  1  0.35974500  0.88230800  0.53740500  1
  S  S61  1  0.64025500  0.88230800  0.96259500  1
  S  S62  1  0.20768600  0.95371600  0.08763600  1
  S  S63  1  0.79231400  0.95371600  0.41236400  1
  S  S64  1  0.79231400  0.04628400  0.91236400  1
  S  S65  1  0.20768600  0.04628400  0.58763600  1
  S  S66  1  0.46118650  0.27733250  0.44163500  1
  S  S67  1  0.53881350  0.27733250  0.05836500  1
  S  S68  1  0.50000000  0.10041000  0.75000000  1
  S  S69  1  0.50000000  0.89959000  0.25000000  1
  S  S70  1  0.46118650  0.72266750  0.94163500  1
  S  S71  1  0.53881350  0.72266750  0.55836500  1
