# generated using pymatgen
data_KCdC3(NO)3
_symmetry_space_group_name_H-M   'P 1'
_cell_length_a   3.77321400
_cell_length_b   10.22360200
_cell_length_c   18.55489700
_cell_angle_alpha   90.00000000
_cell_angle_beta   90.00000000
_cell_angle_gamma   90.00000000
_symmetry_Int_Tables_number   1
_chemical_formula_structural   KCdC3(NO)3
_chemical_formula_sum   'K4 Cd4 C12 N12 O12'
_cell_volume   715.77070443
_cell_formula_units_Z   4
loop_
 _symmetry_equiv_pos_site_id
 _symmetry_equiv_pos_as_xyz
  1  'x, y, z'
loop_
 _atom_site_type_symbol
 _atom_site_label
 _atom_site_symmetry_multiplicity
 _atom_site_fract_x
 _atom_site_fract_y
 _atom_site_fract_z
 _atom_site_occupancy
  K  K0  1  0.75000000  0.92777500  0.33528500  1
  K  K1  1  0.25000000  0.07222500  0.66471500  1
  K  K2  1  0.75000000  0.42777500  0.16471500  1
  K  K3  1  0.25000000  0.57222500  0.83528500  1
  Cd  Cd4  1  0.75000000  0.86219100  0.95641000  1
  Cd  Cd5  1  0.25000000  0.13780900  0.04359000  1
  Cd  Cd6  1  0.75000000  0.36219100  0.54359000  1
  Cd  Cd7  1  0.25000000  0.63780900  0.45641000  1
  C  C8  1  0.25000000  0.58402500  0.62353800  1
  C  C9  1  0.25000000  0.08402500  0.87646200  1
  C  C10  1  0.75000000  0.91597500  0.12353800  1
  C  C11  1  0.75000000  0.41597500  0.37646200  1
  C  C12  1  0.25000000  0.63910300  0.02960300  1
  C  C13  1  0.75000000  0.36089700  0.97039700  1
  C  C14  1  0.25000000  0.13910300  0.47039700  1
  C  C15  1  0.75000000  0.86089700  0.52960300  1
  C  C16  1  0.75000000  0.85247800  0.78808300  1
  C  C17  1  0.25000000  0.14752200  0.21191700  1
  C  C18  1  0.75000000  0.35247800  0.71191700  1
  C  C19  1  0.25000000  0.64752200  0.28808300  1
  N  N20  1  0.75000000  0.28562500  0.65839700  1
  N  N21  1  0.75000000  0.76593400  0.49085700  1
  N  N22  1  0.25000000  0.52267200  0.56719500  1
  N  N23  1  0.75000000  0.47732800  0.43280500  1
  N  N24  1  0.25000000  0.02267200  0.93280500  1
  N  N25  1  0.75000000  0.97732800  0.06719500  1
  N  N26  1  0.25000000  0.73406600  0.99085700  1
  N  N27  1  0.75000000  0.26593400  0.00914300  1
  N  N28  1  0.75000000  0.78562500  0.84160300  1
  N  N29  1  0.25000000  0.21437500  0.15839700  1
  N  N30  1  0.25000000  0.71437500  0.34160300  1
  N  N31  1  0.25000000  0.23406600  0.50914300  1
  O  O32  1  0.25000000  0.04361300  0.43225200  1
  O  O33  1  0.25000000  0.58282900  0.23356900  1
  O  O34  1  0.75000000  0.35683400  0.32087400  1
  O  O35  1  0.25000000  0.14316600  0.82087400  1
  O  O36  1  0.75000000  0.95638700  0.56774800  1
  O  O37  1  0.75000000  0.85683400  0.17912600  1
  O  O38  1  0.25000000  0.54361300  0.06774800  1
  O  O39  1  0.75000000  0.45638700  0.93225200  1
  O  O40  1  0.75000000  0.91717100  0.73356900  1
  O  O41  1  0.25000000  0.08282900  0.26643100  1
  O  O42  1  0.25000000  0.64316600  0.67912600  1
  O  O43  1  0.75000000  0.41717100  0.76643100  1
