# generated using pymatgen
data_Rb2LiGaF6
_symmetry_space_group_name_H-M   'P 1'
_cell_length_a   5.96681981
_cell_length_b   5.96681981
_cell_length_c   29.03644958
_cell_angle_alpha   90.00000000
_cell_angle_beta   90.00000000
_cell_angle_gamma   120.00000000
_symmetry_Int_Tables_number   1
_chemical_formula_structural   Rb2LiGaF6
_chemical_formula_sum   'Rb12 Li6 Ga6 F36'
_cell_volume   895.28228296
_cell_formula_units_Z   6
loop_
 _symmetry_equiv_pos_site_id
 _symmetry_equiv_pos_as_xyz
  1  'x, y, z'
loop_
 _atom_site_type_symbol
 _atom_site_label
 _atom_site_symmetry_multiplicity
 _atom_site_fract_x
 _atom_site_fract_y
 _atom_site_fract_z
 _atom_site_occupancy
  Rb  Rb0  1  0.66666667  0.33333333  0.05045733  1
  Rb  Rb1  1  0.00000000  0.00000000  0.28287600  1
  Rb  Rb2  1  0.66666667  0.33333333  0.20577133  1
  Rb  Rb3  1  0.00000000  0.00000000  0.12756200  1
  Rb  Rb4  1  0.33333333  0.66666667  0.38379067  1
  Rb  Rb5  1  0.66666667  0.33333333  0.61620933  1
  Rb  Rb6  1  0.33333333  0.66666667  0.53910467  1
  Rb  Rb7  1  0.66666667  0.33333333  0.46089533  1
  Rb  Rb8  1  0.00000000  0.00000000  0.71712400  1
  Rb  Rb9  1  0.33333333  0.66666667  0.94954267  1
  Rb  Rb10  1  0.00000000  0.00000000  0.87243800  1
  Rb  Rb11  1  0.33333333  0.66666667  0.79422867  1
  Li  Li12  1  0.33333333  0.66666667  0.07072467  1
  Li  Li13  1  0.33333333  0.66666667  0.26260867  1
  Li  Li14  1  0.00000000  0.00000000  0.40405800  1
  Li  Li15  1  0.00000000  0.00000000  0.59594200  1
  Li  Li16  1  0.66666667  0.33333333  0.73739133  1
  Li  Li17  1  0.66666667  0.33333333  0.92927533  1
  Ga  Ga18  1  0.33333333  0.66666667  0.16666667  1
  Ga  Ga19  1  0.00000000  0.00000000  0.00000000  1
  Ga  Ga20  1  1.00000000  1.00000000  0.50000000  1
  Ga  Ga21  1  0.66666667  0.33333333  0.33333333  1
  Ga  Ga22  1  0.66666667  0.33333333  0.83333333  1
  Ga  Ga23  1  0.33333333  0.66666667  0.66666667  1
  F  F24  1  0.68957400  0.84478700  0.03796100  1
  F  F25  1  0.97709267  0.48854633  0.29537233  1
  F  F26  1  0.15521300  0.84478700  0.03796100  1
  F  F27  1  0.15521300  0.31042600  0.03796100  1
  F  F28  1  0.51145367  0.48854633  0.29537233  1
  F  F29  1  0.51145367  0.02290733  0.29537233  1
  F  F30  1  0.48062300  0.96124600  0.12611200  1
  F  F31  1  0.48062300  0.51937700  0.12611200  1
  F  F32  1  0.03875400  0.51937700  0.12611200  1
  F  F33  1  0.62791267  0.81395633  0.20722133  1
  F  F34  1  0.18604367  0.37208733  0.20722133  1
  F  F35  1  0.18604367  0.81395633  0.20722133  1
  F  F36  1  0.35624067  0.17812033  0.37129433  1
  F  F37  1  0.64375933  0.82187967  0.62870567  1
  F  F38  1  0.82187967  0.17812033  0.37129433  1
  F  F39  1  0.82187967  0.64375933  0.37129433  1
  F  F40  1  0.17812033  0.82187967  0.62870567  1
  F  F41  1  0.17812033  0.35624067  0.62870567  1
  F  F42  1  0.14728967  0.29457933  0.45944533  1
  F  F43  1  0.14728967  0.85271033  0.45944533  1
  F  F44  1  0.70542067  0.85271033  0.45944533  1
  F  F45  1  0.29457933  0.14728967  0.54055467  1
  F  F46  1  0.85271033  0.70542067  0.54055467  1
  F  F47  1  0.85271033  0.14728967  0.54055467  1
  F  F48  1  0.02290733  0.51145367  0.70462767  1
  F  F49  1  0.31042600  0.15521300  0.96203900  1
  F  F50  1  0.48854633  0.51145367  0.70462767  1
  F  F51  1  0.48854633  0.97709267  0.70462767  1
  F  F52  1  0.84478700  0.15521300  0.96203900  1
  F  F53  1  0.84478700  0.68957400  0.96203900  1
  F  F54  1  0.81395633  0.62791267  0.79277867  1
  F  F55  1  0.81395633  0.18604367  0.79277867  1
  F  F56  1  0.37208733  0.18604367  0.79277867  1
  F  F57  1  0.96124600  0.48062300  0.87388800  1
  F  F58  1  0.51937700  0.03875400  0.87388800  1
  F  F59  1  0.51937700  0.48062300  0.87388800  1
