# generated using pymatgen
data_Ba2CdSe3
_symmetry_space_group_name_H-M   'P 1'
_cell_length_a   4.55906300
_cell_length_b   9.41543400
_cell_length_c   18.18918600
_cell_angle_alpha   90.00000000
_cell_angle_beta   90.00000000
_cell_angle_gamma   90.00000000
_symmetry_Int_Tables_number   1
_chemical_formula_structural   Ba2CdSe3
_chemical_formula_sum   'Ba8 Cd4 Se12'
_cell_volume   780.78093639
_cell_formula_units_Z   4
loop_
 _symmetry_equiv_pos_site_id
 _symmetry_equiv_pos_as_xyz
  1  'x, y, z'
loop_
 _atom_site_type_symbol
 _atom_site_label
 _atom_site_symmetry_multiplicity
 _atom_site_fract_x
 _atom_site_fract_y
 _atom_site_fract_z
 _atom_site_occupancy
  Ba  Ba0  1  0.25000000  0.26022200  0.46043800  1
  Ba  Ba1  1  0.75000000  0.23977800  0.96043800  1
  Ba  Ba2  1  0.25000000  0.76022200  0.03956200  1
  Ba  Ba3  1  0.75000000  0.73977800  0.53956200  1
  Ba  Ba4  1  0.25000000  0.92215500  0.78440700  1
  Ba  Ba5  1  0.75000000  0.07784500  0.21559300  1
  Ba  Ba6  1  0.25000000  0.42215500  0.71559300  1
  Ba  Ba7  1  0.75000000  0.57784500  0.28440700  1
  Cd  Cd8  1  0.75000000  0.62447900  0.86679100  1
  Cd  Cd9  1  0.75000000  0.12447900  0.63320900  1
  Cd  Cd10  1  0.25000000  0.37552100  0.13320900  1
  Cd  Cd11  1  0.25000000  0.87552100  0.36679100  1
  Se  Se12  1  0.25000000  0.48498600  0.90412600  1
  Se  Se13  1  0.75000000  0.51501400  0.09587400  1
  Se  Se14  1  0.25000000  0.98498600  0.59587400  1
  Se  Se15  1  0.75000000  0.01501400  0.40412600  1
  Se  Se16  1  0.25000000  0.61813500  0.42792400  1
  Se  Se17  1  0.75000000  0.38186500  0.57207600  1
  Se  Se18  1  0.25000000  0.11813500  0.07207600  1
  Se  Se19  1  0.75000000  0.68562700  0.72282800  1
  Se  Se20  1  0.25000000  0.81437300  0.22282800  1
  Se  Se21  1  0.75000000  0.18562700  0.77717200  1
  Se  Se22  1  0.25000000  0.31437300  0.27717200  1
  Se  Se23  1  0.75000000  0.88186500  0.92792400  1
