# generated using pymatgen
data_Rb2MoO4
_symmetry_space_group_name_H-M   'P 1'
_cell_length_a   13.07723800
_cell_length_b   6.42738200
_cell_length_c   8.03918948
_cell_angle_alpha   90.00000000
_cell_angle_beta   115.89365919
_cell_angle_gamma   90.00000000
_symmetry_Int_Tables_number   1
_chemical_formula_structural   Rb2MoO4
_chemical_formula_sum   'Rb8 Mo4 O16'
_cell_volume   607.87572812
_cell_formula_units_Z   4
loop_
 _symmetry_equiv_pos_site_id
 _symmetry_equiv_pos_as_xyz
  1  'x, y, z'
loop_
 _atom_site_type_symbol
 _atom_site_label
 _atom_site_symmetry_multiplicity
 _atom_site_fract_x
 _atom_site_fract_y
 _atom_site_fract_z
 _atom_site_occupancy
  Rb  Rb0  1  0.34353800  0.50000000  0.25210600  1
  Rb  Rb1  1  0.15646200  0.00000000  0.74789400  1
  Rb  Rb2  1  0.48665600  0.00000000  0.76154000  1
  Rb  Rb3  1  0.01334400  0.50000000  0.23846000  1
  Rb  Rb4  1  0.84353800  0.00000000  0.25210600  1
  Rb  Rb5  1  0.65646200  0.50000000  0.74789400  1
  Rb  Rb6  1  0.98665600  0.50000000  0.76154000  1
  Rb  Rb7  1  0.51334400  0.00000000  0.23846000  1
  Mo  Mo8  1  0.17600400  0.00000000  0.22488400  1
  Mo  Mo9  1  0.32399600  0.50000000  0.77511600  1
  Mo  Mo10  1  0.67600400  0.50000000  0.22488400  1
  Mo  Mo11  1  0.82399600  0.00000000  0.77511600  1
  O  O12  1  0.14314000  0.22834700  0.08245600  1
  O  O13  1  0.35686000  0.72834700  0.91754400  1
  O  O14  1  0.35686000  0.27165300  0.91754400  1
  O  O15  1  0.14314000  0.77165300  0.08245600  1
  O  O16  1  0.17356000  0.50000000  0.62791000  1
  O  O17  1  0.32644000  0.00000000  0.37209000  1
  O  O18  1  0.09433200  0.00000000  0.35584100  1
  O  O19  1  0.40566800  0.50000000  0.64415900  1
  O  O20  1  0.64314000  0.72834700  0.08245600  1
  O  O21  1  0.85686000  0.22834700  0.91754400  1
  O  O22  1  0.85686000  0.77165300  0.91754400  1
  O  O23  1  0.64314000  0.27165300  0.08245600  1
  O  O24  1  0.67356000  0.00000000  0.62791000  1
  O  O25  1  0.82644000  0.50000000  0.37209000  1
  O  O26  1  0.59433200  0.50000000  0.35584100  1
  O  O27  1  0.90566800  0.00000000  0.64415900  1
