# generated using pymatgen
data_SbS2NF6
_symmetry_space_group_name_H-M   'P 1'
_cell_length_a   9.81045400
_cell_length_b   6.93348400
_cell_length_c   5.51234555
_cell_angle_alpha   90.00000000
_cell_angle_beta   91.67612910
_cell_angle_gamma   90.00000000
_symmetry_Int_Tables_number   1
_chemical_formula_structural   SbS2NF6
_chemical_formula_sum   'Sb2 S4 N2 F12'
_cell_volume   374.79276412
_cell_formula_units_Z   2
loop_
 _symmetry_equiv_pos_site_id
 _symmetry_equiv_pos_as_xyz
  1  'x, y, z'
loop_
 _atom_site_type_symbol
 _atom_site_label
 _atom_site_symmetry_multiplicity
 _atom_site_fract_x
 _atom_site_fract_y
 _atom_site_fract_z
 _atom_site_occupancy
  Sb  Sb0  1  0.00000000  0.00000000  0.00000000  1
  Sb  Sb1  1  0.50000000  0.50000000  0.00000000  1
  S  S2  1  0.35982800  0.00000000  0.38659300  1
  S  S3  1  0.64017200  0.00000000  0.61340700  1
  S  S4  1  0.85982800  0.50000000  0.38659300  1
  S  S5  1  0.14017200  0.50000000  0.61340700  1
  N  N6  1  0.50000000  0.00000000  0.50000000  1
  N  N7  1  0.00000000  0.50000000  0.50000000  1
  F  F8  1  0.88675200  0.00000000  0.27807700  1
  F  F9  1  0.11324800  0.00000000  0.72192300  1
  F  F10  1  0.38626300  0.69569700  0.85109900  1
  F  F11  1  0.61373700  0.69569700  0.14890100  1
  F  F12  1  0.61373700  0.30430300  0.14890100  1
  F  F13  1  0.38626300  0.30430300  0.85109900  1
  F  F14  1  0.38675200  0.50000000  0.27807700  1
  F  F15  1  0.61324800  0.50000000  0.72192300  1
  F  F16  1  0.88626300  0.19569700  0.85109900  1
  F  F17  1  0.11373700  0.19569700  0.14890100  1
  F  F18  1  0.11373700  0.80430300  0.14890100  1
  F  F19  1  0.88626300  0.80430300  0.85109900  1
