# generated using pymatgen
data_La2Si2O7
_symmetry_space_group_name_H-M   'P 1'
_cell_length_a   6.87726800
_cell_length_b   6.95480156
_cell_length_c   12.64244183
_cell_angle_alpha   83.97707973
_cell_angle_beta   88.89607250
_cell_angle_gamma   88.52785056
_symmetry_Int_Tables_number   1
_chemical_formula_structural   La2Si2O7
_chemical_formula_sum   'La8 Si8 O28'
_cell_volume   601.06854836
_cell_formula_units_Z   4
loop_
 _symmetry_equiv_pos_site_id
 _symmetry_equiv_pos_as_xyz
  1  'x, y, z'
loop_
 _atom_site_type_symbol
 _atom_site_label
 _atom_site_symmetry_multiplicity
 _atom_site_fract_x
 _atom_site_fract_y
 _atom_site_fract_z
 _atom_site_occupancy
  La  La0  1  0.92368900  0.16665500  0.84566900  1
  La  La1  1  0.07631100  0.83334500  0.15433100  1
  La  La2  1  0.32367200  0.76046600  0.86376100  1
  La  La3  1  0.67632800  0.23953400  0.13623900  1
  La  La4  1  0.62866200  0.62872800  0.36172100  1
  La  La5  1  0.37133800  0.37127200  0.63827900  1
  La  La6  1  0.75658400  0.80376300  0.64211600  1
  La  La7  1  0.24341600  0.19623700  0.35788400  1
  Si  Si8  1  0.22524400  0.89262400  0.60904200  1
  Si  Si9  1  0.77475600  0.10737600  0.39095800  1
  Si  Si10  1  0.83985100  0.31148300  0.58933600  1
  Si  Si11  1  0.16014900  0.68851700  0.41066400  1
  Si  Si12  1  0.83761900  0.68449900  0.90801600  1
  Si  Si13  1  0.16238100  0.31550100  0.09198400  1
  Si  Si14  1  0.57436900  0.72078400  0.10236400  1
  Si  Si15  1  0.42563100  0.27921600  0.89763600  1
  O  O16  1  0.07173800  0.91099000  0.70865100  1
  O  O17  1  0.92826200  0.08901000  0.29134900  1
  O  O18  1  0.40306600  0.74868800  0.65465200  1
  O  O19  1  0.59693400  0.25131200  0.34534800  1
  O  O20  1  0.69483700  0.90764800  0.45260300  1
  O  O21  1  0.30516300  0.09235200  0.54739700  1
  O  O22  1  0.09318600  0.78242300  0.52316500  1
  O  O23  1  0.90681400  0.21757700  0.47683500  1
  O  O24  1  0.69627100  0.50126300  0.55471100  1
  O  O25  1  0.30372900  0.49873700  0.44528900  1
  O  O26  1  0.70385600  0.15762600  0.66355500  1
  O  O27  1  0.29614400  0.84237400  0.33644500  1
  O  O28  1  0.97337000  0.63635300  0.34466700  1
  O  O29  1  0.02663000  0.36364700  0.65533300  1
  O  O30  1  0.00395100  0.82696300  0.94807900  1
  O  O31  1  0.99604900  0.17303700  0.05192100  1
  O  O32  1  0.37678400  0.81335700  0.04761100  1
  O  O33  1  0.62321600  0.18664300  0.95238900  1
  O  O34  1  0.46842900  0.45741400  0.80574200  1
  O  O35  1  0.53157100  0.54258600  0.19425800  1
  O  O36  1  0.29098000  0.12686800  0.84268800  1
  O  O37  1  0.70902000  0.87313200  0.15731200  1
  O  O38  1  0.30113600  0.39641900  0.98737600  1
  O  O39  1  0.69886400  0.60358100  0.01262400  1
  O  O40  1  0.06122500  0.49240800  0.14706200  1
  O  O41  1  0.93877500  0.50759200  0.85293800  1
  O  O42  1  0.30916200  0.17653800  0.17128200  1
  O  O43  1  0.69083800  0.82346200  0.82871800  1
