# generated using pymatgen
data_TbZn(BO2)5
_symmetry_space_group_name_H-M   'P 1'
_cell_length_a   8.65764300
_cell_length_b   7.68610300
_cell_length_c   12.42638481
_cell_angle_alpha   90.00000000
_cell_angle_beta   130.73441541
_cell_angle_gamma   90.00000000
_symmetry_Int_Tables_number   1
_chemical_formula_structural   TbZn(BO2)5
_chemical_formula_sum   'Tb4 Zn4 B20 O40'
_cell_volume   626.57393342
_cell_formula_units_Z   4
loop_
 _symmetry_equiv_pos_site_id
 _symmetry_equiv_pos_as_xyz
  1  'x, y, z'
loop_
 _atom_site_type_symbol
 _atom_site_label
 _atom_site_symmetry_multiplicity
 _atom_site_fract_x
 _atom_site_fract_y
 _atom_site_fract_z
 _atom_site_occupancy
  Tb  Tb0  1  0.94498600  0.81640800  0.75882300  1
  Tb  Tb1  1  0.05501400  0.31640800  0.74117700  1
  Tb  Tb2  1  0.05501400  0.18359200  0.24117700  1
  Tb  Tb3  1  0.94498600  0.68359200  0.25882300  1
  Zn  Zn4  1  0.48120800  0.59047100  0.87315500  1
  Zn  Zn5  1  0.51879200  0.09047100  0.62684500  1
  Zn  Zn6  1  0.51879200  0.40952900  0.12684500  1
  Zn  Zn7  1  0.48120800  0.90952900  0.37315500  1
  B  B8  1  0.66301300  0.42630200  0.74557700  1
  B  B9  1  0.52250300  0.81331700  0.08773400  1
  B  B10  1  0.47749700  0.31331700  0.41226600  1
  B  B11  1  0.47749700  0.18668300  0.91226600  1
  B  B12  1  0.52250300  0.68668300  0.58773400  1
  B  B13  1  0.84995200  0.10294100  0.50897600  1
  B  B14  1  0.15004800  0.60294100  0.99102400  1
  B  B15  1  0.15004800  0.89705900  0.49102400  1
  B  B16  1  0.84995200  0.39705900  0.00897600  1
  B  B17  1  0.33698700  0.92630200  0.75442300  1
  B  B18  1  0.33698700  0.57369800  0.25442300  1
  B  B19  1  0.66301300  0.07369800  0.24557700  1
  B  B20  1  0.08577400  0.67533600  0.60308700  1
  B  B21  1  0.91422600  0.17533600  0.89691300  1
  B  B22  1  0.91422600  0.32466400  0.39691300  1
  B  B23  1  0.08577400  0.82466400  0.10308700  1
  B  B24  1  0.27951000  0.46923300  0.55718500  1
  B  B25  1  0.72049000  0.96923300  0.94281500  1
  B  B26  1  0.72049000  0.53076700  0.44281500  1
  B  B27  1  0.27951000  0.03076700  0.05718500  1
  O  O28  1  0.18747700  0.79709300  0.72487000  1
  O  O29  1  0.42228200  0.34617800  0.93006500  1
  O  O30  1  0.57771800  0.84617800  0.56993500  1
  O  O31  1  0.57771800  0.65382200  0.06993500  1
  O  O32  1  0.42228200  0.15382200  0.43006500  1
  O  O33  1  0.11467500  0.55541000  0.87206900  1
  O  O34  1  0.88532500  0.05541000  0.62793100  1
  O  O35  1  0.88532500  0.44459000  0.12793100  1
  O  O36  1  0.81252300  0.29709300  0.77513000  1
  O  O37  1  0.11467500  0.94459000  0.37206900  1
  O  O38  1  0.18747700  0.70290700  0.22487000  1
  O  O39  1  0.81252300  0.20290700  0.27513000  1
  O  O40  1  0.69596700  0.46789400  0.87774800  1
  O  O41  1  0.30403300  0.96789400  0.62225200  1
  O  O42  1  0.30403300  0.53210600  0.12225200  1
  O  O43  1  0.69596700  0.03210600  0.37774800  1
  O  O44  1  0.68743000  0.59151300  0.69829600  1
  O  O45  1  0.31257000  0.09151300  0.80170400  1
  O  O46  1  0.31257000  0.40848700  0.30170400  1
  O  O47  1  0.68743000  0.90848700  0.19829600  1
  O  O48  1  0.45698100  0.35280800  0.63937600  1
  O  O49  1  0.54301900  0.85280800  0.86062400  1
  O  O50  1  0.54301900  0.64719200  0.36062400  1
  O  O51  1  0.45698100  0.14719200  0.13937600  1
  O  O52  1  0.23558600  0.53159400  0.65009700  1
  O  O53  1  0.76441400  0.03159400  0.84990300  1
  O  O54  1  0.76441400  0.46840600  0.34990300  1
  O  O55  1  0.23558600  0.96840600  0.15009700  1
  O  O56  1  0.90483400  0.60771200  0.57882500  1
  O  O57  1  0.09516600  0.10771200  0.92117500  1
  O  O58  1  0.09516600  0.39228800  0.42117500  1
  O  O59  1  0.32781300  0.87513500  0.00930200  1
  O  O60  1  0.02486900  0.76738400  0.47685700  1
  O  O61  1  0.97513100  0.26738400  0.02314300  1
  O  O62  1  0.97513100  0.23261600  0.52314300  1
  O  O63  1  0.02486900  0.73261600  0.97685700  1
  O  O64  1  0.32781300  0.62486500  0.50930200  1
  O  O65  1  0.67218700  0.12486500  0.99069800  1
  O  O66  1  0.67218700  0.37513500  0.49069800  1
  O  O67  1  0.90483400  0.89228800  0.07882500  1
