# generated using pymatgen
data_Na6Si2O7
_symmetry_space_group_name_H-M   'P 1'
_cell_length_a   5.88270400
_cell_length_b   11.72513643
_cell_length_c   23.44776141
_cell_angle_alpha   89.62195674
_cell_angle_beta   88.77224693
_cell_angle_gamma   88.79420192
_symmetry_Int_Tables_number   1
_chemical_formula_structural   Na6Si2O7
_chemical_formula_sum   'Na48 Si16 O56'
_cell_volume   1616.56129836
_cell_formula_units_Z   8
loop_
 _symmetry_equiv_pos_site_id
 _symmetry_equiv_pos_as_xyz
  1  'x, y, z'
loop_
 _atom_site_type_symbol
 _atom_site_label
 _atom_site_symmetry_multiplicity
 _atom_site_fract_x
 _atom_site_fract_y
 _atom_site_fract_z
 _atom_site_occupancy
  Na  Na0  1  0.24681400  0.00807200  0.76284600  1
  Na  Na1  1  0.75318600  0.99192800  0.23715400  1
  Na  Na2  1  0.37998600  0.98159600  0.62341200  1
  Na  Na3  1  0.62001400  0.01840400  0.37658800  1
  Na  Na4  1  0.74799500  0.99431400  0.72757800  1
  Na  Na5  1  0.25200500  0.00568600  0.27242200  1
  Na  Na6  1  0.63716500  0.02467900  0.85933200  1
  Na  Na7  1  0.36283500  0.97532100  0.14066800  1
  Na  Na8  1  0.75254400  0.47461100  0.99266000  1
  Na  Na9  1  0.24745600  0.52538900  0.00734000  1
  Na  Na10  1  0.25193300  0.96200700  0.49457600  1
  Na  Na11  1  0.74806700  0.03799300  0.50542400  1
  Na  Na12  1  0.25742100  0.47431700  0.74915000  1
  Na  Na13  1  0.74257900  0.52568300  0.25085000  1
  Na  Na14  1  0.38866100  0.49689500  0.87780300  1
  Na  Na15  1  0.61133900  0.50310500  0.12219700  1
  Na  Na16  1  0.88155500  0.25942900  0.74675500  1
  Na  Na17  1  0.11844500  0.74057100  0.25324500  1
  Na  Na18  1  0.75534700  0.49063100  0.49435600  1
  Na  Na19  1  0.24465300  0.50936900  0.50564400  1
  Na  Na20  1  0.24799200  0.98281400  0.99990300  1
  Na  Na21  1  0.75200800  0.01718600  0.00009700  1
  Na  Na22  1  0.87845100  0.72534500  0.98764400  1
  Na  Na23  1  0.12154900  0.27465500  0.01235600  1
  Na  Na24  1  0.39273700  0.21100100  0.68681300  1
  Na  Na25  1  0.60726300  0.78899900  0.31318700  1
  Na  Na26  1  0.10831400  0.74849600  0.75209400  1
  Na  Na27  1  0.89168600  0.25150400  0.24790600  1
  Na  Na28  1  0.74909200  0.52771200  0.76471400  1
  Na  Na29  1  0.25090800  0.47228800  0.23528600  1
  Na  Na30  1  0.85987800  0.76971100  0.48310500  1
  Na  Na31  1  0.14012200  0.23028900  0.51689500  1
  Na  Na32  1  0.43083000  0.76411900  0.92337600  1
  Na  Na33  1  0.56917000  0.23588100  0.07662400  1
  Na  Na34  1  0.10500400  0.15261300  0.89720900  1
  Na  Na35  1  0.89499600  0.84738700  0.10279100  1
  Na  Na36  1  0.58372200  0.78247700  0.80486500  1
  Na  Na37  1  0.41627800  0.21752300  0.19513500  1
  Na  Na38  1  0.61877400  0.52039500  0.64007200  1
  Na  Na39  1  0.38122600  0.47960500  0.35992800  1
  Na  Na40  1  0.91088900  0.37948300  0.86923300  1
  Na  Na41  1  0.08911100  0.62051700  0.13076700  1
  Na  Na42  1  0.89629400  0.87475300  0.59956500  1
  Na  Na43  1  0.10370600  0.12524700  0.40043500  1
  Na  Na44  1  0.60316100  0.29269900  0.57857200  1
  Na  Na45  1  0.39683900  0.70730100  0.42142800  1
  Na  Na46  1  0.07738000  0.64684200  0.62354700  1
  Na  Na47  1  0.92262000  0.35315800  0.37645300  1
  Si  Si48  1  0.44234800  0.25393100  0.81557500  1
  Si  Si49  1  0.55765200  0.74606900  0.18442500  1
  Si  Si50  1  0.56088100  0.24967300  0.94827600  1
  Si  Si51  1  0.43911900  0.75032700  0.05172400  1
  Si  Si52  1  0.06279300  0.89216600  0.86780100  1
  Si  Si53  1  0.93720700  0.10783400  0.13219900  1
  Si  Si54  1  0.93753200  0.62868200  0.87583500  1
  Si  Si55  1  0.06246800  0.37131800  0.12416500  1
  Si  Si56  1  0.55963200  0.74783200  0.68448500  1
  Si  Si57  1  0.44036800  0.25216800  0.31551500  1
  Si  Si58  1  0.43384600  0.75344800  0.55087600  1
  Si  Si59  1  0.56615400  0.24655200  0.44912400  1
  Si  Si60  1  0.93964100  0.12521900  0.62591000  1
  Si  Si61  1  0.06035900  0.87478100  0.37409000  1
  Si  Si62  1  0.06576400  0.39436700  0.62995900  1
  Si  Si63  1  0.93423600  0.60563300  0.37004100  1
  O  O64  1  0.54342000  0.15174200  0.77353700  1
  O  O65  1  0.45658000  0.84825800  0.22646300  1
  O  O66  1  0.16570200  0.27097100  0.81235400  1
  O  O67  1  0.83429800  0.72902900  0.18764600  1
  O  O68  1  0.57644300  0.37393800  0.80607600  1
  O  O69  1  0.42355700  0.62606200  0.19392400  1
  O  O70  1  0.49267800  0.20353600  0.88245400  1
  O  O71  1  0.50732200  0.79646400  0.11754600  1
  O  O72  1  0.45289500  0.15238000  0.99156700  1
  O  O73  1  0.54710500  0.84762000  0.00843300  1
  O  O74  1  0.83814100  0.25644200  0.95004900  1
  O  O75  1  0.16185900  0.74355800  0.04995100  1
  O  O76  1  0.43925500  0.37405800  0.96086600  1
  O  O77  1  0.56074500  0.62594200  0.03913400  1
  O  O78  1  0.91401500  0.90525500  0.80920600  1
  O  O79  1  0.08598500  0.09474500  0.19079400  1
  O  O80  1  0.33457700  0.90772200  0.85334700  1
  O  O81  1  0.66542300  0.09227800  0.14665300  1
  O  O82  1  0.96946000  0.97735300  0.91881300  1
  O  O83  1  0.03054000  0.02264700  0.08118700  1
  O  O84  1  0.04170900  0.75773500  0.89416700  1
  O  O85  1  0.95829100  0.24226500  0.10583300  1
  O  O86  1  0.05422600  0.58491900  0.81568400  1
  O  O87  1  0.94577400  0.41508100  0.18431600  1
  O  O88  1  0.01747200  0.54621400  0.92870200  1
  O  O89  1  0.98252800  0.45378600  0.07129800  1
  O  O90  1  0.66047400  0.64220400  0.87254800  1
  O  O91  1  0.33952600  0.35779600  0.12745200  1
  O  O92  1  0.83700300  0.75671500  0.67861600  1
  O  O93  1  0.16299700  0.24328500  0.32138400  1
  O  O94  1  0.44201100  0.86854000  0.70601400  1
  O  O95  1  0.55798900  0.13146000  0.29398600  1
  O  O96  1  0.47488400  0.64219700  0.72520300  1
  O  O97  1  0.52511600  0.35780300  0.27479700  1
  O  O98  1  0.46280200  0.70866200  0.61932600  1
  O  O99  1  0.53719800  0.29133800  0.38067400  1
  O  O100  1  0.15997900  0.77338100  0.54283900  1
  O  O101  1  0.84002100  0.22661900  0.45716100  1
  O  O102  1  0.57341100  0.87251400  0.54210700  1
  O  O103  1  0.42658900  0.12748600  0.45789300  1
  O  O104  1  0.53538100  0.65222200  0.50897900  1
  O  O105  1  0.46461900  0.34777800  0.49102100  1
  O  O106  1  0.06231900  0.09712000  0.68656900  1
  O  O107  1  0.93768100  0.90288000  0.31343100  1
  O  O108  1  0.66278300  0.11292500  0.62916400  1
  O  O109  1  0.33721700  0.88707500  0.37083600  1
  O  O110  1  0.05421500  0.05118800  0.57289400  1
  O  O111  1  0.94578500  0.94881200  0.42710600  1
  O  O112  1  0.98510700  0.26355000  0.60822500  1
  O  O113  1  0.01489300  0.73645000  0.39177500  1
  O  O114  1  0.34216800  0.38770700  0.63752400  1
  O  O115  1  0.65783200  0.61229300  0.36247600  1
  O  O116  1  0.93557900  0.42807000  0.69015300  1
  O  O117  1  0.06442100  0.57193000  0.30984700  1
  O  O118  1  0.97354900  0.47883900  0.57856000  1
  O  O119  1  0.02645100  0.52116100  0.42144000  1
