# generated using pymatgen
data_K2CuSb
_symmetry_space_group_name_H-M   'P 1'
_cell_length_a   7.96354600
_cell_length_b   10.60613400
_cell_length_c   6.25840300
_cell_angle_alpha   90.00000000
_cell_angle_beta   90.00000000
_cell_angle_gamma   90.00000000
_symmetry_Int_Tables_number   1
_chemical_formula_structural   K2CuSb
_chemical_formula_sum   'K8 Cu4 Sb4'
_cell_volume   528.59996279
_cell_formula_units_Z   4
loop_
 _symmetry_equiv_pos_site_id
 _symmetry_equiv_pos_as_xyz
  1  'x, y, z'
loop_
 _atom_site_type_symbol
 _atom_site_label
 _atom_site_symmetry_multiplicity
 _atom_site_fract_x
 _atom_site_fract_y
 _atom_site_fract_z
 _atom_site_occupancy
  K  K0  1  0.65469450  0.33049850  0.75000000  1
  K  K1  1  0.34530550  0.66950150  0.25000000  1
  K  K2  1  0.34530550  0.33049850  0.25000000  1
  K  K3  1  0.65469450  0.66950150  0.75000000  1
  K  K4  1  0.15469450  0.83049850  0.75000000  1
  K  K5  1  0.84530550  0.16950150  0.25000000  1
  K  K6  1  0.84530550  0.83049850  0.25000000  1
  K  K7  1  0.15469450  0.16950150  0.75000000  1
  Cu  Cu8  1  0.50000000  0.00000000  0.50000000  1
  Cu  Cu9  1  0.50000000  0.00000000  0.00000000  1
  Cu  Cu10  1  0.00000000  0.50000000  0.50000000  1
  Cu  Cu11  1  0.00000000  0.50000000  0.00000000  1
  Sb  Sb12  1  0.74944000  0.00000000  0.75000000  1
  Sb  Sb13  1  0.25056000  0.00000000  0.25000000  1
  Sb  Sb14  1  0.24944000  0.50000000  0.75000000  1
  Sb  Sb15  1  0.75056000  0.50000000  0.25000000  1
