# generated using pymatgen
data_MgV2O5
_symmetry_space_group_name_H-M   'P 1'
_cell_length_a   3.72480200
_cell_length_b   10.19529400
_cell_length_c   11.21048800
_cell_angle_alpha   90.00000000
_cell_angle_beta   90.00000000
_cell_angle_gamma   90.00000000
_symmetry_Int_Tables_number   1
_chemical_formula_structural   MgV2O5
_chemical_formula_sum   'Mg4 V8 O20'
_cell_volume   425.72334313
_cell_formula_units_Z   4
loop_
 _symmetry_equiv_pos_site_id
 _symmetry_equiv_pos_as_xyz
  1  'x, y, z'
loop_
 _atom_site_type_symbol
 _atom_site_label
 _atom_site_symmetry_multiplicity
 _atom_site_fract_x
 _atom_site_fract_y
 _atom_site_fract_z
 _atom_site_occupancy
  Mg  Mg0  1  0.50000000  0.39141500  0.25000000  1
  Mg  Mg1  1  0.00000000  0.10858500  0.75000000  1
  Mg  Mg2  1  0.00000000  0.89141500  0.25000000  1
  Mg  Mg3  1  0.50000000  0.60858500  0.75000000  1
  V  V4  1  0.00000000  0.20103200  0.09788600  1
  V  V5  1  0.50000000  0.29896800  0.90211400  1
  V  V6  1  0.50000000  0.29896800  0.59788600  1
  V  V7  1  0.00000000  0.20103200  0.40211400  1
  V  V8  1  0.50000000  0.70103200  0.09788600  1
  V  V9  1  0.00000000  0.79896800  0.90211400  1
  V  V10  1  0.00000000  0.79896800  0.59788600  1
  V  V11  1  0.50000000  0.70103200  0.40211400  1
  O  O12  1  0.50000000  0.19604300  0.75000000  1
  O  O13  1  0.00000000  0.30395700  0.25000000  1
  O  O14  1  0.00000000  0.23556900  0.57739400  1
  O  O15  1  0.50000000  0.26443100  0.42260600  1
  O  O16  1  0.50000000  0.26443100  0.07739400  1
  O  O17  1  0.00000000  0.23556900  0.92260600  1
  O  O18  1  0.00000000  0.04113000  0.12787700  1
  O  O19  1  0.50000000  0.45887000  0.87212300  1
  O  O20  1  0.00000000  0.04113000  0.37212300  1
  O  O21  1  0.50000000  0.45887000  0.62787700  1
  O  O22  1  0.00000000  0.69604300  0.75000000  1
  O  O23  1  0.50000000  0.80395700  0.25000000  1
  O  O24  1  0.50000000  0.73556900  0.57739400  1
  O  O25  1  0.00000000  0.76443100  0.42260600  1
  O  O26  1  0.00000000  0.76443100  0.07739400  1
  O  O27  1  0.50000000  0.73556900  0.92260600  1
  O  O28  1  0.50000000  0.54113000  0.12787700  1
  O  O29  1  0.00000000  0.95887000  0.87212300  1
  O  O30  1  0.50000000  0.54113000  0.37212300  1
  O  O31  1  0.00000000  0.95887000  0.62787700  1
