# generated using pymatgen
data_Na2BeB2O5
_symmetry_space_group_name_H-M   'P 1'
_cell_length_a   5.90993400
_cell_length_b   8.16651800
_cell_length_c   9.12378215
_cell_angle_alpha   90.00000000
_cell_angle_beta   98.14844432
_cell_angle_gamma   90.00000000
_symmetry_Int_Tables_number   1
_chemical_formula_structural   Na2BeB2O5
_chemical_formula_sum   'Na8 Be4 B8 O20'
_cell_volume   435.90074916
_cell_formula_units_Z   4
loop_
 _symmetry_equiv_pos_site_id
 _symmetry_equiv_pos_as_xyz
  1  'x, y, z'
loop_
 _atom_site_type_symbol
 _atom_site_label
 _atom_site_symmetry_multiplicity
 _atom_site_fract_x
 _atom_site_fract_y
 _atom_site_fract_z
 _atom_site_occupancy
  Na  Na0  1  0.51046900  0.19495400  0.57154300  1
  Na  Na1  1  0.48953100  0.19495400  0.92845700  1
  Na  Na2  1  0.48953100  0.80504600  0.42845700  1
  Na  Na3  1  0.51046900  0.80504600  0.07154300  1
  Na  Na4  1  0.01046900  0.69495400  0.57154300  1
  Na  Na5  1  0.98953100  0.69495400  0.92845700  1
  Na  Na6  1  0.98953100  0.30504600  0.42845700  1
  Na  Na7  1  0.01046900  0.30504600  0.07154300  1
  Be  Be8  1  0.50000000  0.78925800  0.75000000  1
  Be  Be9  1  0.50000000  0.21074200  0.25000000  1
  Be  Be10  1  0.00000000  0.28925800  0.75000000  1
  Be  Be11  1  0.00000000  0.71074200  0.25000000  1
  B  B12  1  0.16627600  0.00587900  0.67826200  1
  B  B13  1  0.83372400  0.00587900  0.82173800  1
  B  B14  1  0.16627600  0.99412100  0.17826200  1
  B  B15  1  0.83372400  0.99412100  0.32173800  1
  B  B16  1  0.66627600  0.50587900  0.67826200  1
  B  B17  1  0.33372400  0.50587900  0.82173800  1
  B  B18  1  0.66627600  0.49412100  0.17826200  1
  B  B19  1  0.33372400  0.49412100  0.32173800  1
  O  O20  1  0.65221650  0.32914650  0.15617300  1
  O  O21  1  0.65221650  0.67085350  0.65617300  1
  O  O22  1  0.33471600  0.08967500  0.13301800  1
  O  O23  1  0.66528400  0.08967500  0.36698200  1
  O  O24  1  0.66528400  0.91032500  0.86698200  1
  O  O25  1  0.33471600  0.91032500  0.63301800  1
  O  O26  1  0.50000000  0.57566200  0.25000000  1
  O  O27  1  0.50000000  0.42433800  0.75000000  1
  O  O28  1  0.34778350  0.67085350  0.84382700  1
  O  O29  1  0.34778350  0.32914650  0.34382700  1
  O  O30  1  0.15221650  0.82914650  0.15617300  1
  O  O31  1  0.15221650  0.17085350  0.65617300  1
  O  O32  1  0.83471600  0.58967500  0.13301800  1
  O  O33  1  0.16528400  0.58967500  0.36698200  1
  O  O34  1  0.16528400  0.41032500  0.86698200  1
  O  O35  1  0.83471600  0.41032500  0.63301800  1
  O  O36  1  0.00000000  0.07566200  0.25000000  1
  O  O37  1  0.00000000  0.92433800  0.75000000  1
  O  O38  1  0.84778350  0.17085350  0.84382700  1
  O  O39  1  0.84778350  0.82914650  0.34382700  1
