# generated using pymatgen
data_Cl2
_symmetry_space_group_name_H-M   'P 1'
_cell_length_a   4.26362800
_cell_length_b   7.67351000
_cell_length_c   8.60152500
_cell_angle_alpha   90.00000000
_cell_angle_beta   90.00000000
_cell_angle_gamma   90.00000000
_symmetry_Int_Tables_number   1
_chemical_formula_structural   Cl2
_chemical_formula_sum   Cl8
_cell_volume   281.41602542
_cell_formula_units_Z   4
loop_
 _symmetry_equiv_pos_site_id
 _symmetry_equiv_pos_as_xyz
  1  'x, y, z'
loop_
 _atom_site_type_symbol
 _atom_site_label
 _atom_site_symmetry_multiplicity
 _atom_site_fract_x
 _atom_site_fract_y
 _atom_site_fract_z
 _atom_site_occupancy
  Cl  Cl0  1  0.40284400  0.00000000  0.10649200  1
  Cl  Cl1  1  0.59715600  0.00000000  0.89350800  1
  Cl  Cl2  1  0.09715600  0.00000000  0.60649200  1
  Cl  Cl3  1  0.90284400  0.00000000  0.39350800  1
  Cl  Cl4  1  0.90284400  0.50000000  0.10649200  1
  Cl  Cl5  1  0.09715600  0.50000000  0.89350800  1
  Cl  Cl6  1  0.59715600  0.50000000  0.60649200  1
  Cl  Cl7  1  0.40284400  0.50000000  0.39350800  1
