# generated using pymatgen
data_BiPO4
_symmetry_space_group_name_H-M   'P 1'
_cell_length_a   7.11644238
_cell_length_b   7.11644238
_cell_length_c   6.48114100
_cell_angle_alpha   90.00000000
_cell_angle_beta   90.00000000
_cell_angle_gamma   120.00000000
_symmetry_Int_Tables_number   1
_chemical_formula_structural   BiPO4
_chemical_formula_sum   'Bi3 P3 O12'
_cell_volume   284.25491104
_cell_formula_units_Z   3
loop_
 _symmetry_equiv_pos_site_id
 _symmetry_equiv_pos_as_xyz
  1  'x, y, z'
loop_
 _atom_site_type_symbol
 _atom_site_label
 _atom_site_symmetry_multiplicity
 _atom_site_fract_x
 _atom_site_fract_y
 _atom_site_fract_z
 _atom_site_occupancy
  Bi  Bi0  1  0.49012800  0.00000000  0.83333333  1
  Bi  Bi1  1  0.50987200  0.50987200  0.50000000  1
  Bi  Bi2  1  0.00000000  0.49012800  0.16666667  1
  P  P3  1  0.45974400  0.00000000  0.33333333  1
  P  P4  1  0.54025600  0.54025600  0.00000000  1
  P  P5  1  0.00000000  0.45974400  0.66666667  1
  O  O6  1  0.25997800  0.84779300  0.19889300  1
  O  O7  1  0.58781500  0.74002200  0.86555967  1
  O  O8  1  0.15220700  0.41218500  0.53222633  1
  O  O9  1  0.74002200  0.58781500  0.13444033  1
  O  O10  1  0.84779300  0.25997800  0.80110700  1
  O  O11  1  0.41218500  0.15220700  0.46777367  1
  O  O12  1  0.52136800  0.87624100  0.49256400  1
  O  O13  1  0.35487300  0.47863200  0.15923067  1
  O  O14  1  0.12375900  0.64512700  0.82589733  1
  O  O15  1  0.47863200  0.35487300  0.84076933  1
  O  O16  1  0.87624100  0.52136800  0.50743600  1
  O  O17  1  0.64512700  0.12375900  0.17410267  1
