# generated using pymatgen
data_KTb2CuS4
_symmetry_space_group_name_H-M   'P 1'
_cell_length_a   3.97219200
_cell_length_b   13.57832600
_cell_length_c   13.77138500
_cell_angle_alpha   90.00000000
_cell_angle_beta   90.00000000
_cell_angle_gamma   90.00000000
_symmetry_Int_Tables_number   1
_chemical_formula_structural   KTb2CuS4
_chemical_formula_sum   'K4 Tb8 Cu4 S16'
_cell_volume   742.76953660
_cell_formula_units_Z   4
loop_
 _symmetry_equiv_pos_site_id
 _symmetry_equiv_pos_as_xyz
  1  'x, y, z'
loop_
 _atom_site_type_symbol
 _atom_site_label
 _atom_site_symmetry_multiplicity
 _atom_site_fract_x
 _atom_site_fract_y
 _atom_site_fract_z
 _atom_site_occupancy
  K  K0  1  0.50000000  0.39078800  0.75000000  1
  K  K1  1  0.00000000  0.10921200  0.25000000  1
  K  K2  1  0.00000000  0.89078800  0.75000000  1
  K  K3  1  0.50000000  0.60921200  0.25000000  1
  Tb  Tb4  1  0.00000000  0.36573300  0.43689100  1
  Tb  Tb5  1  0.50000000  0.13426700  0.93689100  1
  Tb  Tb6  1  0.00000000  0.36573300  0.06310900  1
  Tb  Tb7  1  0.50000000  0.13426700  0.56310900  1
  Tb  Tb8  1  0.50000000  0.86573300  0.43689100  1
  Tb  Tb9  1  0.00000000  0.63426700  0.93689100  1
  Tb  Tb10  1  0.50000000  0.86573300  0.06310900  1
  Tb  Tb11  1  0.00000000  0.63426700  0.56310900  1
  Cu  Cu12  1  0.50000000  0.33744000  0.25000000  1
  Cu  Cu13  1  0.00000000  0.16256000  0.75000000  1
  Cu  Cu14  1  0.00000000  0.83744000  0.25000000  1
  Cu  Cu15  1  0.50000000  0.66256000  0.75000000  1
  S  S16  1  0.00000000  0.00000000  0.00000000  1
  S  S17  1  0.00000000  0.00000000  0.50000000  1
  S  S18  1  0.00000000  0.26263900  0.61148700  1
  S  S19  1  0.50000000  0.23736100  0.38851300  1
  S  S20  1  0.00000000  0.43091000  0.25000000  1
  S  S21  1  0.00000000  0.26263900  0.88851300  1
  S  S22  1  0.50000000  0.06909000  0.75000000  1
  S  S23  1  0.50000000  0.23736100  0.11148700  1
  S  S24  1  0.50000000  0.50000000  0.00000000  1
  S  S25  1  0.50000000  0.50000000  0.50000000  1
  S  S26  1  0.50000000  0.76263900  0.61148700  1
  S  S27  1  0.00000000  0.73736100  0.38851300  1
  S  S28  1  0.50000000  0.93091000  0.25000000  1
  S  S29  1  0.50000000  0.76263900  0.88851300  1
  S  S30  1  0.00000000  0.56909000  0.75000000  1
  S  S31  1  0.00000000  0.73736100  0.11148700  1
