# generated using pymatgen
data_CsTmCdTe3
_symmetry_space_group_name_H-M   'P 1'
_cell_length_a   4.51552800
_cell_length_b   17.37465400
_cell_length_c   11.81866500
_cell_angle_alpha   90.00000000
_cell_angle_beta   90.00000000
_cell_angle_gamma   90.00000000
_symmetry_Int_Tables_number   1
_chemical_formula_structural   CsTmCdTe3
_chemical_formula_sum   'Cs4 Tm4 Cd4 Te12'
_cell_volume   927.24206853
_cell_formula_units_Z   4
loop_
 _symmetry_equiv_pos_site_id
 _symmetry_equiv_pos_as_xyz
  1  'x, y, z'
loop_
 _atom_site_type_symbol
 _atom_site_label
 _atom_site_symmetry_multiplicity
 _atom_site_fract_x
 _atom_site_fract_y
 _atom_site_fract_z
 _atom_site_occupancy
  Cs  Cs0  1  0.00000000  0.24874300  0.75000000  1
  Cs  Cs1  1  0.50000000  0.25125700  0.25000000  1
  Cs  Cs2  1  0.50000000  0.74874300  0.75000000  1
  Cs  Cs3  1  0.00000000  0.75125700  0.25000000  1
  Tm  Tm4  1  0.00000000  0.00000000  0.00000000  1
  Tm  Tm5  1  0.00000000  0.00000000  0.50000000  1
  Tm  Tm6  1  0.50000000  0.50000000  0.00000000  1
  Tm  Tm7  1  0.50000000  0.50000000  0.50000000  1
  Cd  Cd8  1  0.00000000  0.46205100  0.25000000  1
  Cd  Cd9  1  0.50000000  0.03794900  0.75000000  1
  Cd  Cd10  1  0.50000000  0.96205100  0.25000000  1
  Cd  Cd11  1  0.00000000  0.53794900  0.75000000  1
  Te  Te12  1  0.00000000  0.38114400  0.45609500  1
  Te  Te13  1  0.50000000  0.11885600  0.54390500  1
  Te  Te14  1  0.50000000  0.43541500  0.75000000  1
  Te  Te15  1  0.00000000  0.06458500  0.25000000  1
  Te  Te16  1  0.00000000  0.38114400  0.04390500  1
  Te  Te17  1  0.50000000  0.11885600  0.95609500  1
  Te  Te18  1  0.50000000  0.88114400  0.45609500  1
  Te  Te19  1  0.00000000  0.61885600  0.54390500  1
  Te  Te20  1  0.00000000  0.93541500  0.75000000  1
  Te  Te21  1  0.50000000  0.56458500  0.25000000  1
  Te  Te22  1  0.50000000  0.88114400  0.04390500  1
  Te  Te23  1  0.00000000  0.61885600  0.95609500  1
