# generated using pymatgen
data_Ca(BeN)2
_symmetry_space_group_name_H-M   'P 1'
_cell_length_a   5.55761200
_cell_length_b   5.55761200
_cell_length_c   6.91335800
_cell_angle_alpha   90.00000000
_cell_angle_beta   90.00000000
_cell_angle_gamma   90.00000000
_symmetry_Int_Tables_number   1
_chemical_formula_structural   Ca(BeN)2
_chemical_formula_sum   'Ca4 Be8 N8'
_cell_volume   213.53324211
_cell_formula_units_Z   4
loop_
 _symmetry_equiv_pos_site_id
 _symmetry_equiv_pos_as_xyz
  1  'x, y, z'
loop_
 _atom_site_type_symbol
 _atom_site_label
 _atom_site_symmetry_multiplicity
 _atom_site_fract_x
 _atom_site_fract_y
 _atom_site_fract_z
 _atom_site_occupancy
  Ca  Ca0  1  0.00000000  0.00000000  0.75000000  1
  Ca  Ca1  1  0.00000000  0.00000000  0.25000000  1
  Ca  Ca2  1  0.50000000  0.50000000  0.25000000  1
  Ca  Ca3  1  0.50000000  0.50000000  0.75000000  1
  Be  Be4  1  0.62626700  0.12626700  0.00000000  1
  Be  Be5  1  0.37373300  0.12626700  0.50000000  1
  Be  Be6  1  0.87373300  0.37373300  0.50000000  1
  Be  Be7  1  0.12626700  0.37373300  0.00000000  1
  Be  Be8  1  0.12626700  0.62626700  0.50000000  1
  Be  Be9  1  0.87373300  0.62626700  0.00000000  1
  Be  Be10  1  0.37373300  0.87373300  0.00000000  1
  Be  Be11  1  0.62626700  0.87373300  0.50000000  1
  N  N12  1  0.33058000  0.16942000  0.00000000  1
  N  N13  1  0.16942000  0.66942000  0.00000000  1
  N  N14  1  0.33058000  0.83058000  0.50000000  1
  N  N15  1  0.16942000  0.33058000  0.50000000  1
  N  N16  1  0.83058000  0.66942000  0.50000000  1
  N  N17  1  0.66942000  0.16942000  0.50000000  1
  N  N18  1  0.83058000  0.33058000  0.00000000  1
  N  N19  1  0.66942000  0.83058000  0.00000000  1
