# generated using pymatgen
data_CsLi(B3O5)2
_symmetry_space_group_name_H-M   'P 1'
_cell_length_a   9.10653800
_cell_length_b   10.56614600
_cell_length_c   10.58921200
_cell_angle_alpha   90.00000000
_cell_angle_beta   90.00000000
_cell_angle_gamma   90.00000000
_symmetry_Int_Tables_number   1
_chemical_formula_structural   CsLi(B3O5)2
_chemical_formula_sum   'Cs4 Li4 B24 O40'
_cell_volume   1018.90467441
_cell_formula_units_Z   4
loop_
 _symmetry_equiv_pos_site_id
 _symmetry_equiv_pos_as_xyz
  1  'x, y, z'
loop_
 _atom_site_type_symbol
 _atom_site_label
 _atom_site_symmetry_multiplicity
 _atom_site_fract_x
 _atom_site_fract_y
 _atom_site_fract_z
 _atom_site_occupancy
  Cs  Cs0  1  0.37314600  0.50000000  0.25000000  1
  Cs  Cs1  1  0.62685400  0.00000000  0.25000000  1
  Cs  Cs2  1  0.87314600  0.00000000  0.75000000  1
  Cs  Cs3  1  0.12685400  0.50000000  0.75000000  1
  Li  Li4  1  0.87135500  0.50000000  0.25000000  1
  Li  Li5  1  0.12864500  0.00000000  0.25000000  1
  Li  Li6  1  0.37135500  0.00000000  0.75000000  1
  Li  Li7  1  0.62864500  0.50000000  0.75000000  1
  B  B8  1  0.31448050  0.23299150  0.60044950  1
  B  B9  1  0.18551950  0.23299150  0.39955050  1
  B  B10  1  0.81448050  0.26700850  0.39955050  1
  B  B11  1  0.18551950  0.76700850  0.10044950  1
  B  B12  1  0.00000000  0.25000000  0.22648300  1
  B  B13  1  0.50000000  0.25000000  0.77351700  1
  B  B14  1  0.75000000  0.47585200  0.50000000  1
  B  B15  1  0.25000000  0.02414800  0.50000000  1
  B  B16  1  0.06459650  0.14933650  0.01806650  1
  B  B17  1  0.43540350  0.14933650  0.98193350  1
  B  B18  1  0.56459650  0.35066350  0.98193350  1
  B  B19  1  0.43540350  0.85066350  0.51806650  1
  B  B20  1  0.81448050  0.73299150  0.10044950  1
  B  B21  1  0.68551950  0.73299150  0.89955050  1
  B  B22  1  0.31448050  0.76700850  0.89955050  1
  B  B23  1  0.68551950  0.26700850  0.60044950  1
  B  B24  1  0.50000000  0.75000000  0.72648300  1
  B  B25  1  0.00000000  0.75000000  0.27351700  1
  B  B26  1  0.25000000  0.97585200  0.00000000  1
  B  B27  1  0.75000000  0.52414800  0.00000000  1
  B  B28  1  0.56459650  0.64933650  0.51806650  1
  B  B29  1  0.93540350  0.64933650  0.48193350  1
  B  B30  1  0.06459650  0.85066350  0.48193350  1
  B  B31  1  0.93540350  0.35066350  0.01806650  1
  O  O32  1  0.13126650  0.05701250  0.94880450  1
  O  O33  1  0.36873350  0.05701250  0.05119550  1
  O  O34  1  0.13126650  0.94298750  0.55119550  1
  O  O35  1  0.36873350  0.94298750  0.44880450  1
  O  O36  1  0.80388000  0.39647600  0.39462300  1
  O  O37  1  0.19612000  0.89647600  0.10537700  1
  O  O38  1  0.30388000  0.10352400  0.60537700  1
  O  O39  1  0.19612000  0.10352400  0.39462300  1
  O  O40  1  0.11818550  0.30214250  0.30767150  1
  O  O41  1  0.88181450  0.80214250  0.19232850  1
  O  O42  1  0.11818550  0.69785750  0.19232850  1
  O  O43  1  0.88181450  0.19785750  0.30767150  1
  O  O44  1  0.94478800  0.64481300  0.35265200  1
  O  O45  1  0.05521200  0.14481300  0.14734800  1
  O  O46  1  0.94478800  0.35518700  0.14734800  1
  O  O47  1  0.55521200  0.35518700  0.85265200  1
  O  O48  1  0.50000000  0.75000000  0.45155300  1
  O  O49  1  0.50000000  0.25000000  0.04844700  1
  O  O50  1  0.25000000  0.29982700  0.50000000  1
  O  O51  1  0.25000000  0.70017300  0.00000000  1
  O  O52  1  0.63126650  0.55701250  0.44880450  1
  O  O53  1  0.86873350  0.55701250  0.55119550  1
  O  O54  1  0.63126650  0.44298750  0.05119550  1
  O  O55  1  0.86873350  0.44298750  0.94880450  1
  O  O56  1  0.30388000  0.89647600  0.89462300  1
  O  O57  1  0.69612000  0.39647600  0.60537700  1
  O  O58  1  0.80388000  0.60352400  0.10537700  1
  O  O59  1  0.69612000  0.60352400  0.89462300  1
  O  O60  1  0.61818550  0.80214250  0.80767150  1
  O  O61  1  0.38181450  0.30214250  0.69232850  1
  O  O62  1  0.61818550  0.19785750  0.69232850  1
  O  O63  1  0.38181450  0.69785750  0.80767150  1
  O  O64  1  0.44478800  0.14481300  0.85265200  1
  O  O65  1  0.55521200  0.64481300  0.64734800  1
  O  O66  1  0.44478800  0.85518700  0.64734800  1
  O  O67  1  0.05521200  0.85518700  0.35265200  1
  O  O68  1  0.00000000  0.25000000  0.95155300  1
  O  O69  1  0.00000000  0.75000000  0.54844700  1
  O  O70  1  0.75000000  0.79982700  0.00000000  1
  O  O71  1  0.75000000  0.20017300  0.50000000  1
