# generated using pymatgen
data_SrC2(SN)2
_symmetry_space_group_name_H-M   'P 1'
_cell_length_a   10.31444400
_cell_length_b   6.60752200
_cell_length_c   8.23792559
_cell_angle_alpha   90.00000000
_cell_angle_beta   91.06518964
_cell_angle_gamma   90.00000000
_symmetry_Int_Tables_number   1
_chemical_formula_structural   SrC2(SN)2
_chemical_formula_sum   'Sr4 C8 S8 N8'
_cell_volume   561.34162604
_cell_formula_units_Z   4
loop_
 _symmetry_equiv_pos_site_id
 _symmetry_equiv_pos_as_xyz
  1  'x, y, z'
loop_
 _atom_site_type_symbol
 _atom_site_label
 _atom_site_symmetry_multiplicity
 _atom_site_fract_x
 _atom_site_fract_y
 _atom_site_fract_z
 _atom_site_occupancy
  Sr  Sr0  1  0.50000000  0.59402800  0.75000000  1
  Sr  Sr1  1  0.50000000  0.40597200  0.25000000  1
  Sr  Sr2  1  0.00000000  0.09402800  0.75000000  1
  Sr  Sr3  1  0.00000000  0.90597200  0.25000000  1
  C  C4  1  0.61924150  0.85976450  0.10363500  1
  C  C5  1  0.61924150  0.14023550  0.60363500  1
  C  C6  1  0.38075850  0.14023550  0.89636500  1
  C  C7  1  0.38075850  0.85976450  0.39636500  1
  C  C8  1  0.11924150  0.35976450  0.10363500  1
  C  C9  1  0.11924150  0.64023550  0.60363500  1
  C  C10  1  0.88075850  0.64023550  0.89636500  1
  C  C11  1  0.88075850  0.35976450  0.39636500  1
  S  S12  1  0.29918750  0.94857650  0.82564600  1
  S  S13  1  0.70081250  0.94857650  0.67435400  1
  S  S14  1  0.70081250  0.05142350  0.17435400  1
  S  S15  1  0.29918750  0.05142350  0.32564600  1
  S  S16  1  0.79918750  0.44857650  0.82564600  1
  S  S17  1  0.20081250  0.44857650  0.67435400  1
  S  S18  1  0.20081250  0.55142350  0.17435400  1
  S  S19  1  0.79918750  0.55142350  0.32564600  1
  N  N20  1  0.56067300  0.71683200  0.05317000  1
  N  N21  1  0.56067300  0.28316800  0.55317000  1
  N  N22  1  0.43932700  0.71683200  0.44683000  1
  N  N23  1  0.43932700  0.28316800  0.94683000  1
  N  N24  1  0.06067300  0.21683200  0.05317000  1
  N  N25  1  0.06067300  0.78316800  0.55317000  1
  N  N26  1  0.93932700  0.21683200  0.44683000  1
  N  N27  1  0.93932700  0.78316800  0.94683000  1
