# generated using pymatgen
data_KGaTe2
_symmetry_space_group_name_H-M   'P 1'
_cell_length_a   11.98026600
_cell_length_b   11.98136000
_cell_length_c   16.91836014
_cell_angle_alpha   90.00000000
_cell_angle_beta   100.14450030
_cell_angle_gamma   90.00000000
_symmetry_Int_Tables_number   1
_chemical_formula_structural   KGaTe2
_chemical_formula_sum   'K16 Ga16 Te32'
_cell_volume   2390.49449870
_cell_formula_units_Z   16
loop_
 _symmetry_equiv_pos_site_id
 _symmetry_equiv_pos_as_xyz
  1  'x, y, z'
loop_
 _atom_site_type_symbol
 _atom_site_label
 _atom_site_symmetry_multiplicity
 _atom_site_fract_x
 _atom_site_fract_y
 _atom_site_fract_z
 _atom_site_occupancy
  K  K0  1  0.28319200  0.93755500  0.38147400  1
  K  K1  1  0.71680800  0.93755500  0.11852600  1
  K  K2  1  0.71680800  0.06244500  0.61852600  1
  K  K3  1  0.28319200  0.06244500  0.88147400  1
  K  K4  1  0.46461000  0.68608900  0.10731400  1
  K  K5  1  0.53539000  0.68608900  0.39268600  1
  K  K6  1  0.53539000  0.31391100  0.89268600  1
  K  K7  1  0.46461000  0.31391100  0.60731400  1
  K  K8  1  0.78319200  0.43755500  0.38147400  1
  K  K9  1  0.21680800  0.43755500  0.11852600  1
  K  K10  1  0.21680800  0.56244500  0.61852600  1
  K  K11  1  0.78319200  0.56244500  0.88147400  1
  K  K12  1  0.96461000  0.18608900  0.10731400  1
  K  K13  1  0.03539000  0.18608900  0.39268600  1
  K  K14  1  0.03539000  0.81391100  0.89268600  1
  K  K15  1  0.96461000  0.81391100  0.60731400  1
  Ga  Ga16  1  0.64559700  0.06363700  0.33633100  1
  Ga  Ga17  1  0.35440300  0.06363700  0.16366900  1
  Ga  Ga18  1  0.35440300  0.93636300  0.66366900  1
  Ga  Ga19  1  0.64559700  0.93636300  0.83633100  1
  Ga  Ga20  1  0.60195950  0.31127150  0.16267200  1
  Ga  Ga21  1  0.39804050  0.31127150  0.33732800  1
  Ga  Ga22  1  0.39804050  0.68872850  0.83732800  1
  Ga  Ga23  1  0.60195950  0.68872850  0.66267200  1
  Ga  Ga24  1  0.14559700  0.56363700  0.33633100  1
  Ga  Ga25  1  0.85440300  0.56363700  0.16366900  1
  Ga  Ga26  1  0.85440300  0.43636300  0.66366900  1
  Ga  Ga27  1  0.14559700  0.43636300  0.83633100  1
  Ga  Ga28  1  0.10195950  0.81127150  0.16267200  1
  Ga  Ga29  1  0.89804050  0.81127150  0.33732800  1
  Ga  Ga30  1  0.89804050  0.18872850  0.83732800  1
  Ga  Ga31  1  0.10195950  0.18872850  0.66267200  1
  Te  Te32  1  0.54632350  0.18658350  0.43493800  1
  Te  Te33  1  0.45367650  0.18658350  0.06506200  1
  Te  Te34  1  0.45367650  0.81341650  0.56506200  1
  Te  Te35  1  0.54632350  0.81341650  0.93493800  1
  Te  Te36  1  0.76145900  0.18759400  0.24951500  1
  Te  Te37  1  0.23854100  0.18759400  0.25048500  1
  Te  Te38  1  0.23854100  0.81240600  0.75048500  1
  Te  Te39  1  0.76145900  0.81240600  0.74951500  1
  Te  Te40  1  0.20397800  0.93870700  0.06688400  1
  Te  Te41  1  0.79602200  0.93870700  0.43311600  1
  Te  Te42  1  0.79602200  0.06129300  0.93311600  1
  Te  Te43  1  0.20397800  0.06129300  0.56688400  1
  Te  Te44  1  0.50000000  0.44847100  0.25000000  1
  Te  Te45  1  0.50000000  0.55152900  0.75000000  1
  Te  Te46  1  0.50000000  0.92563900  0.25000000  1
  Te  Te47  1  0.50000000  0.07436100  0.75000000  1
  Te  Te48  1  0.04632350  0.68658350  0.43493800  1
  Te  Te49  1  0.95367650  0.68658350  0.06506200  1
  Te  Te50  1  0.95367650  0.31341650  0.56506200  1
  Te  Te51  1  0.04632350  0.31341650  0.93493800  1
  Te  Te52  1  0.26145900  0.68759400  0.24951500  1
  Te  Te53  1  0.73854100  0.68759400  0.25048500  1
  Te  Te54  1  0.73854100  0.31240600  0.75048500  1
  Te  Te55  1  0.26145900  0.31240600  0.74951500  1
  Te  Te56  1  0.70397800  0.43870700  0.06688400  1
  Te  Te57  1  0.29602200  0.43870700  0.43311600  1
  Te  Te58  1  0.29602200  0.56129300  0.93311600  1
  Te  Te59  1  0.70397800  0.56129300  0.56688400  1
  Te  Te60  1  0.00000000  0.94847100  0.25000000  1
  Te  Te61  1  0.00000000  0.05152900  0.75000000  1
  Te  Te62  1  0.00000000  0.42563900  0.25000000  1
  Te  Te63  1  0.00000000  0.57436100  0.75000000  1
