# generated using pymatgen
data_SrGe(PO4)2
_symmetry_space_group_name_H-M   'P 1'
_cell_length_a   16.54171600
_cell_length_b   5.13223800
_cell_length_c   8.02109671
_cell_angle_alpha   90.00000000
_cell_angle_beta   115.72439921
_cell_angle_gamma   90.00000000
_symmetry_Int_Tables_number   1
_chemical_formula_structural   SrGe(PO4)2
_chemical_formula_sum   'Sr4 Ge4 P8 O32'
_cell_volume   613.47089041
_cell_formula_units_Z   4
loop_
 _symmetry_equiv_pos_site_id
 _symmetry_equiv_pos_as_xyz
  1  'x, y, z'
loop_
 _atom_site_type_symbol
 _atom_site_label
 _atom_site_symmetry_multiplicity
 _atom_site_fract_x
 _atom_site_fract_y
 _atom_site_fract_z
 _atom_site_occupancy
  Sr  Sr0  1  0.00000000  0.19737300  0.75000000  1
  Sr  Sr1  1  0.00000000  0.80262700  0.25000000  1
  Sr  Sr2  1  0.50000000  0.69737300  0.75000000  1
  Sr  Sr3  1  0.50000000  0.30262700  0.25000000  1
  Ge  Ge4  1  0.25000000  0.25000000  0.00000000  1
  Ge  Ge5  1  0.25000000  0.75000000  0.50000000  1
  Ge  Ge6  1  0.75000000  0.75000000  0.00000000  1
  Ge  Ge7  1  0.75000000  0.25000000  0.50000000  1
  P  P8  1  0.35313100  0.75744000  0.24044900  1
  P  P9  1  0.14686900  0.25744000  0.25955100  1
  P  P10  1  0.14686900  0.74256000  0.75955100  1
  P  P11  1  0.35313100  0.24256000  0.74044900  1
  P  P12  1  0.85313100  0.25744000  0.24044900  1
  P  P13  1  0.64686900  0.75744000  0.25955100  1
  P  P14  1  0.64686900  0.24256000  0.75955100  1
  P  P15  1  0.85313100  0.74256000  0.74044900  1
  O  O16  1  0.33656200  0.52457400  0.10167800  1
  O  O17  1  0.16343800  0.02457400  0.39832200  1
  O  O18  1  0.16343800  0.97542600  0.89832200  1
  O  O19  1  0.33656200  0.47542600  0.60167800  1
  O  O20  1  0.34919750  0.01894750  0.13417300  1
  O  O21  1  0.15080250  0.51894750  0.36582700  1
  O  O22  1  0.15080250  0.48105250  0.86582700  1
  O  O23  1  0.34919750  0.98105250  0.63417300  1
  O  O24  1  0.27617800  0.76315000  0.29847100  1
  O  O25  1  0.22382200  0.26315000  0.20152900  1
  O  O26  1  0.22382200  0.73685000  0.70152900  1
  O  O27  1  0.27617800  0.23685000  0.79847100  1
  O  O28  1  0.44783250  0.72748250  0.39320400  1
  O  O29  1  0.05216750  0.22748250  0.10679600  1
  O  O30  1  0.05216750  0.77251750  0.60679600  1
  O  O31  1  0.44783250  0.27251750  0.89320400  1
  O  O32  1  0.83656200  0.02457400  0.10167800  1
  O  O33  1  0.66343800  0.52457400  0.39832200  1
  O  O34  1  0.66343800  0.47542600  0.89832200  1
  O  O35  1  0.83656200  0.97542600  0.60167800  1
  O  O36  1  0.84919750  0.51894750  0.13417300  1
  O  O37  1  0.65080250  0.01894750  0.36582700  1
  O  O38  1  0.65080250  0.98105250  0.86582700  1
  O  O39  1  0.84919750  0.48105250  0.63417300  1
  O  O40  1  0.77617800  0.26315000  0.29847100  1
  O  O41  1  0.72382200  0.76315000  0.20152900  1
  O  O42  1  0.72382200  0.23685000  0.70152900  1
  O  O43  1  0.77617800  0.73685000  0.79847100  1
  O  O44  1  0.94783250  0.22748250  0.39320400  1
  O  O45  1  0.55216750  0.72748250  0.10679600  1
  O  O46  1  0.55216750  0.27251750  0.60679600  1
  O  O47  1  0.94783250  0.77251750  0.89320400  1
