# generated using pymatgen
data_SrCN2
_symmetry_space_group_name_H-M   'P 1'
_cell_length_a   4.00736949
_cell_length_b   4.00736949
_cell_length_c   15.18259445
_cell_angle_alpha   90.00000000
_cell_angle_beta   90.00000000
_cell_angle_gamma   120.00000000
_symmetry_Int_Tables_number   1
_chemical_formula_structural   SrCN2
_chemical_formula_sum   'Sr3 C3 N6'
_cell_volume   211.15209699
_cell_formula_units_Z   3
loop_
 _symmetry_equiv_pos_site_id
 _symmetry_equiv_pos_as_xyz
  1  'x, y, z'
loop_
 _atom_site_type_symbol
 _atom_site_label
 _atom_site_symmetry_multiplicity
 _atom_site_fract_x
 _atom_site_fract_y
 _atom_site_fract_z
 _atom_site_occupancy
  Sr  Sr0  1  0.33333333  0.66666667  0.16666667  1
  Sr  Sr1  1  1.00000000  1.00000000  0.50000000  1
  Sr  Sr2  1  0.66666667  0.33333333  0.83333333  1
  C  C3  1  0.00000000  0.00000000  0.00000000  1
  C  C4  1  0.66666667  0.33333333  0.33333333  1
  C  C5  1  0.33333333  0.66666667  0.66666667  1
  N  N6  1  0.66666667  0.33333333  0.25170733  1
  N  N7  1  0.00000000  0.00000000  0.08162600  1
  N  N8  1  0.33333333  0.66666667  0.58504067  1
  N  N9  1  0.66666667  0.33333333  0.41495933  1
  N  N10  1  0.00000000  0.00000000  0.91837400  1
  N  N11  1  0.33333333  0.66666667  0.74829267  1
