# generated using pymatgen
data_Mn2Al4Si5O18
_symmetry_space_group_name_H-M   'P 1'
_cell_length_a   9.99842800
_cell_length_b   17.61228400
_cell_length_c   9.39429400
_cell_angle_alpha   90.00000000
_cell_angle_beta   90.00000000
_cell_angle_gamma   90.00000000
_symmetry_Int_Tables_number   1
_chemical_formula_structural   Mn2Al4Si5O18
_chemical_formula_sum   'Mn8 Al16 Si20 O72'
_cell_volume   1654.28964386
_cell_formula_units_Z   4
loop_
 _symmetry_equiv_pos_site_id
 _symmetry_equiv_pos_as_xyz
  1  'x, y, z'
loop_
 _atom_site_type_symbol
 _atom_site_label
 _atom_site_symmetry_multiplicity
 _atom_site_fract_x
 _atom_site_fract_y
 _atom_site_fract_z
 _atom_site_occupancy
  Mn  Mn0  1  0.50000000  0.33712600  0.25000000  1
  Mn  Mn1  1  0.00000000  0.16287400  0.25000000  1
  Mn  Mn2  1  0.00000000  0.16287400  0.75000000  1
  Mn  Mn3  1  0.50000000  0.33712600  0.75000000  1
  Mn  Mn4  1  0.00000000  0.83712600  0.25000000  1
  Mn  Mn5  1  0.50000000  0.66287400  0.25000000  1
  Mn  Mn6  1  0.50000000  0.66287400  0.75000000  1
  Mn  Mn7  1  0.00000000  0.83712600  0.75000000  1
  Al  Al8  1  0.80552900  0.04730900  0.00000000  1
  Al  Al9  1  0.69447100  0.45269100  0.00000000  1
  Al  Al10  1  0.30552900  0.45269100  0.50000000  1
  Al  Al11  1  0.19447100  0.04730900  0.50000000  1
  Al  Al12  1  0.25000000  0.25000000  0.24992300  1
  Al  Al13  1  0.75000000  0.25000000  0.25007700  1
  Al  Al14  1  0.25000000  0.25000000  0.75007700  1
  Al  Al15  1  0.75000000  0.25000000  0.74992300  1
  Al  Al16  1  0.30552900  0.54730900  0.00000000  1
  Al  Al17  1  0.19447100  0.95269100  0.00000000  1
  Al  Al18  1  0.80552900  0.95269100  0.50000000  1
  Al  Al19  1  0.69447100  0.54730900  0.50000000  1
  Al  Al20  1  0.75000000  0.75000000  0.24992300  1
  Al  Al21  1  0.25000000  0.75000000  0.25007700  1
  Al  Al22  1  0.75000000  0.75000000  0.75007700  1
  Al  Al23  1  0.25000000  0.75000000  0.74992300  1
  Si  Si24  1  0.73046700  0.13495400  0.50000000  1
  Si  Si25  1  0.91809150  0.31205750  0.00000000  1
  Si  Si26  1  0.08190850  0.31205750  0.50000000  1
  Si  Si27  1  0.76953300  0.36504600  0.50000000  1
  Si  Si28  1  0.00000000  0.00000000  0.25000000  1
  Si  Si29  1  0.00000000  0.00000000  0.75000000  1
  Si  Si30  1  0.23046700  0.36504600  0.00000000  1
  Si  Si31  1  0.26953300  0.13495400  0.00000000  1
  Si  Si32  1  0.58190850  0.18794250  0.00000000  1
  Si  Si33  1  0.41809150  0.18794250  0.50000000  1
  Si  Si34  1  0.23046700  0.63495400  0.50000000  1
  Si  Si35  1  0.41809150  0.81205750  0.00000000  1
  Si  Si36  1  0.58190850  0.81205750  0.50000000  1
  Si  Si37  1  0.26953300  0.86504600  0.50000000  1
  Si  Si38  1  0.50000000  0.50000000  0.25000000  1
  Si  Si39  1  0.50000000  0.50000000  0.75000000  1
  Si  Si40  1  0.73046700  0.86504600  0.00000000  1
  Si  Si41  1  0.76953300  0.63495400  0.00000000  1
  Si  Si42  1  0.08190850  0.68794250  0.00000000  1
  Si  Si43  1  0.91809150  0.68794250  0.50000000  1
  O  O44  1  0.42615200  0.16148400  0.00000000  1
  O  O45  1  0.07384800  0.33851600  0.00000000  1
  O  O46  1  0.92615200  0.33851600  0.50000000  1
  O  O47  1  0.57384800  0.16148400  0.50000000  1
  O  O48  1  0.68603550  0.11858350  0.00000000  1
  O  O49  1  0.81396450  0.38141650  0.00000000  1
  O  O50  1  0.18603550  0.38141650  0.50000000  1
  O  O51  1  0.31396450  0.11858350  0.50000000  1
  O  O52  1  0.25321000  0.04493000  0.00000000  1
  O  O53  1  0.24679000  0.45507000  0.00000000  1
  O  O54  1  0.75321000  0.45507000  0.50000000  1
  O  O55  1  0.74679000  0.04493000  0.50000000  1
  O  O56  1  0.80214300  0.17348400  0.35820400  1
  O  O57  1  0.69785700  0.32651600  0.35820400  1
  O  O58  1  0.30214300  0.32651600  0.14179600  1
  O  O59  1  0.19785700  0.17348400  0.14179600  1
  O  O60  1  0.69785700  0.32651600  0.64179600  1
  O  O61  1  0.80214300  0.17348400  0.64179600  1
  O  O62  1  0.19785700  0.17348400  0.85820400  1
  O  O63  1  0.30214300  0.32651600  0.85820400  1
  O  O64  1  0.41380300  0.44059000  0.34925000  1
  O  O65  1  0.08619700  0.05941000  0.34925000  1
  O  O66  1  0.60626350  0.24241250  0.85849700  1
  O  O67  1  0.89373650  0.25758750  0.85849700  1
  O  O68  1  0.10626350  0.25758750  0.64150300  1
  O  O69  1  0.39373650  0.24241250  0.64150300  1
  O  O70  1  0.89373650  0.25758750  0.14150300  1
  O  O71  1  0.60626350  0.24241250  0.14150300  1
  O  O72  1  0.39373650  0.24241250  0.35849700  1
  O  O73  1  0.91380300  0.05941000  0.15075000  1
  O  O74  1  0.91380300  0.05941000  0.84925000  1
  O  O75  1  0.58619700  0.44059000  0.84925000  1
  O  O76  1  0.41380300  0.44059000  0.65075000  1
  O  O77  1  0.08619700  0.05941000  0.65075000  1
  O  O78  1  0.58619700  0.44059000  0.15075000  1
  O  O79  1  0.10626350  0.25758750  0.35849700  1
  O  O80  1  0.92615200  0.66148400  0.00000000  1
  O  O81  1  0.57384800  0.83851600  0.00000000  1
  O  O82  1  0.42615200  0.83851600  0.50000000  1
  O  O83  1  0.07384800  0.66148400  0.50000000  1
  O  O84  1  0.18603550  0.61858350  0.00000000  1
  O  O85  1  0.31396450  0.88141650  0.00000000  1
  O  O86  1  0.68603550  0.88141650  0.50000000  1
  O  O87  1  0.81396450  0.61858350  0.50000000  1
  O  O88  1  0.75321000  0.54493000  0.00000000  1
  O  O89  1  0.74679000  0.95507000  0.00000000  1
  O  O90  1  0.25321000  0.95507000  0.50000000  1
  O  O91  1  0.24679000  0.54493000  0.50000000  1
  O  O92  1  0.30214300  0.67348400  0.35820400  1
  O  O93  1  0.19785700  0.82651600  0.35820400  1
  O  O94  1  0.80214300  0.82651600  0.14179600  1
  O  O95  1  0.69785700  0.67348400  0.14179600  1
  O  O96  1  0.19785700  0.82651600  0.64179600  1
  O  O97  1  0.30214300  0.67348400  0.64179600  1
  O  O98  1  0.69785700  0.67348400  0.85820400  1
  O  O99  1  0.80214300  0.82651600  0.85820400  1
  O  O100  1  0.91380300  0.94059000  0.34925000  1
  O  O101  1  0.58619700  0.55941000  0.34925000  1
  O  O102  1  0.10626350  0.74241250  0.85849700  1
  O  O103  1  0.39373650  0.75758750  0.85849700  1
  O  O104  1  0.60626350  0.75758750  0.64150300  1
  O  O105  1  0.89373650  0.74241250  0.64150300  1
  O  O106  1  0.39373650  0.75758750  0.14150300  1
  O  O107  1  0.10626350  0.74241250  0.14150300  1
  O  O108  1  0.89373650  0.74241250  0.35849700  1
  O  O109  1  0.41380300  0.55941000  0.15075000  1
  O  O110  1  0.41380300  0.55941000  0.84925000  1
  O  O111  1  0.08619700  0.94059000  0.84925000  1
  O  O112  1  0.91380300  0.94059000  0.65075000  1
  O  O113  1  0.58619700  0.55941000  0.65075000  1
  O  O114  1  0.08619700  0.94059000  0.15075000  1
  O  O115  1  0.60626350  0.75758750  0.35849700  1
