# generated using pymatgen
data_SiP2O7
_symmetry_space_group_name_H-M   'P 1'
_cell_length_a   4.80548100
_cell_length_b   12.19357000
_cell_length_c   9.05371671
_cell_angle_alpha   90.00000000
_cell_angle_beta   120.92743968
_cell_angle_gamma   90.00000000
_symmetry_Int_Tables_number   1
_chemical_formula_structural   SiP2O7
_chemical_formula_sum   'Si4 P8 O28'
_cell_volume   455.08260451
_cell_formula_units_Z   4
loop_
 _symmetry_equiv_pos_site_id
 _symmetry_equiv_pos_as_xyz
  1  'x, y, z'
loop_
 _atom_site_type_symbol
 _atom_site_label
 _atom_site_symmetry_multiplicity
 _atom_site_fract_x
 _atom_site_fract_y
 _atom_site_fract_z
 _atom_site_occupancy
  Si  Si0  1  0.61953800  0.64797300  0.84590900  1
  Si  Si1  1  0.38046200  0.14797300  0.65409100  1
  Si  Si2  1  0.38046200  0.35202700  0.15409100  1
  Si  Si3  1  0.61953800  0.85202700  0.34590900  1
  P  P4  1  0.22040000  0.80060400  0.94784500  1
  P  P5  1  0.77960000  0.30060400  0.55215500  1
  P  P6  1  0.77960000  0.19939600  0.05215500  1
  P  P7  1  0.22040000  0.69939600  0.44784500  1
  P  P8  1  0.90247200  0.98101300  0.69670000  1
  P  P9  1  0.09752800  0.48101300  0.80330000  1
  P  P10  1  0.09752800  0.01898700  0.30330000  1
  P  P11  1  0.90247200  0.51898700  0.19670000  1
  O  O12  1  0.32279300  0.73513600  0.84062100  1
  O  O13  1  0.67720700  0.23513600  0.65937900  1
  O  O14  1  0.67720700  0.26486400  0.15937900  1
  O  O15  1  0.32279300  0.76486400  0.34062100  1
  O  O16  1  0.90298500  0.75967500  0.92786000  1
  O  O17  1  0.09701500  0.25967500  0.57214000  1
  O  O18  1  0.09701500  0.24032500  0.07214000  1
  O  O19  1  0.90298500  0.74032500  0.42786000  1
  O  O20  1  0.49593500  0.81204600  0.13289900  1
  O  O21  1  0.50406500  0.31204600  0.36710100  1
  O  O22  1  0.50406500  0.18795400  0.86710100  1
  O  O23  1  0.49593500  0.68795400  0.63289900  1
  O  O24  1  0.15947200  0.57612100  0.37408400  1
  O  O25  1  0.84052800  0.07612100  0.12591600  1
  O  O26  1  0.84052800  0.42387900  0.62591600  1
  O  O27  1  0.15947200  0.92387900  0.87408400  1
  O  O28  1  0.66404900  0.46352200  0.23713500  1
  O  O29  1  0.33595100  0.96352200  0.26286500  1
  O  O30  1  0.33595100  0.53647800  0.76286500  1
  O  O31  1  0.66404900  0.03647800  0.73713500  1
  O  O32  1  0.08247100  0.43804000  0.14982100  1
  O  O33  1  0.91752900  0.93804000  0.35017900  1
  O  O34  1  0.91752900  0.56196000  0.85017900  1
  O  O35  1  0.08247100  0.06196000  0.64982100  1
  O  O36  1  0.74213100  0.60942700  0.06210800  1
  O  O37  1  0.25786900  0.10942700  0.43789200  1
  O  O38  1  0.25786900  0.39057300  0.93789200  1
  O  O39  1  0.74213100  0.89057300  0.56210800  1
