# generated using pymatgen
data_Co2Te3O8
_symmetry_space_group_name_H-M   'P 1'
_cell_length_a   12.88590200
_cell_length_b   5.23147400
_cell_length_c   11.67665962
_cell_angle_alpha   90.00000000
_cell_angle_beta   98.99986089
_cell_angle_gamma   90.00000000
_symmetry_Int_Tables_number   1
_chemical_formula_structural   Co2Te3O8
_chemical_formula_sum   'Co8 Te12 O32'
_cell_volume   777.45920517
_cell_formula_units_Z   4
loop_
 _symmetry_equiv_pos_site_id
 _symmetry_equiv_pos_as_xyz
  1  'x, y, z'
loop_
 _atom_site_type_symbol
 _atom_site_label
 _atom_site_symmetry_multiplicity
 _atom_site_fract_x
 _atom_site_fract_y
 _atom_site_fract_z
 _atom_site_occupancy
  Co  Co0  1  0.72965800  0.70121300  0.84936000  1
  Co  Co1  1  0.77034200  0.20121300  0.65064000  1
  Co  Co2  1  0.77034200  0.79878700  0.15064000  1
  Co  Co3  1  0.72965800  0.29878700  0.34936000  1
  Co  Co4  1  0.22965800  0.20121300  0.84936000  1
  Co  Co5  1  0.27034200  0.70121300  0.65064000  1
  Co  Co6  1  0.27034200  0.29878700  0.15064000  1
  Co  Co7  1  0.22965800  0.79878700  0.34936000  1
  Te  Te8  1  0.00000000  0.15296800  0.25000000  1
  Te  Te9  1  0.00000000  0.84703200  0.75000000  1
  Te  Te10  1  0.63539500  0.69490800  0.55309500  1
  Te  Te11  1  0.86460500  0.19490800  0.94690500  1
  Te  Te12  1  0.86460500  0.80509200  0.44690500  1
  Te  Te13  1  0.63539500  0.30509200  0.05309500  1
  Te  Te14  1  0.50000000  0.65296800  0.25000000  1
  Te  Te15  1  0.50000000  0.34703200  0.75000000  1
  Te  Te16  1  0.13539500  0.19490800  0.55309500  1
  Te  Te17  1  0.36460500  0.69490800  0.94690500  1
  Te  Te18  1  0.36460500  0.30509200  0.44690500  1
  Te  Te19  1  0.13539500  0.80509200  0.05309500  1
  O  O20  1  0.76292850  0.49140250  0.03108100  1
  O  O21  1  0.73707150  0.99140250  0.46891900  1
  O  O22  1  0.73707150  0.00859750  0.96891900  1
  O  O23  1  0.76292850  0.50859750  0.53108100  1
  O  O24  1  0.69625650  0.12672950  0.19174600  1
  O  O25  1  0.80374350  0.62672950  0.30825400  1
  O  O26  1  0.80374350  0.37327050  0.80825400  1
  O  O27  1  0.69625650  0.87327050  0.69174600  1
  O  O28  1  0.61235900  0.62389400  0.13687900  1
  O  O29  1  0.88764100  0.12389400  0.36312100  1
  O  O30  1  0.58264700  0.57165600  0.85753000  1
  O  O31  1  0.91735300  0.07165600  0.64247000  1
  O  O32  1  0.91735300  0.92834400  0.14247000  1
  O  O33  1  0.58264700  0.42834400  0.35753000  1
  O  O34  1  0.61235900  0.37610600  0.63687900  1
  O  O35  1  0.88764100  0.87610600  0.86312100  1
  O  O36  1  0.26292850  0.99140250  0.03108100  1
  O  O37  1  0.23707150  0.49140250  0.46891900  1
  O  O38  1  0.23707150  0.50859750  0.96891900  1
  O  O39  1  0.26292850  0.00859750  0.53108100  1
  O  O40  1  0.19625650  0.62672950  0.19174600  1
  O  O41  1  0.30374350  0.12672950  0.30825400  1
  O  O42  1  0.30374350  0.87327050  0.80825400  1
  O  O43  1  0.19625650  0.37327050  0.69174600  1
  O  O44  1  0.11235900  0.12389400  0.13687900  1
  O  O45  1  0.38764100  0.62389400  0.36312100  1
  O  O46  1  0.08264700  0.07165600  0.85753000  1
  O  O47  1  0.41735300  0.57165600  0.64247000  1
  O  O48  1  0.41735300  0.42834400  0.14247000  1
  O  O49  1  0.08264700  0.92834400  0.35753000  1
  O  O50  1  0.11235900  0.87610600  0.63687900  1
  O  O51  1  0.38764100  0.37610600  0.86312100  1
