# generated using pymatgen
data_HoPS4
_symmetry_space_group_name_H-M   'P 1'
_cell_length_a   10.77405400
_cell_length_b   10.77405400
_cell_length_c   19.05702800
_cell_angle_alpha   90.00000000
_cell_angle_beta   90.00000000
_cell_angle_gamma   90.00000000
_symmetry_Int_Tables_number   1
_chemical_formula_structural   HoPS4
_chemical_formula_sum   'Ho16 P16 S64'
_cell_volume   2212.14437621
_cell_formula_units_Z   16
loop_
 _symmetry_equiv_pos_site_id
 _symmetry_equiv_pos_as_xyz
  1  'x, y, z'
loop_
 _atom_site_type_symbol
 _atom_site_label
 _atom_site_symmetry_multiplicity
 _atom_site_fract_x
 _atom_site_fract_y
 _atom_site_fract_z
 _atom_site_occupancy
  Ho  Ho0  1  0.00000000  0.00000000  0.00000000  1
  Ho  Ho1  1  0.00000000  0.50000000  0.25000000  1
  Ho  Ho2  1  0.50000000  0.00000000  0.25000000  1
  Ho  Ho3  1  0.50000000  0.50000000  0.00000000  1
  Ho  Ho4  1  0.50000000  0.50000000  0.25000000  1
  Ho  Ho5  1  0.00000000  0.50000000  0.00000000  1
  Ho  Ho6  1  0.50000000  0.00000000  0.00000000  1
  Ho  Ho7  1  0.00000000  0.00000000  0.25000000  1
  Ho  Ho8  1  0.50000000  0.50000000  0.50000000  1
  Ho  Ho9  1  0.50000000  0.00000000  0.75000000  1
  Ho  Ho10  1  0.00000000  0.50000000  0.75000000  1
  Ho  Ho11  1  0.00000000  0.00000000  0.50000000  1
  Ho  Ho12  1  0.00000000  0.00000000  0.75000000  1
  Ho  Ho13  1  0.50000000  0.00000000  0.50000000  1
  Ho  Ho14  1  0.00000000  0.50000000  0.50000000  1
  Ho  Ho15  1  0.50000000  0.50000000  0.75000000  1
  P  P16  1  0.03807400  0.75000000  0.37500000  1
  P  P17  1  0.53807400  0.75000000  0.37500000  1
  P  P18  1  0.75000000  0.53807400  0.12500000  1
  P  P19  1  0.25000000  0.46192600  0.12500000  1
  P  P20  1  0.46192600  0.25000000  0.37500000  1
  P  P21  1  0.96192600  0.25000000  0.37500000  1
  P  P22  1  0.25000000  0.96192600  0.12500000  1
  P  P23  1  0.75000000  0.03807400  0.12500000  1
  P  P24  1  0.53807400  0.25000000  0.87500000  1
  P  P25  1  0.03807400  0.25000000  0.87500000  1
  P  P26  1  0.25000000  0.03807400  0.62500000  1
  P  P27  1  0.75000000  0.96192600  0.62500000  1
  P  P28  1  0.96192600  0.75000000  0.87500000  1
  P  P29  1  0.46192600  0.75000000  0.87500000  1
  P  P30  1  0.75000000  0.46192600  0.62500000  1
  P  P31  1  0.25000000  0.53807400  0.62500000  1
  S  S32  1  0.08681200  0.36410700  0.12201500  1
  S  S33  1  0.91318800  0.63589300  0.12201500  1
  S  S34  1  0.36410700  0.41318800  0.37201500  1
  S  S35  1  0.63589300  0.58681200  0.37201500  1
  S  S36  1  0.41318800  0.36410700  0.12798500  1
  S  S37  1  0.58681200  0.63589300  0.12798500  1
  S  S38  1  0.63589300  0.91318800  0.37798500  1
  S  S39  1  0.36410700  0.08681200  0.37798500  1
  S  S40  1  0.25393300  0.06427100  0.21526000  1
  S  S41  1  0.93572900  0.75393300  0.46526000  1
  S  S42  1  0.06427100  0.24606700  0.46526000  1
  S  S43  1  0.75393300  0.93572900  0.03474000  1
  S  S44  1  0.24606700  0.06427100  0.03474000  1
  S  S45  1  0.06427100  0.25393300  0.28474000  1
  S  S46  1  0.93572900  0.74606700  0.28474000  1
  S  S47  1  0.74606700  0.93572900  0.21526000  1
  S  S48  1  0.74606700  0.43572900  0.03474000  1
  S  S49  1  0.56427100  0.24606700  0.28474000  1
  S  S50  1  0.43572900  0.75393300  0.28474000  1
  S  S51  1  0.24606700  0.56427100  0.21526000  1
  S  S52  1  0.75393300  0.43572900  0.21526000  1
  S  S53  1  0.43572900  0.74606700  0.46526000  1
  S  S54  1  0.56427100  0.25393300  0.46526000  1
  S  S55  1  0.25393300  0.56427100  0.03474000  1
  S  S56  1  0.08681200  0.86410700  0.12798500  1
  S  S57  1  0.13589300  0.58681200  0.37798500  1
  S  S58  1  0.86410700  0.41318800  0.37798500  1
  S  S59  1  0.58681200  0.13589300  0.12201500  1
  S  S60  1  0.41318800  0.86410700  0.12201500  1
  S  S61  1  0.86410700  0.08681200  0.37201500  1
  S  S62  1  0.13589300  0.91318800  0.37201500  1
  S  S63  1  0.91318800  0.13589300  0.12798500  1
  S  S64  1  0.58681200  0.86410700  0.62201500  1
  S  S65  1  0.41318800  0.13589300  0.62201500  1
  S  S66  1  0.86410700  0.91318800  0.87201500  1
  S  S67  1  0.13589300  0.08681200  0.87201500  1
  S  S68  1  0.91318800  0.86410700  0.62798500  1
  S  S69  1  0.08681200  0.13589300  0.62798500  1
  S  S70  1  0.13589300  0.41318800  0.87798500  1
  S  S71  1  0.86410700  0.58681200  0.87798500  1
  S  S72  1  0.75393300  0.56427100  0.71526000  1
  S  S73  1  0.43572900  0.25393300  0.96526000  1
  S  S74  1  0.56427100  0.74606700  0.96526000  1
  S  S75  1  0.25393300  0.43572900  0.53474000  1
  S  S76  1  0.74606700  0.56427100  0.53474000  1
  S  S77  1  0.56427100  0.75393300  0.78474000  1
  S  S78  1  0.43572900  0.24606700  0.78474000  1
  S  S79  1  0.24606700  0.43572900  0.71526000  1
  S  S80  1  0.24606700  0.93572900  0.53474000  1
  S  S81  1  0.06427100  0.74606700  0.78474000  1
  S  S82  1  0.93572900  0.25393300  0.78474000  1
  S  S83  1  0.74606700  0.06427100  0.71526000  1
  S  S84  1  0.25393300  0.93572900  0.71526000  1
  S  S85  1  0.93572900  0.24606700  0.96526000  1
  S  S86  1  0.06427100  0.75393300  0.96526000  1
  S  S87  1  0.75393300  0.06427100  0.53474000  1
  S  S88  1  0.58681200  0.36410700  0.62798500  1
  S  S89  1  0.63589300  0.08681200  0.87798500  1
  S  S90  1  0.36410700  0.91318800  0.87798500  1
  S  S91  1  0.08681200  0.63589300  0.62201500  1
  S  S92  1  0.91318800  0.36410700  0.62201500  1
  S  S93  1  0.36410700  0.58681200  0.87201500  1
  S  S94  1  0.63589300  0.41318800  0.87201500  1
  S  S95  1  0.41318800  0.63589300  0.62798500  1
