# generated using pymatgen
data_UCd2O5
_symmetry_space_group_name_H-M   'P 1'
_cell_length_a   11.54442800
_cell_length_b   5.38113800
_cell_length_c   8.21624359
_cell_angle_alpha   90.00000000
_cell_angle_beta   109.54482605
_cell_angle_gamma   90.00000000
_symmetry_Int_Tables_number   1
_chemical_formula_structural   UCd2O5
_chemical_formula_sum   'U4 Cd8 O20'
_cell_volume   481.00095292
_cell_formula_units_Z   4
loop_
 _symmetry_equiv_pos_site_id
 _symmetry_equiv_pos_as_xyz
  1  'x, y, z'
loop_
 _atom_site_type_symbol
 _atom_site_label
 _atom_site_symmetry_multiplicity
 _atom_site_fract_x
 _atom_site_fract_y
 _atom_site_fract_z
 _atom_site_occupancy
  U  U0  1  0.00000000  0.00000000  0.50000000  1
  U  U1  1  0.00000000  0.00000000  0.00000000  1
  U  U2  1  0.50000000  0.50000000  0.50000000  1
  U  U3  1  0.50000000  0.50000000  0.00000000  1
  Cd  Cd4  1  0.66614700  0.03761100  0.31766200  1
  Cd  Cd5  1  0.83385300  0.53761100  0.18233800  1
  Cd  Cd6  1  0.66614700  0.96238900  0.81766200  1
  Cd  Cd7  1  0.83385300  0.46238900  0.68233800  1
  Cd  Cd8  1  0.16614700  0.53761100  0.31766200  1
  Cd  Cd9  1  0.33385300  0.03761100  0.18233800  1
  Cd  Cd10  1  0.16614700  0.46238900  0.81766200  1
  Cd  Cd11  1  0.33385300  0.96238900  0.68233800  1
  O  O12  1  0.88727550  0.74540950  0.52087000  1
  O  O13  1  0.61272450  0.75459050  0.47913000  1
  O  O14  1  0.84454400  0.22677700  0.37459000  1
  O  O15  1  0.00000000  0.80612000  0.25000000  1
  O  O16  1  0.65545600  0.72677700  0.12541000  1
  O  O17  1  0.88727550  0.25459050  0.02087000  1
  O  O18  1  0.61272450  0.24540950  0.97913000  1
  O  O19  1  0.84454400  0.77322300  0.87459000  1
  O  O20  1  0.00000000  0.19388000  0.75000000  1
  O  O21  1  0.65545600  0.27322300  0.62541000  1
  O  O22  1  0.38727550  0.24540950  0.52087000  1
  O  O23  1  0.11272450  0.25459050  0.47913000  1
  O  O24  1  0.34454400  0.72677700  0.37459000  1
  O  O25  1  0.50000000  0.30612000  0.25000000  1
  O  O26  1  0.15545600  0.22677700  0.12541000  1
  O  O27  1  0.38727550  0.75459050  0.02087000  1
  O  O28  1  0.11272450  0.74540950  0.97913000  1
  O  O29  1  0.34454400  0.27322300  0.87459000  1
  O  O30  1  0.50000000  0.69388000  0.75000000  1
  O  O31  1  0.15545600  0.77322300  0.62541000  1
