# generated using pymatgen
data_KHo2CuS4
_symmetry_space_group_name_H-M   'P 1'
_cell_length_a   3.94230400
_cell_length_b   13.47334000
_cell_length_c   13.69523400
_cell_angle_alpha   90.00000000
_cell_angle_beta   90.00000000
_cell_angle_gamma   90.00000000
_symmetry_Int_Tables_number   1
_chemical_formula_structural   KHo2CuS4
_chemical_formula_sum   'K4 Ho8 Cu4 S16'
_cell_volume   727.43607894
_cell_formula_units_Z   4
loop_
 _symmetry_equiv_pos_site_id
 _symmetry_equiv_pos_as_xyz
  1  'x, y, z'
loop_
 _atom_site_type_symbol
 _atom_site_label
 _atom_site_symmetry_multiplicity
 _atom_site_fract_x
 _atom_site_fract_y
 _atom_site_fract_z
 _atom_site_occupancy
  K  K0  1  0.50000000  0.39032200  0.75000000  1
  K  K1  1  0.00000000  0.10967800  0.25000000  1
  K  K2  1  0.00000000  0.89032200  0.75000000  1
  K  K3  1  0.50000000  0.60967800  0.25000000  1
  Ho  Ho4  1  0.00000000  0.36581300  0.43666400  1
  Ho  Ho5  1  0.50000000  0.13418700  0.93666400  1
  Ho  Ho6  1  0.00000000  0.36581300  0.06333600  1
  Ho  Ho7  1  0.50000000  0.13418700  0.56333600  1
  Ho  Ho8  1  0.50000000  0.86581300  0.43666400  1
  Ho  Ho9  1  0.00000000  0.63418700  0.93666400  1
  Ho  Ho10  1  0.50000000  0.86581300  0.06333600  1
  Ho  Ho11  1  0.00000000  0.63418700  0.56333600  1
  Cu  Cu12  1  0.50000000  0.33714100  0.25000000  1
  Cu  Cu13  1  0.00000000  0.16285900  0.75000000  1
  Cu  Cu14  1  0.00000000  0.83714100  0.25000000  1
  Cu  Cu15  1  0.50000000  0.66285900  0.75000000  1
  S  S16  1  0.00000000  0.00000000  0.00000000  1
  S  S17  1  0.00000000  0.00000000  0.50000000  1
  S  S18  1  0.00000000  0.26262200  0.61036400  1
  S  S19  1  0.50000000  0.23737800  0.38963600  1
  S  S20  1  0.00000000  0.43114300  0.25000000  1
  S  S21  1  0.00000000  0.26262200  0.88963600  1
  S  S22  1  0.50000000  0.06885700  0.75000000  1
  S  S23  1  0.50000000  0.23737800  0.11036400  1
  S  S24  1  0.50000000  0.50000000  0.00000000  1
  S  S25  1  0.50000000  0.50000000  0.50000000  1
  S  S26  1  0.50000000  0.76262200  0.61036400  1
  S  S27  1  0.00000000  0.73737800  0.38963600  1
  S  S28  1  0.50000000  0.93114300  0.25000000  1
  S  S29  1  0.50000000  0.76262200  0.88963600  1
  S  S30  1  0.00000000  0.56885700  0.75000000  1
  S  S31  1  0.00000000  0.73737800  0.11036400  1
