# generated using pymatgen
data_Ca3GeO
_symmetry_space_group_name_H-M   'P 1'
_cell_length_a   6.70106400
_cell_length_b   6.72936400
_cell_length_c   9.48002200
_cell_angle_alpha   90.00000000
_cell_angle_beta   90.00000000
_cell_angle_gamma   90.00000000
_symmetry_Int_Tables_number   1
_chemical_formula_structural   Ca3GeO
_chemical_formula_sum   'Ca12 Ge4 O4'
_cell_volume   427.49115310
_cell_formula_units_Z   4
loop_
 _symmetry_equiv_pos_site_id
 _symmetry_equiv_pos_as_xyz
  1  'x, y, z'
loop_
 _atom_site_type_symbol
 _atom_site_label
 _atom_site_symmetry_multiplicity
 _atom_site_fract_x
 _atom_site_fract_y
 _atom_site_fract_z
 _atom_site_occupancy
  Ca  Ca0  1  0.75000000  0.25000000  0.52213800  1
  Ca  Ca1  1  0.75000000  0.75000000  0.47786200  1
  Ca  Ca2  1  0.25000000  0.25000000  0.52213800  1
  Ca  Ca3  1  0.25000000  0.75000000  0.47786200  1
  Ca  Ca4  1  0.50000000  0.95681200  0.75000000  1
  Ca  Ca5  1  0.50000000  0.04318800  0.25000000  1
  Ca  Ca6  1  0.25000000  0.75000000  0.02213800  1
  Ca  Ca7  1  0.25000000  0.25000000  0.97786200  1
  Ca  Ca8  1  0.75000000  0.75000000  0.02213800  1
  Ca  Ca9  1  0.75000000  0.25000000  0.97786200  1
  Ca  Ca10  1  0.00000000  0.45681200  0.25000000  1
  Ca  Ca11  1  0.00000000  0.54318800  0.75000000  1
  Ge  Ge12  1  0.00000000  0.99842100  0.25000000  1
  Ge  Ge13  1  0.00000000  0.00157900  0.75000000  1
  Ge  Ge14  1  0.50000000  0.49842100  0.75000000  1
  Ge  Ge15  1  0.50000000  0.50157900  0.25000000  1
  O  O16  1  0.50000000  0.00000000  0.00000000  1
  O  O17  1  0.50000000  0.00000000  0.50000000  1
  O  O18  1  0.00000000  0.50000000  0.50000000  1
  O  O19  1  0.00000000  0.50000000  0.00000000  1
