# generated using pymatgen
data_K2Hg3(GeSe4)2
_symmetry_space_group_name_H-M   'P 1'
_cell_length_a   9.06835800
_cell_length_b   10.25056800
_cell_length_c   20.46749200
_cell_angle_alpha   90.00000000
_cell_angle_beta   90.00000000
_cell_angle_gamma   90.00000000
_symmetry_Int_Tables_number   1
_chemical_formula_structural   K2Hg3(GeSe4)2
_chemical_formula_sum   'K8 Hg12 Ge8 Se32'
_cell_volume   1902.57250890
_cell_formula_units_Z   4
loop_
 _symmetry_equiv_pos_site_id
 _symmetry_equiv_pos_as_xyz
  1  'x, y, z'
loop_
 _atom_site_type_symbol
 _atom_site_label
 _atom_site_symmetry_multiplicity
 _atom_site_fract_x
 _atom_site_fract_y
 _atom_site_fract_z
 _atom_site_occupancy
  K  K0  1  0.67741500  0.20497200  0.38211900  1
  K  K1  1  0.67741500  0.79502800  0.61788100  1
  K  K2  1  0.67741500  0.70497200  0.11788100  1
  K  K3  1  0.67741500  0.29502800  0.88211900  1
  K  K4  1  0.17741500  0.70497200  0.38211900  1
  K  K5  1  0.17741500  0.29502800  0.61788100  1
  K  K6  1  0.17741500  0.20497200  0.11788100  1
  K  K7  1  0.17741500  0.79502800  0.88211900  1
  Hg  Hg8  1  0.87873000  0.95379000  0.24467600  1
  Hg  Hg9  1  0.87873000  0.04621000  0.75532400  1
  Hg  Hg10  1  0.37873000  0.95379000  0.25532400  1
  Hg  Hg11  1  0.37873000  0.04621000  0.74467600  1
  Hg  Hg12  1  0.54002600  0.00000000  0.00000000  1
  Hg  Hg13  1  0.04002600  0.00000000  0.50000000  1
  Hg  Hg14  1  0.37873000  0.45379000  0.24467600  1
  Hg  Hg15  1  0.37873000  0.54621000  0.75532400  1
  Hg  Hg16  1  0.87873000  0.45379000  0.25532400  1
  Hg  Hg17  1  0.87873000  0.54621000  0.74467600  1
  Hg  Hg18  1  0.04002600  0.50000000  0.00000000  1
  Hg  Hg19  1  0.54002600  0.50000000  0.50000000  1
  Ge  Ge20  1  0.68513200  0.21101600  0.13556600  1
  Ge  Ge21  1  0.68513200  0.78898400  0.86443400  1
  Ge  Ge22  1  0.68513200  0.28898400  0.63556600  1
  Ge  Ge23  1  0.68513200  0.71101600  0.36443400  1
  Ge  Ge24  1  0.18513200  0.71101600  0.13556600  1
  Ge  Ge25  1  0.18513200  0.28898400  0.86443400  1
  Ge  Ge26  1  0.18513200  0.78898400  0.63556600  1
  Ge  Ge27  1  0.18513200  0.21101600  0.36443400  1
  Se  Se28  1  0.53789650  0.76625450  0.96310200  1
  Se  Se29  1  0.53789650  0.23374550  0.03689800  1
  Se  Se30  1  0.53693900  0.29286300  0.72965900  1
  Se  Se31  1  0.53693900  0.70713700  0.27034100  1
  Se  Se32  1  0.53693900  0.79286300  0.77034100  1
  Se  Se33  1  0.53693900  0.20713700  0.22965900  1
  Se  Se34  1  0.33361150  0.09469350  0.86825000  1
  Se  Se35  1  0.33361150  0.90530650  0.13175000  1
  Se  Se36  1  0.83361150  0.09469350  0.63175000  1
  Se  Se37  1  0.83361150  0.90530650  0.36825000  1
  Se  Se38  1  0.33252850  0.98219550  0.62341200  1
  Se  Se39  1  0.33252850  0.01780450  0.37658800  1
  Se  Se40  1  0.83252850  0.98219550  0.87658800  1
  Se  Se41  1  0.83252850  0.01780450  0.12341200  1
  Se  Se42  1  0.53789650  0.26625450  0.53689800  1
  Se  Se43  1  0.53789650  0.73374550  0.46310200  1
  Se  Se44  1  0.03789650  0.26625450  0.96310200  1
  Se  Se45  1  0.03789650  0.73374550  0.03689800  1
  Se  Se46  1  0.03693900  0.79286300  0.72965900  1
  Se  Se47  1  0.03693900  0.20713700  0.27034100  1
  Se  Se48  1  0.03693900  0.29286300  0.77034100  1
  Se  Se49  1  0.03693900  0.70713700  0.22965900  1
  Se  Se50  1  0.83361150  0.59469350  0.86825000  1
  Se  Se51  1  0.83361150  0.40530650  0.13175000  1
  Se  Se52  1  0.33361150  0.59469350  0.63175000  1
  Se  Se53  1  0.33361150  0.40530650  0.36825000  1
  Se  Se54  1  0.83252850  0.48219550  0.62341200  1
  Se  Se55  1  0.83252850  0.51780450  0.37658800  1
  Se  Se56  1  0.33252850  0.48219550  0.87658800  1
  Se  Se57  1  0.33252850  0.51780450  0.12341200  1
  Se  Se58  1  0.03789650  0.76625450  0.53689800  1
  Se  Se59  1  0.03789650  0.23374550  0.46310200  1
