# generated using pymatgen
data_Zn2Hg2OF6
_symmetry_space_group_name_H-M   'P 1'
_cell_length_a   10.63200200
_cell_length_b   10.63200200
_cell_length_c   10.63200200
_cell_angle_alpha   90.00000000
_cell_angle_beta   90.00000000
_cell_angle_gamma   90.00000000
_symmetry_Int_Tables_number   1
_chemical_formula_structural   Zn2Hg2OF6
_chemical_formula_sum   'Zn16 Hg16 O8 F48'
_cell_volume   1201.83583420
_cell_formula_units_Z   8
loop_
 _symmetry_equiv_pos_site_id
 _symmetry_equiv_pos_as_xyz
  1  'x, y, z'
loop_
 _atom_site_type_symbol
 _atom_site_label
 _atom_site_symmetry_multiplicity
 _atom_site_fract_x
 _atom_site_fract_y
 _atom_site_fract_z
 _atom_site_occupancy
  Zn  Zn0  1  0.37500000  0.87500000  0.12500000  1
  Zn  Zn1  1  0.37500000  0.62500000  0.37500000  1
  Zn  Zn2  1  0.12500000  0.87500000  0.37500000  1
  Zn  Zn3  1  0.12500000  0.62500000  0.12500000  1
  Zn  Zn4  1  0.37500000  0.37500000  0.62500000  1
  Zn  Zn5  1  0.37500000  0.12500000  0.87500000  1
  Zn  Zn6  1  0.12500000  0.37500000  0.87500000  1
  Zn  Zn7  1  0.12500000  0.12500000  0.62500000  1
  Zn  Zn8  1  0.87500000  0.87500000  0.62500000  1
  Zn  Zn9  1  0.87500000  0.62500000  0.87500000  1
  Zn  Zn10  1  0.62500000  0.87500000  0.87500000  1
  Zn  Zn11  1  0.62500000  0.62500000  0.62500000  1
  Zn  Zn12  1  0.87500000  0.37500000  0.12500000  1
  Zn  Zn13  1  0.87500000  0.12500000  0.37500000  1
  Zn  Zn14  1  0.62500000  0.37500000  0.37500000  1
  Zn  Zn15  1  0.62500000  0.12500000  0.12500000  1
  Hg  Hg16  1  0.87500000  0.87500000  0.12500000  1
  Hg  Hg17  1  0.37500000  0.12500000  0.37500000  1
  Hg  Hg18  1  0.62500000  0.87500000  0.37500000  1
  Hg  Hg19  1  0.12500000  0.12500000  0.12500000  1
  Hg  Hg20  1  0.87500000  0.37500000  0.62500000  1
  Hg  Hg21  1  0.37500000  0.62500000  0.87500000  1
  Hg  Hg22  1  0.62500000  0.37500000  0.87500000  1
  Hg  Hg23  1  0.12500000  0.62500000  0.62500000  1
  Hg  Hg24  1  0.37500000  0.87500000  0.62500000  1
  Hg  Hg25  1  0.87500000  0.12500000  0.87500000  1
  Hg  Hg26  1  0.12500000  0.87500000  0.87500000  1
  Hg  Hg27  1  0.62500000  0.12500000  0.62500000  1
  Hg  Hg28  1  0.37500000  0.37500000  0.12500000  1
  Hg  Hg29  1  0.87500000  0.62500000  0.37500000  1
  Hg  Hg30  1  0.12500000  0.37500000  0.37500000  1
  Hg  Hg31  1  0.62500000  0.62500000  0.12500000  1
  O  O32  1  0.25000000  0.25000000  0.25000000  1
  O  O33  1  0.50000000  0.00000000  0.50000000  1
  O  O34  1  0.25000000  0.75000000  0.75000000  1
  O  O35  1  0.50000000  0.50000000  0.00000000  1
  O  O36  1  0.75000000  0.25000000  0.75000000  1
  O  O37  1  0.00000000  0.00000000  0.00000000  1
  O  O38  1  0.75000000  0.75000000  0.25000000  1
  O  O39  1  0.00000000  0.50000000  0.50000000  1
  F  F40  1  0.25000000  0.54947800  0.25000000  1
  F  F41  1  0.50000000  0.29947800  0.50000000  1
  F  F42  1  0.25000000  0.75000000  0.04947800  1
  F  F43  1  0.04947800  0.75000000  0.25000000  1
  F  F44  1  0.45052200  0.75000000  0.25000000  1
  F  F45  1  0.25000000  0.75000000  0.45052200  1
  F  F46  1  0.25000000  0.95052200  0.25000000  1
  F  F47  1  0.79947800  0.00000000  0.50000000  1
  F  F48  1  0.20052200  0.00000000  0.50000000  1
  F  F49  1  0.50000000  0.70052200  0.50000000  1
  F  F50  1  0.00000000  0.00000000  0.29947800  1
  F  F51  1  0.50000000  0.00000000  0.20052200  1
  F  F52  1  0.25000000  0.04947800  0.75000000  1
  F  F53  1  0.50000000  0.79947800  0.00000000  1
  F  F54  1  0.25000000  0.25000000  0.54947800  1
  F  F55  1  0.04947800  0.25000000  0.75000000  1
  F  F56  1  0.45052200  0.25000000  0.75000000  1
  F  F57  1  0.25000000  0.25000000  0.95052200  1
  F  F58  1  0.25000000  0.45052200  0.75000000  1
  F  F59  1  0.79947800  0.50000000  0.00000000  1
  F  F60  1  0.20052200  0.50000000  0.00000000  1
  F  F61  1  0.50000000  0.20052200  0.00000000  1
  F  F62  1  0.00000000  0.50000000  0.79947800  1
  F  F63  1  0.50000000  0.50000000  0.70052200  1
  F  F64  1  0.75000000  0.54947800  0.75000000  1
  F  F65  1  0.00000000  0.29947800  0.00000000  1
  F  F66  1  0.75000000  0.75000000  0.54947800  1
  F  F67  1  0.54947800  0.75000000  0.75000000  1
  F  F68  1  0.95052200  0.75000000  0.75000000  1
  F  F69  1  0.75000000  0.75000000  0.95052200  1
  F  F70  1  0.75000000  0.95052200  0.75000000  1
  F  F71  1  0.29947800  0.00000000  0.00000000  1
  F  F72  1  0.70052200  0.00000000  0.00000000  1
  F  F73  1  0.00000000  0.70052200  0.00000000  1
  F  F74  1  0.50000000  0.00000000  0.79947800  1
  F  F75  1  0.00000000  0.00000000  0.70052200  1
  F  F76  1  0.75000000  0.04947800  0.25000000  1
  F  F77  1  0.00000000  0.79947800  0.50000000  1
  F  F78  1  0.75000000  0.25000000  0.04947800  1
  F  F79  1  0.54947800  0.25000000  0.25000000  1
  F  F80  1  0.95052200  0.25000000  0.25000000  1
  F  F81  1  0.75000000  0.25000000  0.45052200  1
  F  F82  1  0.75000000  0.45052200  0.25000000  1
  F  F83  1  0.29947800  0.50000000  0.50000000  1
  F  F84  1  0.70052200  0.50000000  0.50000000  1
  F  F85  1  0.00000000  0.20052200  0.50000000  1
  F  F86  1  0.50000000  0.50000000  0.29947800  1
  F  F87  1  0.00000000  0.50000000  0.20052200  1
