# generated using pymatgen
data_CCl4
_symmetry_space_group_name_H-M   'P 1'
_cell_length_a   21.06635000
_cell_length_b   11.85756000
_cell_length_c   20.73555928
_cell_angle_alpha   90.00000000
_cell_angle_beta   111.27398250
_cell_angle_gamma   90.00000000
_symmetry_Int_Tables_number   1
_chemical_formula_structural   CCl4
_chemical_formula_sum   'C32 Cl128'
_cell_volume   4826.68796304
_cell_formula_units_Z   32
loop_
 _symmetry_equiv_pos_site_id
 _symmetry_equiv_pos_as_xyz
  1  'x, y, z'
loop_
 _atom_site_type_symbol
 _atom_site_label
 _atom_site_symmetry_multiplicity
 _atom_site_fract_x
 _atom_site_fract_y
 _atom_site_fract_z
 _atom_site_occupancy
  C  C0  1  0.65887850  0.71457050  0.62654400  1
  C  C1  1  0.84112150  0.21457050  0.87345600  1
  C  C2  1  0.34112150  0.28542950  0.37345600  1
  C  C3  1  0.15887850  0.78542950  0.12654400  1
  C  C4  1  0.87324200  0.68662900  0.87743800  1
  C  C5  1  0.62675800  0.18662900  0.62256200  1
  C  C6  1  0.12675800  0.31337100  0.12256200  1
  C  C7  1  0.37324200  0.81337100  0.37743800  1
  C  C8  1  0.62031900  0.93573800  0.87760700  1
  C  C9  1  0.37968100  0.93573800  0.62239300  1
  C  C10  1  0.37968100  0.06426200  0.12239300  1
  C  C11  1  0.62031900  0.06426200  0.37760700  1
  C  C12  1  0.40512950  0.46622850  0.62310600  1
  C  C13  1  0.59487050  0.46622850  0.87689400  1
  C  C14  1  0.59487050  0.53377150  0.37689400  1
  C  C15  1  0.40512950  0.53377150  0.12310600  1
  C  C16  1  0.15887850  0.21457050  0.62654400  1
  C  C17  1  0.34112150  0.71457050  0.87345600  1
  C  C18  1  0.84112150  0.78542950  0.37345600  1
  C  C19  1  0.65887850  0.28542950  0.12654400  1
  C  C20  1  0.37324200  0.18662900  0.87743800  1
  C  C21  1  0.12675800  0.68662900  0.62256200  1
  C  C22  1  0.62675800  0.81337100  0.12256200  1
  C  C23  1  0.87324200  0.31337100  0.37743800  1
  C  C24  1  0.12031900  0.43573800  0.87760700  1
  C  C25  1  0.87968100  0.43573800  0.62239300  1
  C  C26  1  0.87968100  0.56426200  0.12239300  1
  C  C27  1  0.12031900  0.56426200  0.37760700  1
  C  C28  1  0.90512950  0.96622850  0.62310600  1
  C  C29  1  0.09487050  0.96622850  0.87689400  1
  C  C30  1  0.09487050  0.03377150  0.37689400  1
  C  C31  1  0.90512950  0.03377150  0.12310600  1
  Cl  Cl32  1  0.65525200  0.79112400  0.69885500  1
  Cl  Cl33  1  0.84474800  0.29112400  0.80114500  1
  Cl  Cl34  1  0.34474800  0.20887600  0.30114500  1
  Cl  Cl35  1  0.15525200  0.70887600  0.19885500  1
  Cl  Cl36  1  0.72671150  0.76690050  0.60339400  1
  Cl  Cl37  1  0.77328850  0.26690050  0.89660600  1
  Cl  Cl38  1  0.27328850  0.23309950  0.39660600  1
  Cl  Cl39  1  0.22671150  0.73309950  0.10339400  1
  Cl  Cl40  1  0.58057550  0.73139950  0.55534800  1
  Cl  Cl41  1  0.91942450  0.23139950  0.94465200  1
  Cl  Cl42  1  0.41942450  0.26860050  0.44465200  1
  Cl  Cl43  1  0.08057550  0.76860050  0.05534800  1
  Cl  Cl44  1  0.67219400  0.56923900  0.64808900  1
  Cl  Cl45  1  0.82780600  0.06923900  0.85191100  1
  Cl  Cl46  1  0.32780600  0.43076100  0.35191100  1
  Cl  Cl47  1  0.17219400  0.93076100  0.14808900  1
  Cl  Cl48  1  0.79540000  0.61161600  0.85690700  1
  Cl  Cl49  1  0.70460000  0.11161600  0.64309300  1
  Cl  Cl50  1  0.20460000  0.38838400  0.14309300  1
  Cl  Cl51  1  0.29540000  0.88838400  0.35690700  1
  Cl  Cl52  1  0.87164500  0.76734500  0.80447200  1
  Cl  Cl53  1  0.62835500  0.26734500  0.69552800  1
  Cl  Cl54  1  0.12835500  0.23265500  0.19552800  1
  Cl  Cl55  1  0.37164500  0.73265500  0.30447200  1
  Cl  Cl56  1  0.94218400  0.58966200  0.89965100  1
  Cl  Cl57  1  0.55781600  0.08966200  0.60034900  1
  Cl  Cl58  1  0.05781600  0.41033800  0.10034900  1
  Cl  Cl59  1  0.44218400  0.91033800  0.39965100  1
  Cl  Cl60  1  0.88407550  0.77851650  0.94844100  1
  Cl  Cl61  1  0.61592450  0.27851650  0.55155900  1
  Cl  Cl62  1  0.11592450  0.22148350  0.05155900  1
  Cl  Cl63  1  0.38407550  0.72148350  0.44844100  1
  Cl  Cl64  1  0.54379400  0.85739300  0.85812700  1
  Cl  Cl65  1  0.45620600  0.85739300  0.64187300  1
  Cl  Cl66  1  0.45620600  0.14260700  0.14187300  1
  Cl  Cl67  1  0.54379400  0.14260700  0.35812700  1
  Cl  Cl68  1  0.61564050  0.02009550  0.80502200  1
  Cl  Cl69  1  0.38435950  0.02009550  0.69497800  1
  Cl  Cl70  1  0.38435950  0.97990450  0.19497800  1
  Cl  Cl71  1  0.61564050  0.97990450  0.30502200  1
  Cl  Cl72  1  0.69050600  0.84167400  0.89710700  1
  Cl  Cl73  1  0.30949400  0.84167400  0.60289300  1
  Cl  Cl74  1  0.30949400  0.15832600  0.10289300  1
  Cl  Cl75  1  0.69050600  0.15832600  0.39710700  1
  Cl  Cl76  1  0.63175550  0.02463750  0.95006700  1
  Cl  Cl77  1  0.36824450  0.02463750  0.54993300  1
  Cl  Cl78  1  0.36824450  0.97536250  0.04993300  1
  Cl  Cl79  1  0.63175550  0.97536250  0.45006700  1
  Cl  Cl80  1  0.39871350  0.53991250  0.69520200  1
  Cl  Cl81  1  0.60128650  0.53991250  0.80479800  1
  Cl  Cl82  1  0.60128650  0.46008750  0.30479800  1
  Cl  Cl83  1  0.39871350  0.46008750  0.19520200  1
  Cl  Cl84  1  0.32774350  0.48188750  0.55076700  1
  Cl  Cl85  1  0.67225650  0.48188750  0.94923300  1
  Cl  Cl86  1  0.67225650  0.51811250  0.44923300  1
  Cl  Cl87  1  0.32774350  0.51811250  0.05076700  1
  Cl  Cl88  1  0.47355550  0.52232150  0.60231600  1
  Cl  Cl89  1  0.52644450  0.52232150  0.89768400  1
  Cl  Cl90  1  0.52644450  0.47767850  0.39768400  1
  Cl  Cl91  1  0.47355550  0.47767850  0.10231600  1
  Cl  Cl92  1  0.41993450  0.32081350  0.64392700  1
  Cl  Cl93  1  0.58006550  0.32081350  0.85607300  1
  Cl  Cl94  1  0.58006550  0.67918650  0.35607300  1
  Cl  Cl95  1  0.41993450  0.67918650  0.14392700  1
  Cl  Cl96  1  0.15525200  0.29112400  0.69885500  1
  Cl  Cl97  1  0.34474800  0.79112400  0.80114500  1
  Cl  Cl98  1  0.84474800  0.70887600  0.30114500  1
  Cl  Cl99  1  0.65525200  0.20887600  0.19885500  1
  Cl  Cl100  1  0.22671150  0.26690050  0.60339400  1
  Cl  Cl101  1  0.27328850  0.76690050  0.89660600  1
  Cl  Cl102  1  0.77328850  0.73309950  0.39660600  1
  Cl  Cl103  1  0.72671150  0.23309950  0.10339400  1
  Cl  Cl104  1  0.08057550  0.23139950  0.55534800  1
  Cl  Cl105  1  0.41942450  0.73139950  0.94465200  1
  Cl  Cl106  1  0.91942450  0.76860050  0.44465200  1
  Cl  Cl107  1  0.58057550  0.26860050  0.05534800  1
  Cl  Cl108  1  0.17219400  0.06923900  0.64808900  1
  Cl  Cl109  1  0.32780600  0.56923900  0.85191100  1
  Cl  Cl110  1  0.82780600  0.93076100  0.35191100  1
  Cl  Cl111  1  0.67219400  0.43076100  0.14808900  1
  Cl  Cl112  1  0.29540000  0.11161600  0.85690700  1
  Cl  Cl113  1  0.20460000  0.61161600  0.64309300  1
  Cl  Cl114  1  0.70460000  0.88838400  0.14309300  1
  Cl  Cl115  1  0.79540000  0.38838400  0.35690700  1
  Cl  Cl116  1  0.37164500  0.26734500  0.80447200  1
  Cl  Cl117  1  0.12835500  0.76734500  0.69552800  1
  Cl  Cl118  1  0.62835500  0.73265500  0.19552800  1
  Cl  Cl119  1  0.87164500  0.23265500  0.30447200  1
  Cl  Cl120  1  0.44218400  0.08966200  0.89965100  1
  Cl  Cl121  1  0.05781600  0.58966200  0.60034900  1
  Cl  Cl122  1  0.55781600  0.91033800  0.10034900  1
  Cl  Cl123  1  0.94218400  0.41033800  0.39965100  1
  Cl  Cl124  1  0.38407550  0.27851650  0.94844100  1
  Cl  Cl125  1  0.11592450  0.77851650  0.55155900  1
  Cl  Cl126  1  0.61592450  0.72148350  0.05155900  1
  Cl  Cl127  1  0.88407550  0.22148350  0.44844100  1
  Cl  Cl128  1  0.04379400  0.35739300  0.85812700  1
  Cl  Cl129  1  0.95620600  0.35739300  0.64187300  1
  Cl  Cl130  1  0.95620600  0.64260700  0.14187300  1
  Cl  Cl131  1  0.04379400  0.64260700  0.35812700  1
  Cl  Cl132  1  0.11564050  0.52009550  0.80502200  1
  Cl  Cl133  1  0.88435950  0.52009550  0.69497800  1
  Cl  Cl134  1  0.88435950  0.47990450  0.19497800  1
  Cl  Cl135  1  0.11564050  0.47990450  0.30502200  1
  Cl  Cl136  1  0.19050600  0.34167400  0.89710700  1
  Cl  Cl137  1  0.80949400  0.34167400  0.60289300  1
  Cl  Cl138  1  0.80949400  0.65832600  0.10289300  1
  Cl  Cl139  1  0.19050600  0.65832600  0.39710700  1
  Cl  Cl140  1  0.13175550  0.52463750  0.95006700  1
  Cl  Cl141  1  0.86824450  0.52463750  0.54993300  1
  Cl  Cl142  1  0.86824450  0.47536250  0.04993300  1
  Cl  Cl143  1  0.13175550  0.47536250  0.45006700  1
  Cl  Cl144  1  0.89871350  0.03991250  0.69520200  1
  Cl  Cl145  1  0.10128650  0.03991250  0.80479800  1
  Cl  Cl146  1  0.10128650  0.96008750  0.30479800  1
  Cl  Cl147  1  0.89871350  0.96008750  0.19520200  1
  Cl  Cl148  1  0.82774350  0.98188750  0.55076700  1
  Cl  Cl149  1  0.17225650  0.98188750  0.94923300  1
  Cl  Cl150  1  0.17225650  0.01811250  0.44923300  1
  Cl  Cl151  1  0.82774350  0.01811250  0.05076700  1
  Cl  Cl152  1  0.97355550  0.02232150  0.60231600  1
  Cl  Cl153  1  0.02644450  0.02232150  0.89768400  1
  Cl  Cl154  1  0.02644450  0.97767850  0.39768400  1
  Cl  Cl155  1  0.97355550  0.97767850  0.10231600  1
  Cl  Cl156  1  0.91993450  0.82081350  0.64392700  1
  Cl  Cl157  1  0.08006550  0.82081350  0.85607300  1
  Cl  Cl158  1  0.08006550  0.17918650  0.35607300  1
  Cl  Cl159  1  0.91993450  0.17918650  0.14392700  1
