# generated using pymatgen
data_Ho6WO12
_symmetry_space_group_name_H-M   'P 1'
_cell_length_a   10.09990439
_cell_length_b   10.09990439
_cell_length_c   9.62195678
_cell_angle_alpha   90.00000000
_cell_angle_beta   90.00000000
_cell_angle_gamma   120.00000000
_symmetry_Int_Tables_number   1
_chemical_formula_structural   Ho6WO12
_chemical_formula_sum   'Ho18 W3 O36'
_cell_volume   850.01885499
_cell_formula_units_Z   3
loop_
 _symmetry_equiv_pos_site_id
 _symmetry_equiv_pos_as_xyz
  1  'x, y, z'
loop_
 _atom_site_type_symbol
 _atom_site_label
 _atom_site_symmetry_multiplicity
 _atom_site_fract_x
 _atom_site_fract_y
 _atom_site_fract_z
 _atom_site_occupancy
  Ho  Ho0  1  0.78897767  0.74581933  0.35306933  1
  Ho  Ho1  1  0.04315833  0.78897767  0.64693067  1
  Ho  Ho2  1  0.74581933  0.95684167  0.64693067  1
  Ho  Ho3  1  0.21102233  0.25418067  0.64693067  1
  Ho  Ho4  1  0.95684167  0.21102233  0.35306933  1
  Ho  Ho5  1  0.25418067  0.04315833  0.35306933  1
  Ho  Ho6  1  0.45564433  0.07915267  0.68640267  1
  Ho  Ho7  1  0.70982500  0.12231100  0.98026400  1
  Ho  Ho8  1  0.41248600  0.29017500  0.98026400  1
  Ho  Ho9  1  0.87768900  0.58751400  0.98026400  1
  Ho  Ho10  1  0.62350833  0.54435567  0.68640267  1
  Ho  Ho11  1  0.92084733  0.37649167  0.68640267  1
  Ho  Ho12  1  0.12231100  0.41248600  0.01973600  1
  Ho  Ho13  1  0.37649167  0.45564433  0.31359733  1
  Ho  Ho14  1  0.07915267  0.62350833  0.31359733  1
  Ho  Ho15  1  0.54435567  0.92084733  0.31359733  1
  Ho  Ho16  1  0.29017500  0.87768900  0.01973600  1
  Ho  Ho17  1  0.58751400  0.70982500  0.01973600  1
  W  W18  1  0.00000000  0.00000000  0.00000000  1
  W  W19  1  0.66666667  0.33333333  0.33333333  1
  W  W20  1  0.33333333  0.66666667  0.66666667  1
  O  O21  1  0.03222500  0.80714300  0.40125500  1
  O  O22  1  0.77491800  0.96777500  0.40125500  1
  O  O23  1  0.19285700  0.22508200  0.40125500  1
  O  O24  1  0.96777500  0.19285700  0.59874500  1
  O  O25  1  0.22508200  0.03222500  0.59874500  1
  O  O26  1  0.80714300  0.77491800  0.59874500  1
  O  O27  1  0.47366167  0.84676433  0.55642433  1
  O  O28  1  0.84676433  0.37310267  0.44357567  1
  O  O29  1  0.62689733  0.47366167  0.44357567  1
  O  O30  1  0.52633833  0.15323567  0.44357567  1
  O  O31  1  0.15323567  0.62689733  0.55642433  1
  O  O32  1  0.37310267  0.52633833  0.55642433  1
  O  O33  1  0.69889167  0.14047633  0.73458833  1
  O  O34  1  0.44158467  0.30110833  0.73458833  1
  O  O35  1  0.85952367  0.55841533  0.73458833  1
  O  O36  1  0.63444167  0.52619033  0.93207833  1
  O  O37  1  0.89174867  0.36555833  0.93207833  1
  O  O38  1  0.47380967  0.10825133  0.93207833  1
  O  O39  1  0.14032833  0.18009767  0.88975767  1
  O  O40  1  0.51343100  0.70643600  0.77690900  1
  O  O41  1  0.29356400  0.80699500  0.77690900  1
  O  O42  1  0.19300500  0.48656900  0.77690900  1
  O  O43  1  0.81990233  0.96023067  0.88975767  1
  O  O44  1  0.03976933  0.85967167  0.88975767  1
  O  O45  1  0.36555833  0.47380967  0.06792167  1
  O  O46  1  0.10825133  0.63444167  0.06792167  1
  O  O47  1  0.52619033  0.89174867  0.06792167  1
  O  O48  1  0.30110833  0.85952367  0.26541167  1
  O  O49  1  0.55841533  0.69889167  0.26541167  1
  O  O50  1  0.14047633  0.44158467  0.26541167  1
  O  O51  1  0.80699500  0.51343100  0.22309100  1
  O  O52  1  0.18009767  0.03976933  0.11024233  1
  O  O53  1  0.96023067  0.14032833  0.11024233  1
  O  O54  1  0.85967167  0.81990233  0.11024233  1
  O  O55  1  0.48656900  0.29356400  0.22309100  1
  O  O56  1  0.70643600  0.19300500  0.22309100  1
