# generated using pymatgen
data_SiO2
_symmetry_space_group_name_H-M   'P 1'
_cell_length_a   7.25932400
_cell_length_b   12.53347800
_cell_length_c   7.24237193
_cell_angle_alpha   90.00000000
_cell_angle_beta   119.96224320
_cell_angle_gamma   90.00000000
_symmetry_Int_Tables_number   1
_chemical_formula_structural   SiO2
_chemical_formula_sum   'Si16 O32'
_cell_volume   570.87936603
_cell_formula_units_Z   16
loop_
 _symmetry_equiv_pos_site_id
 _symmetry_equiv_pos_as_xyz
  1  'x, y, z'
loop_
 _atom_site_type_symbol
 _atom_site_label
 _atom_site_symmetry_multiplicity
 _atom_site_fract_x
 _atom_site_fract_y
 _atom_site_fract_z
 _atom_site_occupancy
  Si  Si0  1  0.21702200  0.90869000  0.96100200  1
  Si  Si1  1  0.78297800  0.90869000  0.53899800  1
  Si  Si2  1  0.78297800  0.09131000  0.03899800  1
  Si  Si3  1  0.21702200  0.09131000  0.46100200  1
  Si  Si4  1  0.31887200  0.85763700  0.42687800  1
  Si  Si5  1  0.68112800  0.85763700  0.07312200  1
  Si  Si6  1  0.68112800  0.14236300  0.57312200  1
  Si  Si7  1  0.31887200  0.14236300  0.92687800  1
  Si  Si8  1  0.71702200  0.40869000  0.96100200  1
  Si  Si9  1  0.28297800  0.40869000  0.53899800  1
  Si  Si10  1  0.28297800  0.59131000  0.03899800  1
  Si  Si11  1  0.71702200  0.59131000  0.46100200  1
  Si  Si12  1  0.81887200  0.35763700  0.42687800  1
  Si  Si13  1  0.18112800  0.35763700  0.07312200  1
  Si  Si14  1  0.18112800  0.64236300  0.57312200  1
  Si  Si15  1  0.81887200  0.64236300  0.92687800  1
  O  O16  1  0.78214000  0.96136100  0.01779400  1
  O  O17  1  0.21786000  0.96136100  0.48220600  1
  O  O18  1  0.21786000  0.03863900  0.98220600  1
  O  O19  1  0.78214000  0.03863900  0.51779400  1
  O  O20  1  0.22902600  0.85491500  0.17093100  1
  O  O21  1  0.77097400  0.85491500  0.32906900  1
  O  O22  1  0.77097400  0.14508500  0.82906900  1
  O  O23  1  0.22902600  0.14508500  0.67093100  1
  O  O24  1  0.25000000  0.25000000  0.00000000  1
  O  O25  1  0.25000000  0.75000000  0.50000000  1
  O  O26  1  0.50000000  0.63058000  0.25000000  1
  O  O27  1  0.50000000  0.36942000  0.75000000  1
  O  O28  1  0.57698400  0.12974300  0.05548300  1
  O  O29  1  0.42301600  0.12974300  0.44451700  1
  O  O30  1  0.42301600  0.87025700  0.94451700  1
  O  O31  1  0.57698400  0.87025700  0.55548300  1
  O  O32  1  0.28214000  0.46136100  0.01779400  1
  O  O33  1  0.71786000  0.46136100  0.48220600  1
  O  O34  1  0.71786000  0.53863900  0.98220600  1
  O  O35  1  0.28214000  0.53863900  0.51779400  1
  O  O36  1  0.72902600  0.35491500  0.17093100  1
  O  O37  1  0.27097400  0.35491500  0.32906900  1
  O  O38  1  0.27097400  0.64508500  0.82906900  1
  O  O39  1  0.72902600  0.64508500  0.67093100  1
  O  O40  1  0.75000000  0.75000000  0.00000000  1
  O  O41  1  0.75000000  0.25000000  0.50000000  1
  O  O42  1  0.00000000  0.13058000  0.25000000  1
  O  O43  1  0.00000000  0.86942000  0.75000000  1
  O  O44  1  0.07698400  0.62974300  0.05548300  1
  O  O45  1  0.92301600  0.62974300  0.44451700  1
  O  O46  1  0.92301600  0.37025700  0.94451700  1
  O  O47  1  0.07698400  0.37025700  0.55548300  1
