# generated using pymatgen
data_BaYSi4N7
_symmetry_space_group_name_H-M   'P 1'
_cell_length_a   6.10545388
_cell_length_b   6.10545388
_cell_length_c   9.94432100
_cell_angle_alpha   90.00000000
_cell_angle_beta   90.00000000
_cell_angle_gamma   120.00000000
_symmetry_Int_Tables_number   1
_chemical_formula_structural   BaYSi4N7
_chemical_formula_sum   'Ba2 Y2 Si8 N14'
_cell_volume   321.02708634
_cell_formula_units_Z   2
loop_
 _symmetry_equiv_pos_site_id
 _symmetry_equiv_pos_as_xyz
  1  'x, y, z'
loop_
 _atom_site_type_symbol
 _atom_site_label
 _atom_site_symmetry_multiplicity
 _atom_site_fract_x
 _atom_site_fract_y
 _atom_site_fract_z
 _atom_site_occupancy
  Ba  Ba0  1  0.66666667  0.33333333  0.86290600  1
  Ba  Ba1  1  0.33333333  0.66666667  0.36290600  1
  Y  Y2  1  0.66666667  0.33333333  0.23624300  1
  Y  Y3  1  0.33333333  0.66666667  0.73624300  1
  Si  Si4  1  0.65122200  0.82561100  0.04607200  1
  Si  Si5  1  0.82561100  0.65122200  0.54607200  1
  Si  Si6  1  0.82561100  0.17438900  0.54607200  1
  Si  Si7  1  0.17438900  0.82561100  0.04607200  1
  Si  Si8  1  0.17438900  0.34877800  0.04607200  1
  Si  Si9  1  0.34877800  0.17438900  0.54607200  1
  Si  Si10  1  0.00000000  0.00000000  0.31483400  1
  Si  Si11  1  0.00000000  0.00000000  0.81483400  1
  N  N12  1  0.00000000  0.00000000  0.12371200  1
  N  N13  1  0.00000000  0.00000000  0.62371200  1
  N  N14  1  0.30510300  0.15255150  0.37413000  1
  N  N15  1  0.15255150  0.30510300  0.87413000  1
  N  N16  1  0.15255150  0.84744850  0.87413000  1
  N  N17  1  0.84744850  0.15255150  0.37413000  1
  N  N18  1  0.84744850  0.69489700  0.37413000  1
  N  N19  1  0.69489700  0.84744850  0.87413000  1
  N  N20  1  0.48752800  0.51247200  0.09853300  1
  N  N21  1  0.97505600  0.48752800  0.59853300  1
  N  N22  1  0.51247200  0.02494400  0.59853300  1
  N  N23  1  0.48752800  0.97505600  0.09853300  1
  N  N24  1  0.51247200  0.48752800  0.59853300  1
  N  N25  1  0.02494400  0.51247200  0.09853300  1
