# generated using pymatgen
data_Tl2B2Se7
_symmetry_space_group_name_H-M   'P 1'
_cell_length_a   15.65205200
_cell_length_b   7.42878200
_cell_length_c   12.38181680
_cell_angle_alpha   90.00000000
_cell_angle_beta   120.87073369
_cell_angle_gamma   90.00000000
_symmetry_Int_Tables_number   1
_chemical_formula_structural   Tl2B2Se7
_chemical_formula_sum   'Tl8 B8 Se28'
_cell_volume   1235.73713724
_cell_formula_units_Z   4
loop_
 _symmetry_equiv_pos_site_id
 _symmetry_equiv_pos_as_xyz
  1  'x, y, z'
loop_
 _atom_site_type_symbol
 _atom_site_label
 _atom_site_symmetry_multiplicity
 _atom_site_fract_x
 _atom_site_fract_y
 _atom_site_fract_z
 _atom_site_occupancy
  Tl  Tl0  1  0.60646900  0.28590000  0.53616300  1
  Tl  Tl1  1  0.89353100  0.78590000  0.96383700  1
  Tl  Tl2  1  0.39353100  0.71410000  0.46383700  1
  Tl  Tl3  1  0.10646900  0.21410000  0.03616300  1
  Tl  Tl4  1  0.10646900  0.78590000  0.53616300  1
  Tl  Tl5  1  0.39353100  0.28590000  0.96383700  1
  Tl  Tl6  1  0.89353100  0.21410000  0.46383700  1
  Tl  Tl7  1  0.60646900  0.71410000  0.03616300  1
  B  B8  1  0.61632600  0.77849400  0.34949400  1
  B  B9  1  0.38367400  0.77849400  0.15050600  1
  B  B10  1  0.38367400  0.22150600  0.65050600  1
  B  B11  1  0.61632600  0.22150600  0.84949400  1
  B  B12  1  0.11632600  0.27849400  0.34949400  1
  B  B13  1  0.88367400  0.27849400  0.15050600  1
  B  B14  1  0.88367400  0.72150600  0.65050600  1
  B  B15  1  0.11632600  0.72150600  0.84949400  1
  Se  Se16  1  0.12874650  0.68841550  0.02134500  1
  Se  Se17  1  0.37125350  0.18841550  0.47865500  1
  Se  Se18  1  0.87125350  0.31158450  0.97865500  1
  Se  Se19  1  0.62874650  0.81158450  0.52134500  1
  Se  Se20  1  0.73196800  0.12522800  0.83162300  1
  Se  Se21  1  0.76803200  0.62522800  0.66837700  1
  Se  Se22  1  0.26803200  0.87477200  0.16837700  1
  Se  Se23  1  0.23196800  0.37477200  0.33162300  1
  Se  Se24  1  0.58416000  0.47598000  0.77344300  1
  Se  Se25  1  0.41584000  0.47598000  0.72655700  1
  Se  Se26  1  0.41584000  0.52402000  0.22655700  1
  Se  Se27  1  0.58416000  0.52402000  0.27344300  1
  Se  Se28  1  0.50000000  0.04164500  0.75000000  1
  Se  Se29  1  0.50000000  0.95835500  0.25000000  1
  Se  Se30  1  0.62874650  0.18841550  0.02134500  1
  Se  Se31  1  0.87125350  0.68841550  0.47865500  1
  Se  Se32  1  0.37125350  0.81158450  0.97865500  1
  Se  Se33  1  0.12874650  0.31158450  0.52134500  1
  Se  Se34  1  0.23196800  0.62522800  0.83162300  1
  Se  Se35  1  0.26803200  0.12522800  0.66837700  1
  Se  Se36  1  0.76803200  0.37477200  0.16837700  1
  Se  Se37  1  0.73196800  0.87477200  0.33162300  1
  Se  Se38  1  0.08416000  0.97598000  0.77344300  1
  Se  Se39  1  0.91584000  0.97598000  0.72655700  1
  Se  Se40  1  0.91584000  0.02402000  0.22655700  1
  Se  Se41  1  0.08416000  0.02402000  0.27344300  1
  Se  Se42  1  0.00000000  0.54164500  0.75000000  1
  Se  Se43  1  0.00000000  0.45835500  0.25000000  1
