# generated using pymatgen
data_CrAsO4
_symmetry_space_group_name_H-M   'P 1'
_cell_length_a   4.86319500
_cell_length_b   6.42573700
_cell_length_c   9.13106500
_cell_angle_alpha   90.00000000
_cell_angle_beta   90.00000000
_cell_angle_gamma   90.00000000
_symmetry_Int_Tables_number   1
_chemical_formula_structural   CrAsO4
_chemical_formula_sum   'Cr4 As4 O16'
_cell_volume   285.34223885
_cell_formula_units_Z   4
loop_
 _symmetry_equiv_pos_site_id
 _symmetry_equiv_pos_as_xyz
  1  'x, y, z'
loop_
 _atom_site_type_symbol
 _atom_site_label
 _atom_site_symmetry_multiplicity
 _atom_site_fract_x
 _atom_site_fract_y
 _atom_site_fract_z
 _atom_site_occupancy
  Cr  Cr0  1  0.50000000  0.00000000  0.00000000  1
  Cr  Cr1  1  0.00000000  0.00000000  0.50000000  1
  Cr  Cr2  1  0.50000000  0.50000000  0.00000000  1
  Cr  Cr3  1  0.00000000  0.50000000  0.50000000  1
  As  As4  1  0.02353900  0.75000000  0.18007500  1
  As  As5  1  0.52353900  0.25000000  0.31992500  1
  As  As6  1  0.97646100  0.25000000  0.81992500  1
  As  As7  1  0.47646100  0.75000000  0.68007500  1
  O  O8  1  0.67383700  0.47514900  0.37429700  1
  O  O9  1  0.17383700  0.52485100  0.12570300  1
  O  O10  1  0.32616300  0.97514900  0.62570300  1
  O  O11  1  0.82616300  0.02485100  0.87429700  1
  O  O12  1  0.32616300  0.52485100  0.62570300  1
  O  O13  1  0.82616300  0.47514900  0.87429700  1
  O  O14  1  0.67383700  0.02485100  0.37429700  1
  O  O15  1  0.17383700  0.97514900  0.12570300  1
  O  O16  1  0.68425200  0.75000000  0.11371200  1
  O  O17  1  0.18425200  0.25000000  0.38628800  1
  O  O18  1  0.31574800  0.25000000  0.88628800  1
  O  O19  1  0.81574800  0.75000000  0.61371200  1
  O  O20  1  0.08573600  0.75000000  0.37088300  1
  O  O21  1  0.58573600  0.25000000  0.12911700  1
  O  O22  1  0.91426400  0.25000000  0.62911700  1
  O  O23  1  0.41426400  0.75000000  0.87088300  1
