# generated using pymatgen
data_CdSO3
_symmetry_space_group_name_H-M   'P 1'
_cell_length_a   13.58178156
_cell_length_b   13.58178156
_cell_length_c   8.48411096
_cell_angle_alpha   90.00000000
_cell_angle_beta   90.00000000
_cell_angle_gamma   120.00000000
_symmetry_Int_Tables_number   1
_chemical_formula_structural   CdSO3
_chemical_formula_sum   'Cd18 S18 O54'
_cell_volume   1355.34686139
_cell_formula_units_Z   18
loop_
 _symmetry_equiv_pos_site_id
 _symmetry_equiv_pos_as_xyz
  1  'x, y, z'
loop_
 _atom_site_type_symbol
 _atom_site_label
 _atom_site_symmetry_multiplicity
 _atom_site_fract_x
 _atom_site_fract_y
 _atom_site_fract_z
 _atom_site_occupancy
  Cd  Cd0  1  0.95333733  0.22115467  0.40550767  1
  Cd  Cd1  1  0.26781733  0.04666267  0.40550767  1
  Cd  Cd2  1  0.77884533  0.73218267  0.40550767  1
  Cd  Cd3  1  0.04666267  0.77884533  0.59449233  1
  Cd  Cd4  1  0.73218267  0.95333733  0.59449233  1
  Cd  Cd5  1  0.22115467  0.26781733  0.59449233  1
  Cd  Cd6  1  0.62000400  0.55448800  0.73884100  1
  Cd  Cd7  1  0.93448400  0.37999600  0.73884100  1
  Cd  Cd8  1  0.44551200  0.06551600  0.73884100  1
  Cd  Cd9  1  0.71332933  0.11217867  0.92782567  1
  Cd  Cd10  1  0.39884933  0.28667067  0.92782567  1
  Cd  Cd11  1  0.88782133  0.60115067  0.92782567  1
  Cd  Cd12  1  0.28667067  0.88782133  0.07217433  1
  Cd  Cd13  1  0.60115067  0.71332933  0.07217433  1
  Cd  Cd14  1  0.11217867  0.39884933  0.07217433  1
  Cd  Cd15  1  0.37999600  0.44551200  0.26115900  1
  Cd  Cd16  1  0.06551600  0.62000400  0.26115900  1
  Cd  Cd17  1  0.55448800  0.93448400  0.26115900  1
  S  S18  1  0.82496367  0.98492733  0.19642133  1
  S  S19  1  0.15996367  0.17503633  0.19642133  1
  S  S20  1  0.01507267  0.84003633  0.19642133  1
  S  S21  1  0.17503633  0.01507267  0.80357867  1
  S  S22  1  0.84003633  0.82496367  0.80357867  1
  S  S23  1  0.98492733  0.15996367  0.80357867  1
  S  S24  1  0.49163033  0.31826067  0.52975467  1
  S  S25  1  0.82663033  0.50836967  0.52975467  1
  S  S26  1  0.68173933  0.17336967  0.52975467  1
  S  S27  1  0.84170300  0.34840600  0.13691200  1
  S  S28  1  0.50670300  0.15829700  0.13691200  1
  S  S29  1  0.65159400  0.49329700  0.13691200  1
  S  S30  1  0.15829700  0.65159400  0.86308800  1
  S  S31  1  0.49329700  0.84170300  0.86308800  1
  S  S32  1  0.34840600  0.50670300  0.86308800  1
  S  S33  1  0.50836967  0.68173933  0.47024533  1
  S  S34  1  0.17336967  0.49163033  0.47024533  1
  S  S35  1  0.31826067  0.82663033  0.47024533  1
  O  O36  1  0.60140600  0.65416300  0.52383600  1
  O  O37  1  0.05275700  0.39859400  0.52383600  1
  O  O38  1  0.34583700  0.94724300  0.52383600  1
  O  O39  1  0.39859400  0.34583700  0.47616400  1
  O  O40  1  0.94724300  0.60140600  0.47616400  1
  O  O41  1  0.65416300  0.05275700  0.47616400  1
  O  O42  1  0.81270933  0.23940967  0.55032167  1
  O  O43  1  0.42670033  0.18729067  0.55032167  1
  O  O44  1  0.76059033  0.57329967  0.55032167  1
  O  O45  1  0.18729067  0.76059033  0.44967833  1
  O  O46  1  0.57329967  0.81270933  0.44967833  1
  O  O47  1  0.23940967  0.42670033  0.44967833  1
  O  O48  1  0.02911700  0.17614600  0.63004000  1
  O  O49  1  0.82385400  0.85297100  0.63004000  1
  O  O50  1  0.14702900  0.97088300  0.63004000  1
  O  O51  1  0.97088300  0.82385400  0.36996000  1
  O  O52  1  0.17614600  0.14702900  0.36996000  1
  O  O53  1  0.85297100  0.02911700  0.36996000  1
  O  O54  1  0.26807267  0.98749633  0.85716933  1
  O  O55  1  0.71942367  0.73192733  0.85716933  1
  O  O56  1  0.01250367  0.28057633  0.85716933  1
  O  O57  1  0.06526067  0.67917033  0.80949733  1
  O  O58  1  0.61390967  0.93473933  0.80949733  1
  O  O59  1  0.32082967  0.38609033  0.80949733  1
  O  O60  1  0.47937600  0.57274300  0.88365500  1
  O  O61  1  0.09336700  0.52062400  0.88365500  1
  O  O62  1  0.42725700  0.90663300  0.88365500  1
  O  O63  1  0.85395733  0.09392367  0.78301167  1
  O  O64  1  0.23996633  0.14604267  0.78301167  1
  O  O65  1  0.90607633  0.76003367  0.78301167  1
  O  O66  1  0.69578367  0.50947933  0.96337333  1
  O  O67  1  0.49052067  0.18630433  0.96337333  1
  O  O68  1  0.81369567  0.30421633  0.96337333  1
  O  O69  1  0.63754967  0.15718733  0.70329333  1
  O  O70  1  0.84281267  0.48036233  0.70329333  1
  O  O71  1  0.51963767  0.36245033  0.70329333  1
  O  O72  1  0.93473933  0.32082967  0.19050267  1
  O  O73  1  0.38609033  0.06526067  0.19050267  1
  O  O74  1  0.67917033  0.61390967  0.19050267  1
  O  O75  1  0.73192733  0.01250367  0.14283067  1
  O  O76  1  0.28057633  0.26807267  0.14283067  1
  O  O77  1  0.98749633  0.71942367  0.14283067  1
  O  O78  1  0.14604267  0.90607633  0.21698833  1
  O  O79  1  0.76003367  0.85395733  0.21698833  1
  O  O80  1  0.09392367  0.23996633  0.21698833  1
  O  O81  1  0.52062400  0.42725700  0.11634500  1
  O  O82  1  0.90663300  0.47937600  0.11634500  1
  O  O83  1  0.57274300  0.09336700  0.11634500  1
  O  O84  1  0.36245033  0.84281267  0.29670667  1
  O  O85  1  0.15718733  0.51963767  0.29670667  1
  O  O86  1  0.48036233  0.63754967  0.29670667  1
  O  O87  1  0.30421633  0.49052067  0.03662667  1
  O  O88  1  0.50947933  0.81369567  0.03662667  1
  O  O89  1  0.18630433  0.69578367  0.03662667  1
