# generated using pymatgen
data_LiCr(SiO3)2
_symmetry_space_group_name_H-M   'P 1'
_cell_length_a   9.74759864
_cell_length_b   8.72885340
_cell_length_c   5.35538286
_cell_angle_alpha   90.00000000
_cell_angle_beta   110.62713762
_cell_angle_gamma   90.00000000
_symmetry_Int_Tables_number   1
_chemical_formula_structural   LiCr(SiO3)2
_chemical_formula_sum   'Li4 Cr4 Si8 O24'
_cell_volume   426.45328237
_cell_formula_units_Z   4
loop_
 _symmetry_equiv_pos_site_id
 _symmetry_equiv_pos_as_xyz
  1  'x, y, z'
loop_
 _atom_site_type_symbol
 _atom_site_label
 _atom_site_symmetry_multiplicity
 _atom_site_fract_x
 _atom_site_fract_y
 _atom_site_fract_z
 _atom_site_occupancy
  Li  Li0  1  0.50000000  0.24087100  0.75000000  1
  Li  Li1  1  0.50000000  0.75912900  0.25000000  1
  Li  Li2  1  0.00000000  0.74087100  0.75000000  1
  Li  Li3  1  0.00000000  0.25912900  0.25000000  1
  Cr  Cr4  1  0.50000000  0.59304750  0.75000000  1
  Cr  Cr5  1  0.50000000  0.40695250  0.25000000  1
  Cr  Cr6  1  0.00000000  0.09304750  0.75000000  1
  Cr  Cr7  1  0.00000000  0.90695250  0.25000000  1
  Si  Si8  1  0.29811625  0.90910175  0.76609000  1
  Si  Si9  1  0.70188375  0.09089825  0.23391000  1
  Si  Si10  1  0.29811625  0.09089825  0.26609000  1
  Si  Si11  1  0.70188375  0.90910175  0.73391000  1
  Si  Si12  1  0.79811625  0.40910175  0.76609000  1
  Si  Si13  1  0.20188375  0.59089825  0.23391000  1
  Si  Si14  1  0.79811625  0.59089825  0.26609000  1
  Si  Si15  1  0.20188375  0.40910175  0.73391000  1
  O  O16  1  0.64434000  0.00219750  0.94453700  1
  O  O17  1  0.64434000  0.99780250  0.44453700  1
  O  O18  1  0.35566000  0.99780250  0.05546300  1
  O  O19  1  0.35566000  0.00219750  0.55546300  1
  O  O20  1  0.11599275  0.08544075  0.14938900  1
  O  O21  1  0.88400725  0.91455925  0.85061100  1
  O  O22  1  0.11599275  0.91455925  0.64938900  1
  O  O23  1  0.88400725  0.08544075  0.35061100  1
  O  O24  1  0.63073800  0.25933300  0.17080400  1
  O  O25  1  0.36926200  0.74066700  0.82919600  1
  O  O26  1  0.63073800  0.74066700  0.67080400  1
  O  O27  1  0.36926200  0.25933300  0.32919600  1
  O  O28  1  0.14434000  0.50219750  0.94453700  1
  O  O29  1  0.14434000  0.49780250  0.44453700  1
  O  O30  1  0.85566000  0.49780250  0.05546300  1
  O  O31  1  0.85566000  0.50219750  0.55546300  1
  O  O32  1  0.61599275  0.58544075  0.14938900  1
  O  O33  1  0.38400725  0.41455925  0.85061100  1
  O  O34  1  0.61599275  0.41455925  0.64938900  1
  O  O35  1  0.38400725  0.58544075  0.35061100  1
  O  O36  1  0.13073800  0.75933300  0.17080400  1
  O  O37  1  0.86926200  0.24066700  0.82919600  1
  O  O38  1  0.13073800  0.24066700  0.67080400  1
  O  O39  1  0.86926200  0.75933300  0.32919600  1
