# generated using pymatgen
data_BaAl2(SiO4)2
_symmetry_space_group_name_H-M   'P 1'
_cell_length_a   13.46638200
_cell_length_b   13.21647800
_cell_length_c   8.74930253
_cell_angle_alpha   90.00000000
_cell_angle_beta   100.96566793
_cell_angle_gamma   90.00000000
_symmetry_Int_Tables_number   1
_chemical_formula_structural   BaAl2(SiO4)2
_chemical_formula_sum   'Ba8 Al16 Si16 O64'
_cell_volume   1528.75250078
_cell_formula_units_Z   8
loop_
 _symmetry_equiv_pos_site_id
 _symmetry_equiv_pos_as_xyz
  1  'x, y, z'
loop_
 _atom_site_type_symbol
 _atom_site_label
 _atom_site_symmetry_multiplicity
 _atom_site_fract_x
 _atom_site_fract_y
 _atom_site_fract_z
 _atom_site_occupancy
  Ba  Ba0  1  0.81446950  0.75039350  0.28299400  1
  Ba  Ba1  1  0.18553050  0.75039350  0.21700600  1
  Ba  Ba2  1  0.18553050  0.24960650  0.71700600  1
  Ba  Ba3  1  0.81446950  0.24960650  0.78299400  1
  Ba  Ba4  1  0.31446950  0.25039350  0.28299400  1
  Ba  Ba5  1  0.68553050  0.25039350  0.21700600  1
  Ba  Ba6  1  0.68553050  0.74960650  0.71700600  1
  Ba  Ba7  1  0.31446950  0.74960650  0.78299400  1
  Al  Al8  1  0.63303850  0.43315350  0.89143800  1
  Al  Al9  1  0.36696150  0.43315350  0.60856200  1
  Al  Al10  1  0.63303850  0.56684650  0.39143800  1
  Al  Al11  1  0.36696150  0.56684650  0.10856200  1
  Al  Al12  1  0.92360450  0.62761550  0.96484300  1
  Al  Al13  1  0.07639550  0.62761550  0.53515700  1
  Al  Al14  1  0.07639550  0.37238450  0.03515700  1
  Al  Al15  1  0.92360450  0.37238450  0.46484300  1
  Al  Al16  1  0.13303850  0.93315350  0.89143800  1
  Al  Al17  1  0.86696150  0.93315350  0.60856200  1
  Al  Al18  1  0.13303850  0.06684650  0.39143800  1
  Al  Al19  1  0.86696150  0.06684650  0.10856200  1
  Al  Al20  1  0.42360450  0.12761550  0.96484300  1
  Al  Al21  1  0.57639550  0.12761550  0.53515700  1
  Al  Al22  1  0.57639550  0.87238450  0.03515700  1
  Al  Al23  1  0.42360450  0.87238450  0.46484300  1
  Si  Si24  1  0.92404300  0.13529200  0.47379000  1
  Si  Si25  1  0.07595700  0.86470800  0.52621000  1
  Si  Si26  1  0.14124100  0.43097300  0.40241400  1
  Si  Si27  1  0.07595700  0.13529200  0.02621000  1
  Si  Si28  1  0.85875900  0.56902700  0.59758600  1
  Si  Si29  1  0.14124100  0.56902700  0.90241400  1
  Si  Si30  1  0.85875900  0.43097300  0.09758600  1
  Si  Si31  1  0.92404300  0.86470800  0.97379000  1
  Si  Si32  1  0.42404300  0.63529200  0.47379000  1
  Si  Si33  1  0.57595700  0.36470800  0.52621000  1
  Si  Si34  1  0.64124100  0.93097300  0.40241400  1
  Si  Si35  1  0.57595700  0.63529200  0.02621000  1
  Si  Si36  1  0.35875900  0.06902700  0.59758600  1
  Si  Si37  1  0.64124100  0.06902700  0.90241400  1
  Si  Si38  1  0.35875900  0.93097300  0.09758600  1
  Si  Si39  1  0.42404300  0.36470800  0.97379000  1
  O  O40  1  0.95302600  0.12930700  0.01091200  1
  O  O41  1  0.04697400  0.12930700  0.48908800  1
  O  O42  1  0.04697400  0.87069300  0.98908800  1
  O  O43  1  0.95302600  0.87069300  0.51091200  1
  O  O44  1  0.94411650  0.62089150  0.51085300  1
  O  O45  1  0.05588350  0.62089150  0.98914700  1
  O  O46  1  0.05588350  0.37910850  0.48914700  1
  O  O47  1  0.94411650  0.37910850  0.01085300  1
  O  O48  1  0.38277750  0.43578850  0.10153600  1
  O  O49  1  0.61722250  0.43578850  0.39846400  1
  O  O50  1  0.61722250  0.56421150  0.89846400  1
  O  O51  1  0.38277750  0.56421150  0.60153600  1
  O  O52  1  0.87056000  0.44642900  0.59650000  1
  O  O53  1  0.12944000  0.44642900  0.90350000  1
  O  O54  1  0.12944000  0.55357100  0.40350000  1
  O  O55  1  0.87056000  0.55357100  0.09650000  1
  O  O56  1  0.36521900  0.61393000  0.29553300  1
  O  O57  1  0.63478100  0.61393000  0.20446700  1
  O  O58  1  0.63478100  0.38607000  0.70446700  1
  O  O59  1  0.36521900  0.38607000  0.79553300  1
  O  O60  1  0.75047950  0.38793550  0.99682400  1
  O  O61  1  0.24952050  0.38793550  0.50317600  1
  O  O62  1  0.24952050  0.61206450  0.00317600  1
  O  O63  1  0.75047950  0.61206450  0.49682400  1
  O  O64  1  0.89304200  0.24991000  0.52317900  1
  O  O65  1  0.10695800  0.24991000  0.97682100  1
  O  O66  1  0.10695800  0.75009000  0.47682100  1
  O  O67  1  0.89304200  0.75009000  0.02317900  1
  O  O68  1  0.86021250  0.38658650  0.27194500  1
  O  O69  1  0.13978750  0.38658650  0.22805500  1
  O  O70  1  0.13978750  0.61341350  0.72805500  1
  O  O71  1  0.86021250  0.61341350  0.77194500  1
  O  O72  1  0.45302600  0.62930700  0.01091200  1
  O  O73  1  0.54697400  0.62930700  0.48908800  1
  O  O74  1  0.54697400  0.37069300  0.98908800  1
  O  O75  1  0.45302600  0.37069300  0.51091200  1
  O  O76  1  0.44411650  0.12089150  0.51085300  1
  O  O77  1  0.55588350  0.12089150  0.98914700  1
  O  O78  1  0.55588350  0.87910850  0.48914700  1
  O  O79  1  0.44411650  0.87910850  0.01085300  1
  O  O80  1  0.88277750  0.93578850  0.10153600  1
  O  O81  1  0.11722250  0.93578850  0.39846400  1
  O  O82  1  0.11722250  0.06421150  0.89846400  1
  O  O83  1  0.88277750  0.06421150  0.60153600  1
  O  O84  1  0.37056000  0.94642900  0.59650000  1
  O  O85  1  0.62944000  0.94642900  0.90350000  1
  O  O86  1  0.62944000  0.05357100  0.40350000  1
  O  O87  1  0.37056000  0.05357100  0.09650000  1
  O  O88  1  0.86521900  0.11393000  0.29553300  1
  O  O89  1  0.13478100  0.11393000  0.20446700  1
  O  O90  1  0.13478100  0.88607000  0.70446700  1
  O  O91  1  0.86521900  0.88607000  0.79553300  1
  O  O92  1  0.25047950  0.88793550  0.99682400  1
  O  O93  1  0.74952050  0.88793550  0.50317600  1
  O  O94  1  0.74952050  0.11206450  0.00317600  1
  O  O95  1  0.25047950  0.11206450  0.49682400  1
  O  O96  1  0.39304200  0.74991000  0.52317900  1
  O  O97  1  0.60695800  0.74991000  0.97682100  1
  O  O98  1  0.60695800  0.25009000  0.47682100  1
  O  O99  1  0.39304200  0.25009000  0.02317900  1
  O  O100  1  0.36021250  0.88658650  0.27194500  1
  O  O101  1  0.63978750  0.88658650  0.22805500  1
  O  O102  1  0.63978750  0.11341350  0.72805500  1
  O  O103  1  0.36021250  0.11341350  0.77194500  1
