# generated using pymatgen
data_CaMg3SiN4
_symmetry_space_group_name_H-M   'P 1'
_cell_length_a   11.49201400
_cell_length_b   11.49201400
_cell_length_c   13.49335400
_cell_angle_alpha   90.00000000
_cell_angle_beta   90.00000000
_cell_angle_gamma   90.00000000
_symmetry_Int_Tables_number   1
_chemical_formula_structural   CaMg3SiN4
_chemical_formula_sum   'Ca16 Mg48 Si16 N64'
_cell_volume   1782.01849478
_cell_formula_units_Z   16
loop_
 _symmetry_equiv_pos_site_id
 _symmetry_equiv_pos_as_xyz
  1  'x, y, z'
loop_
 _atom_site_type_symbol
 _atom_site_label
 _atom_site_symmetry_multiplicity
 _atom_site_fract_x
 _atom_site_fract_y
 _atom_site_fract_z
 _atom_site_occupancy
  Ca  Ca0  1  0.26433000  0.22788400  0.96718800  1
  Ca  Ca1  1  0.23567000  0.27211600  0.46718800  1
  Ca  Ca2  1  0.27211600  0.26433000  0.71718800  1
  Ca  Ca3  1  0.22788400  0.23567000  0.21718800  1
  Ca  Ca4  1  0.73567000  0.27211600  0.28281200  1
  Ca  Ca5  1  0.76433000  0.22788400  0.78281200  1
  Ca  Ca6  1  0.22788400  0.73567000  0.03281200  1
  Ca  Ca7  1  0.27211600  0.76433000  0.53281200  1
  Ca  Ca8  1  0.76433000  0.72788400  0.46718800  1
  Ca  Ca9  1  0.73567000  0.77211600  0.96718800  1
  Ca  Ca10  1  0.77211600  0.76433000  0.21718800  1
  Ca  Ca11  1  0.72788400  0.73567000  0.71718800  1
  Ca  Ca12  1  0.23567000  0.77211600  0.78281200  1
  Ca  Ca13  1  0.26433000  0.72788400  0.28281200  1
  Ca  Ca14  1  0.72788400  0.23567000  0.53281200  1
  Ca  Ca15  1  0.77211600  0.26433000  0.03281200  1
  Mg  Mg16  1  0.50373250  0.36383150  0.80332850  1
  Mg  Mg17  1  0.99626750  0.13616850  0.30332850  1
  Mg  Mg18  1  0.63616850  0.00373250  0.05332850  1
  Mg  Mg19  1  0.36383150  0.99626750  0.05332850  1
  Mg  Mg20  1  0.49626750  0.13616850  0.44667150  1
  Mg  Mg21  1  0.50373250  0.86383150  0.44667150  1
  Mg  Mg22  1  0.36383150  0.49626750  0.19667150  1
  Mg  Mg23  1  0.13616850  0.00373250  0.69667150  1
  Mg  Mg24  1  0.33900800  0.51699500  0.93531800  1
  Mg  Mg25  1  0.16099200  0.98300500  0.43531800  1
  Mg  Mg26  1  0.48300500  0.83900800  0.18531800  1
  Mg  Mg27  1  0.51699500  0.16099200  0.18531800  1
  Mg  Mg28  1  0.66099200  0.98300500  0.31468200  1
  Mg  Mg29  1  0.33900800  0.01699500  0.31468200  1
  Mg  Mg30  1  0.01699500  0.16099200  0.56468200  1
  Mg  Mg31  1  0.48300500  0.33900800  0.06468200  1
  Mg  Mg32  1  0.65571550  0.47079450  0.43641450  1
  Mg  Mg33  1  0.34428450  0.52920550  0.43641450  1
  Mg  Mg34  1  0.02920550  0.65571550  0.18641450  1
  Mg  Mg35  1  0.97079450  0.34428450  0.18641450  1
  Mg  Mg36  1  0.84428450  0.52920550  0.31358550  1
  Mg  Mg37  1  0.15571550  0.47079450  0.31358550  1
  Mg  Mg38  1  0.97079450  0.84428450  0.06358550  1
  Mg  Mg39  1  0.02920550  0.15571550  0.06358550  1
  Mg  Mg40  1  0.00373250  0.86383150  0.30332850  1
  Mg  Mg41  1  0.49626750  0.63616850  0.80332850  1
  Mg  Mg42  1  0.13616850  0.50373250  0.55332850  1
  Mg  Mg43  1  0.86383150  0.49626750  0.55332850  1
  Mg  Mg44  1  0.99626750  0.63616850  0.94667150  1
  Mg  Mg45  1  0.00373250  0.36383150  0.94667150  1
  Mg  Mg46  1  0.86383150  0.99626750  0.69667150  1
  Mg  Mg47  1  0.63616850  0.50373250  0.19667150  1
  Mg  Mg48  1  0.83900800  0.01699500  0.43531800  1
  Mg  Mg49  1  0.66099200  0.48300500  0.93531800  1
  Mg  Mg50  1  0.98300500  0.33900800  0.68531800  1
  Mg  Mg51  1  0.01699500  0.66099200  0.68531800  1
  Mg  Mg52  1  0.16099200  0.48300500  0.81468200  1
  Mg  Mg53  1  0.83900800  0.51699500  0.81468200  1
  Mg  Mg54  1  0.51699500  0.66099200  0.06468200  1
  Mg  Mg55  1  0.98300500  0.83900800  0.56468200  1
  Mg  Mg56  1  0.15571550  0.97079450  0.93641450  1
  Mg  Mg57  1  0.84428450  0.02920550  0.93641450  1
  Mg  Mg58  1  0.52920550  0.15571550  0.68641450  1
  Mg  Mg59  1  0.47079450  0.84428450  0.68641450  1
  Mg  Mg60  1  0.34428450  0.02920550  0.81358550  1
  Mg  Mg61  1  0.65571550  0.97079450  0.81358550  1
  Mg  Mg62  1  0.47079450  0.34428450  0.56358550  1
  Mg  Mg63  1  0.52920550  0.65571550  0.56358550  1
  Si  Si64  1  0.53913000  0.67993100  0.32100300  1
  Si  Si65  1  0.46087000  0.32006900  0.32100300  1
  Si  Si66  1  0.32006900  0.03913000  0.57100300  1
  Si  Si67  1  0.17993100  0.46087000  0.07100300  1
  Si  Si68  1  0.96087000  0.32006900  0.42899700  1
  Si  Si69  1  0.53913000  0.17993100  0.92899700  1
  Si  Si70  1  0.17993100  0.96087000  0.17899700  1
  Si  Si71  1  0.82006900  0.03913000  0.17899700  1
  Si  Si72  1  0.03913000  0.17993100  0.82100300  1
  Si  Si73  1  0.96087000  0.82006900  0.82100300  1
  Si  Si74  1  0.82006900  0.53913000  0.07100300  1
  Si  Si75  1  0.67993100  0.96087000  0.57100300  1
  Si  Si76  1  0.46087000  0.82006900  0.92899700  1
  Si  Si77  1  0.03913000  0.67993100  0.42899700  1
  Si  Si78  1  0.67993100  0.46087000  0.67899700  1
  Si  Si79  1  0.32006900  0.53913000  0.67899700  1
  N  N80  1  0.34941700  0.45809900  0.78891800  1
  N  N81  1  0.15058300  0.04190100  0.28891800  1
  N  N82  1  0.04190100  0.34941700  0.53891800  1
  N  N83  1  0.45809900  0.15058300  0.03891800  1
  N  N84  1  0.15058300  0.54190100  0.96108200  1
  N  N85  1  0.34941700  0.95809900  0.46108200  1
  N  N86  1  0.95809900  0.15058300  0.71108200  1
  N  N87  1  0.54190100  0.34941700  0.21108200  1
  N  N88  1  0.16906600  0.09882000  0.82796100  1
  N  N89  1  0.33093400  0.40118000  0.32796100  1
  N  N90  1  0.40118000  0.16906600  0.57796100  1
  N  N91  1  0.09882000  0.33093400  0.07796100  1
  N  N92  1  0.83093400  0.40118000  0.42203900  1
  N  N93  1  0.66906600  0.09882000  0.92203900  1
  N  N94  1  0.59882000  0.33093400  0.67203900  1
  N  N95  1  0.90118000  0.16906600  0.17203900  1
  N  N96  1  0.58732650  0.82620750  0.30927750  1
  N  N97  1  0.41267350  0.17379250  0.30927750  1
  N  N98  1  0.17379250  0.08732650  0.55927750  1
  N  N99  1  0.32620750  0.41267350  0.05927750  1
  N  N100  1  0.91267350  0.17379250  0.44072250  1
  N  N101  1  0.58732650  0.32620750  0.94072250  1
  N  N102  1  0.32620750  0.91267350  0.19072250  1
  N  N103  1  0.67379250  0.08732650  0.19072250  1
  N  N104  1  0.44546750  0.17837050  0.82423450  1
  N  N105  1  0.05453250  0.32162950  0.32423450  1
  N  N106  1  0.82162950  0.94546750  0.07423450  1
  N  N107  1  0.17837050  0.05453250  0.07423450  1
  N  N108  1  0.55453250  0.32162950  0.42576550  1
  N  N109  1  0.44546750  0.67837050  0.42576550  1
  N  N110  1  0.17837050  0.55453250  0.17576550  1
  N  N111  1  0.32162950  0.94546750  0.67576550  1
  N  N112  1  0.84941700  0.95809900  0.28891800  1
  N  N113  1  0.65058300  0.54190100  0.78891800  1
  N  N114  1  0.54190100  0.84941700  0.03891800  1
  N  N115  1  0.95809900  0.65058300  0.53891800  1
  N  N116  1  0.65058300  0.04190100  0.46108200  1
  N  N117  1  0.84941700  0.45809900  0.96108200  1
  N  N118  1  0.45809900  0.65058300  0.21108200  1
  N  N119  1  0.04190100  0.84941700  0.71108200  1
  N  N120  1  0.66906600  0.59882000  0.32796100  1
  N  N121  1  0.83093400  0.90118000  0.82796100  1
  N  N122  1  0.90118000  0.66906600  0.07796100  1
  N  N123  1  0.59882000  0.83093400  0.57796100  1
  N  N124  1  0.33093400  0.90118000  0.92203900  1
  N  N125  1  0.16906600  0.59882000  0.42203900  1
  N  N126  1  0.09882000  0.83093400  0.17203900  1
  N  N127  1  0.40118000  0.66906600  0.67203900  1
  N  N128  1  0.08732650  0.32620750  0.80927750  1
  N  N129  1  0.91267350  0.67379250  0.80927750  1
  N  N130  1  0.67379250  0.58732650  0.05927750  1
  N  N131  1  0.82620750  0.91267350  0.55927750  1
  N  N132  1  0.41267350  0.67379250  0.94072250  1
  N  N133  1  0.08732650  0.82620750  0.44072250  1
  N  N134  1  0.82620750  0.41267350  0.69072250  1
  N  N135  1  0.17379250  0.58732650  0.69072250  1
  N  N136  1  0.94546750  0.67837050  0.32423450  1
  N  N137  1  0.55453250  0.82162950  0.82423450  1
  N  N138  1  0.32162950  0.44546750  0.57423450  1
  N  N139  1  0.67837050  0.55453250  0.57423450  1
  N  N140  1  0.05453250  0.82162950  0.92576550  1
  N  N141  1  0.94546750  0.17837050  0.92576550  1
  N  N142  1  0.67837050  0.05453250  0.67576550  1
  N  N143  1  0.82162950  0.44546750  0.17576550  1
