# generated using pymatgen
data_NaYTiO4
_symmetry_space_group_name_H-M   'P 1'
_cell_length_a   5.30364800
_cell_length_b   5.43983200
_cell_length_c   12.47126600
_cell_angle_alpha   90.00000000
_cell_angle_beta   90.00000000
_cell_angle_gamma   90.00000000
_symmetry_Int_Tables_number   1
_chemical_formula_structural   NaYTiO4
_chemical_formula_sum   'Na4 Y4 Ti4 O16'
_cell_volume   359.80792302
_cell_formula_units_Z   4
loop_
 _symmetry_equiv_pos_site_id
 _symmetry_equiv_pos_as_xyz
  1  'x, y, z'
loop_
 _atom_site_type_symbol
 _atom_site_label
 _atom_site_symmetry_multiplicity
 _atom_site_fract_x
 _atom_site_fract_y
 _atom_site_fract_z
 _atom_site_occupancy
  Na  Na0  1  0.75000000  0.99834900  0.41342800  1
  Na  Na1  1  0.75000000  0.49834900  0.58657200  1
  Na  Na2  1  0.25000000  0.00165100  0.58657200  1
  Na  Na3  1  0.25000000  0.50165100  0.41342800  1
  Y  Y4  1  0.75000000  0.97470400  0.10608100  1
  Y  Y5  1  0.75000000  0.47470400  0.89391900  1
  Y  Y6  1  0.25000000  0.52529600  0.10608100  1
  Y  Y7  1  0.25000000  0.02529600  0.89391900  1
  Ti  Ti8  1  0.25000000  0.00864300  0.26246300  1
  Ti  Ti9  1  0.75000000  0.49135700  0.26246300  1
  Ti  Ti10  1  0.25000000  0.50864300  0.73753700  1
  Ti  Ti11  1  0.75000000  0.99135700  0.73753700  1
  O  O12  1  0.25000000  0.54896200  0.59763300  1
  O  O13  1  0.75000000  0.45103800  0.40236700  1
  O  O14  1  0.25000000  0.04896200  0.40236700  1
  O  O15  1  0.75000000  0.95103800  0.59763300  1
  O  O16  1  0.25000000  0.42765900  0.93604600  1
  O  O17  1  0.75000000  0.57234100  0.06395400  1
  O  O18  1  0.25000000  0.92765900  0.06395400  1
  O  O19  1  0.75000000  0.07234100  0.93604600  1
  O  O20  1  0.50000000  0.75000000  0.24354100  1
  O  O21  1  0.00000000  0.25000000  0.75645900  1
  O  O22  1  0.50000000  0.25000000  0.75645900  1
  O  O23  1  0.00000000  0.75000000  0.24354100  1
  O  O24  1  0.00000000  0.75000000  0.78953100  1
  O  O25  1  0.50000000  0.25000000  0.21046900  1
  O  O26  1  0.00000000  0.25000000  0.21046900  1
  O  O27  1  0.50000000  0.75000000  0.78953100  1
