# generated using pymatgen
data_KThCuS3
_symmetry_space_group_name_H-M   'P 1'
_cell_length_a   4.09135000
_cell_length_b   14.12261400
_cell_length_c   10.58797400
_cell_angle_alpha   90.00000000
_cell_angle_beta   90.00000000
_cell_angle_gamma   90.00000000
_symmetry_Int_Tables_number   1
_chemical_formula_structural   KThCuS3
_chemical_formula_sum   'K4 Th4 Cu4 S12'
_cell_volume   611.77903299
_cell_formula_units_Z   4
loop_
 _symmetry_equiv_pos_site_id
 _symmetry_equiv_pos_as_xyz
  1  'x, y, z'
loop_
 _atom_site_type_symbol
 _atom_site_label
 _atom_site_symmetry_multiplicity
 _atom_site_fract_x
 _atom_site_fract_y
 _atom_site_fract_z
 _atom_site_occupancy
  K  K0  1  0.50000000  0.24430200  0.75000000  1
  K  K1  1  0.00000000  0.25569800  0.25000000  1
  K  K2  1  0.00000000  0.74430200  0.75000000  1
  K  K3  1  0.50000000  0.75569800  0.25000000  1
  Th  Th4  1  0.00000000  0.00000000  0.50000000  1
  Th  Th5  1  0.00000000  0.00000000  0.00000000  1
  Th  Th6  1  0.50000000  0.50000000  0.50000000  1
  Th  Th7  1  0.50000000  0.50000000  0.00000000  1
  Cu  Cu8  1  0.00000000  0.46961100  0.75000000  1
  Cu  Cu9  1  0.50000000  0.03038900  0.25000000  1
  Cu  Cu10  1  0.50000000  0.96961100  0.75000000  1
  Cu  Cu11  1  0.00000000  0.53038900  0.25000000  1
  S  S12  1  0.50000000  0.12378000  0.43074600  1
  S  S13  1  0.00000000  0.37622000  0.56925400  1
  S  S14  1  0.50000000  0.43565900  0.25000000  1
  S  S15  1  0.00000000  0.06434100  0.75000000  1
  S  S16  1  0.00000000  0.37622000  0.93074600  1
  S  S17  1  0.50000000  0.12378000  0.06925400  1
  S  S18  1  0.00000000  0.62378000  0.43074600  1
  S  S19  1  0.50000000  0.87622000  0.56925400  1
  S  S20  1  0.00000000  0.93565900  0.25000000  1
  S  S21  1  0.50000000  0.56434100  0.75000000  1
  S  S22  1  0.50000000  0.87622000  0.93074600  1
  S  S23  1  0.00000000  0.62378000  0.06925400  1
