# generated using pymatgen
data_BaS4O13
_symmetry_space_group_name_H-M   'P 1'
_cell_length_a   9.52908400
_cell_length_b   12.06063600
_cell_length_c   9.81984021
_cell_angle_alpha   90.00000000
_cell_angle_beta   98.58526433
_cell_angle_gamma   90.00000000
_symmetry_Int_Tables_number   1
_chemical_formula_structural   BaS4O13
_chemical_formula_sum   'Ba4 S16 O52'
_cell_volume   1115.91717857
_cell_formula_units_Z   4
loop_
 _symmetry_equiv_pos_site_id
 _symmetry_equiv_pos_as_xyz
  1  'x, y, z'
loop_
 _atom_site_type_symbol
 _atom_site_label
 _atom_site_symmetry_multiplicity
 _atom_site_fract_x
 _atom_site_fract_y
 _atom_site_fract_z
 _atom_site_occupancy
  Ba  Ba0  1  0.50000000  0.69555200  0.25000000  1
  Ba  Ba1  1  0.50000000  0.30444800  0.75000000  1
  Ba  Ba2  1  0.00000000  0.19555200  0.25000000  1
  Ba  Ba3  1  0.00000000  0.80444800  0.75000000  1
  S  S4  1  0.59781300  0.17196800  0.38134200  1
  S  S5  1  0.40218700  0.17196800  0.11865800  1
  S  S6  1  0.40218700  0.82803200  0.61865800  1
  S  S7  1  0.59781300  0.82803200  0.88134200  1
  S  S8  1  0.75770450  0.95460650  0.42188800  1
  S  S9  1  0.24229550  0.95460650  0.07811200  1
  S  S10  1  0.24229550  0.04539350  0.57811200  1
  S  S11  1  0.75770450  0.04539350  0.92188800  1
  S  S12  1  0.09781300  0.67196800  0.38134200  1
  S  S13  1  0.90218700  0.67196800  0.11865800  1
  S  S14  1  0.90218700  0.32803200  0.61865800  1
  S  S15  1  0.09781300  0.32803200  0.88134200  1
  S  S16  1  0.25770450  0.45460650  0.42188800  1
  S  S17  1  0.74229550  0.45460650  0.07811200  1
  S  S18  1  0.74229550  0.54539350  0.57811200  1
  S  S19  1  0.25770450  0.54539350  0.92188800  1
  O  O20  1  0.71430600  0.22408600  0.32920600  1
  O  O21  1  0.28569400  0.22408600  0.17079400  1
  O  O22  1  0.28569400  0.77591400  0.67079400  1
  O  O23  1  0.71430600  0.77591400  0.82920600  1
  O  O24  1  0.50747900  0.23823900  0.45330100  1
  O  O25  1  0.49252100  0.23823900  0.04669900  1
  O  O26  1  0.49252100  0.76176100  0.54669900  1
  O  O27  1  0.50747900  0.76176100  0.95330100  1
  O  O28  1  0.50000000  0.11014700  0.25000000  1
  O  O29  1  0.50000000  0.88985300  0.75000000  1
  O  O30  1  0.63956700  0.06799100  0.46755200  1
  O  O31  1  0.36043300  0.06799100  0.03244800  1
  O  O32  1  0.36043300  0.93200900  0.53244800  1
  O  O33  1  0.63956700  0.93200900  0.96755200  1
  O  O34  1  0.65917300  0.89240100  0.32542300  1
  O  O35  1  0.34082700  0.89240100  0.17457700  1
  O  O36  1  0.34082700  0.10759900  0.67457700  1
  O  O37  1  0.65917300  0.10759900  0.82542300  1
  O  O38  1  0.79158450  0.90949750  0.55886600  1
  O  O39  1  0.20841550  0.90949750  0.94113400  1
  O  O40  1  0.20841550  0.09050250  0.44113400  1
  O  O41  1  0.79158450  0.09050250  0.05886600  1
  O  O42  1  0.86851150  0.01433050  0.36799100  1
  O  O43  1  0.13148850  0.01433050  0.13200900  1
  O  O44  1  0.13148850  0.98566950  0.63200900  1
  O  O45  1  0.86851150  0.98566950  0.86799100  1
  O  O46  1  0.21430600  0.72408600  0.32920600  1
  O  O47  1  0.78569400  0.72408600  0.17079400  1
  O  O48  1  0.78569400  0.27591400  0.67079400  1
  O  O49  1  0.21430600  0.27591400  0.82920600  1
  O  O50  1  0.00747900  0.73823900  0.45330100  1
  O  O51  1  0.99252100  0.73823900  0.04669900  1
  O  O52  1  0.99252100  0.26176100  0.54669900  1
  O  O53  1  0.00747900  0.26176100  0.95330100  1
  O  O54  1  0.00000000  0.61014700  0.25000000  1
  O  O55  1  0.00000000  0.38985300  0.75000000  1
  O  O56  1  0.13956700  0.56799100  0.46755200  1
  O  O57  1  0.86043300  0.56799100  0.03244800  1
  O  O58  1  0.86043300  0.43200900  0.53244800  1
  O  O59  1  0.13956700  0.43200900  0.96755200  1
  O  O60  1  0.15917300  0.39240100  0.32542300  1
  O  O61  1  0.84082700  0.39240100  0.17457700  1
  O  O62  1  0.84082700  0.60759900  0.67457700  1
  O  O63  1  0.15917300  0.60759900  0.82542300  1
  O  O64  1  0.29158450  0.40949750  0.55886600  1
  O  O65  1  0.70841550  0.40949750  0.94113400  1
  O  O66  1  0.70841550  0.59050250  0.44113400  1
  O  O67  1  0.29158450  0.59050250  0.05886600  1
  O  O68  1  0.36851150  0.51433050  0.36799100  1
  O  O69  1  0.63148850  0.51433050  0.13200900  1
  O  O70  1  0.63148850  0.48566950  0.63200900  1
  O  O71  1  0.36851150  0.48566950  0.86799100  1
