# generated using pymatgen
data_Sc2(SO4)3
_symmetry_space_group_name_H-M   'P 1'
_cell_length_a   8.85173958
_cell_length_b   8.85173958
_cell_length_c   22.85511262
_cell_angle_alpha   90.00000000
_cell_angle_beta   90.00000000
_cell_angle_gamma   120.00000000
_symmetry_Int_Tables_number   1
_chemical_formula_structural   Sc2(SO4)3
_chemical_formula_sum   'Sc12 S18 O72'
_cell_volume   1550.85521276
_cell_formula_units_Z   6
loop_
 _symmetry_equiv_pos_site_id
 _symmetry_equiv_pos_as_xyz
  1  'x, y, z'
loop_
 _atom_site_type_symbol
 _atom_site_label
 _atom_site_symmetry_multiplicity
 _atom_site_fract_x
 _atom_site_fract_y
 _atom_site_fract_z
 _atom_site_occupancy
  Sc  Sc0  1  0.00000000  0.00000000  0.14414300  1
  Sc  Sc1  1  0.66666667  0.33333333  0.18919033  1
  Sc  Sc2  1  0.33333333  0.66666667  0.02252367  1
  Sc  Sc3  1  0.33333333  0.66666667  0.31080967  1
  Sc  Sc4  1  0.66666667  0.33333333  0.47747633  1
  Sc  Sc5  1  0.33333333  0.66666667  0.52252367  1
  Sc  Sc6  1  0.00000000  0.00000000  0.35585700  1
  Sc  Sc7  1  0.00000000  0.00000000  0.64414300  1
  Sc  Sc8  1  0.33333333  0.66666667  0.81080967  1
  Sc  Sc9  1  0.00000000  0.00000000  0.85585700  1
  Sc  Sc10  1  0.66666667  0.33333333  0.68919033  1
  Sc  Sc11  1  0.66666667  0.33333333  0.97747633  1
  S  S12  1  0.95312067  0.33333333  0.08333333  1
  S  S13  1  0.38021267  0.04687933  0.08333333  1
  S  S14  1  0.66666667  0.61978733  0.08333333  1
  S  S15  1  0.71354600  0.00000000  0.25000000  1
  S  S16  1  0.00000000  0.71354600  0.25000000  1
  S  S17  1  0.28645400  0.28645400  0.25000000  1
  S  S18  1  0.61978733  0.66666667  0.41666667  1
  S  S19  1  0.04687933  0.38021267  0.41666667  1
  S  S20  1  0.33333333  0.95312067  0.41666667  1
  S  S21  1  0.38021267  0.33333333  0.58333333  1
  S  S22  1  0.66666667  0.04687933  0.58333333  1
  S  S23  1  0.95312067  0.61978733  0.58333333  1
  S  S24  1  0.28645400  0.00000000  0.75000000  1
  S  S25  1  0.71354600  0.71354600  0.75000000  1
  S  S26  1  0.00000000  0.28645400  0.75000000  1
  S  S27  1  0.04687933  0.66666667  0.91666667  1
  S  S28  1  0.33333333  0.38021267  0.91666667  1
  S  S29  1  0.61978733  0.95312067  0.91666667  1
  O  O30  1  0.02989233  0.82360267  0.19767767  1
  O  O31  1  0.17639733  0.20628967  0.19767767  1
  O  O32  1  0.79371033  0.97010767  0.19767767  1
  O  O33  1  0.63677433  0.50973067  0.13565567  1
  O  O34  1  0.49026933  0.12704367  0.13565567  1
  O  O35  1  0.87295633  0.36322567  0.13565567  1
  O  O36  1  0.97010767  0.79371033  0.30232233  1
  O  O37  1  0.20628967  0.17639733  0.30232233  1
  O  O38  1  0.82360267  0.02989233  0.30232233  1
  O  O39  1  0.69655900  0.53962300  0.03101100  1
  O  O40  1  0.97188733  0.17793867  0.09198067  1
  O  O41  1  0.20605133  0.02811267  0.09198067  1
  O  O42  1  0.82206133  0.79394867  0.09198067  1
  O  O43  1  0.69477933  0.15539467  0.24135267  1
  O  O44  1  0.46061533  0.30522067  0.24135267  1
  O  O45  1  0.84460533  0.53938467  0.24135267  1
  O  O46  1  0.12728200  0.48872800  0.07468600  1
  O  O47  1  0.36144600  0.87271800  0.07468600  1
  O  O48  1  0.51127200  0.63855400  0.07468600  1
  O  O49  1  0.53938467  0.84460533  0.25864733  1
  O  O50  1  0.30522067  0.46061533  0.25864733  1
  O  O51  1  0.15539467  0.69477933  0.25864733  1
  O  O52  1  0.84306400  0.30344100  0.03101100  1
  O  O53  1  0.46037700  0.15693600  0.03101100  1
  O  O54  1  0.69655900  0.15693600  0.53101100  1
  O  O55  1  0.84306400  0.53962300  0.53101100  1
  O  O56  1  0.46037700  0.30344100  0.53101100  1
  O  O57  1  0.30344100  0.84306400  0.46898900  1
  O  O58  1  0.15693600  0.46037700  0.46898900  1
  O  O59  1  0.53962300  0.69655900  0.46898900  1
  O  O60  1  0.63677433  0.12704367  0.63565567  1
  O  O61  1  0.87295633  0.50973067  0.63565567  1
  O  O62  1  0.49026933  0.36322567  0.63565567  1
  O  O63  1  0.36322567  0.87295633  0.36434433  1
  O  O64  1  0.63855400  0.51127200  0.42531400  1
  O  O65  1  0.87271800  0.36144600  0.42531400  1
  O  O66  1  0.48872800  0.12728200  0.42531400  1
  O  O67  1  0.36144600  0.48872800  0.57468600  1
  O  O68  1  0.12728200  0.63855400  0.57468600  1
  O  O69  1  0.51127200  0.87271800  0.57468600  1
  O  O70  1  0.79394867  0.82206133  0.40801933  1
  O  O71  1  0.02811267  0.20605133  0.40801933  1
  O  O72  1  0.17793867  0.97188733  0.40801933  1
  O  O73  1  0.20605133  0.17793867  0.59198067  1
  O  O74  1  0.97188733  0.79394867  0.59198067  1
  O  O75  1  0.82206133  0.02811267  0.59198067  1
  O  O76  1  0.50973067  0.63677433  0.36434433  1
  O  O77  1  0.12704367  0.49026933  0.36434433  1
  O  O78  1  0.36322567  0.49026933  0.86434433  1
  O  O79  1  0.50973067  0.87295633  0.86434433  1
  O  O80  1  0.12704367  0.63677433  0.86434433  1
  O  O81  1  0.97010767  0.17639733  0.80232233  1
  O  O82  1  0.82360267  0.79371033  0.80232233  1
  O  O83  1  0.20628967  0.02989233  0.80232233  1
  O  O84  1  0.30344100  0.46037700  0.96898900  1
  O  O85  1  0.53962300  0.84306400  0.96898900  1
  O  O86  1  0.15693600  0.69655900  0.96898900  1
  O  O87  1  0.02989233  0.20628967  0.69767767  1
  O  O88  1  0.30522067  0.84460533  0.75864733  1
  O  O89  1  0.53938467  0.69477933  0.75864733  1
  O  O90  1  0.15539467  0.46061533  0.75864733  1
  O  O91  1  0.02811267  0.82206133  0.90801933  1
  O  O92  1  0.79394867  0.97188733  0.90801933  1
  O  O93  1  0.17793867  0.20605133  0.90801933  1
  O  O94  1  0.46061533  0.15539467  0.74135267  1
  O  O95  1  0.69477933  0.53938467  0.74135267  1
  O  O96  1  0.84460533  0.30522067  0.74135267  1
  O  O97  1  0.87271800  0.51127200  0.92531400  1
  O  O98  1  0.63855400  0.12728200  0.92531400  1
  O  O99  1  0.48872800  0.36144600  0.92531400  1
  O  O100  1  0.17639733  0.97010767  0.69767767  1
  O  O101  1  0.79371033  0.82360267  0.69767767  1
