# generated using pymatgen
data_Rb2NbCuS4
_symmetry_space_group_name_H-M   'P 1'
_cell_length_a   5.60702600
_cell_length_b   13.84108600
_cell_length_c   24.31644800
_cell_angle_alpha   90.00000000
_cell_angle_beta   90.00000000
_cell_angle_gamma   90.00000000
_symmetry_Int_Tables_number   1
_chemical_formula_structural   Rb2NbCuS4
_chemical_formula_sum   'Rb16 Nb8 Cu8 S32'
_cell_volume   1887.13458176
_cell_formula_units_Z   8
loop_
 _symmetry_equiv_pos_site_id
 _symmetry_equiv_pos_as_xyz
  1  'x, y, z'
loop_
 _atom_site_type_symbol
 _atom_site_label
 _atom_site_symmetry_multiplicity
 _atom_site_fract_x
 _atom_site_fract_y
 _atom_site_fract_z
 _atom_site_occupancy
  Rb  Rb0  1  0.50000000  0.00000000  0.82251100  1
  Rb  Rb1  1  0.00000000  0.00000000  0.67748900  1
  Rb  Rb2  1  0.75000000  0.75000000  0.92748900  1
  Rb  Rb3  1  0.75000000  0.75000000  0.57251100  1
  Rb  Rb4  1  0.50000000  0.50000000  0.32251100  1
  Rb  Rb5  1  0.00000000  0.50000000  0.17748900  1
  Rb  Rb6  1  0.75000000  0.25000000  0.42748900  1
  Rb  Rb7  1  0.75000000  0.25000000  0.07251100  1
  Rb  Rb8  1  0.00000000  0.00000000  0.32251100  1
  Rb  Rb9  1  0.50000000  0.00000000  0.17748900  1
  Rb  Rb10  1  0.25000000  0.75000000  0.42748900  1
  Rb  Rb11  1  0.25000000  0.75000000  0.07251100  1
  Rb  Rb12  1  0.00000000  0.50000000  0.82251100  1
  Rb  Rb13  1  0.50000000  0.50000000  0.67748900  1
  Rb  Rb14  1  0.25000000  0.25000000  0.92748900  1
  Rb  Rb15  1  0.25000000  0.25000000  0.57251100  1
  Nb  Nb16  1  0.75000000  0.75000000  0.75000000  1
  Nb  Nb17  1  0.50000000  0.00000000  0.00000000  1
  Nb  Nb18  1  0.75000000  0.25000000  0.25000000  1
  Nb  Nb19  1  0.50000000  0.50000000  0.50000000  1
  Nb  Nb20  1  0.25000000  0.75000000  0.25000000  1
  Nb  Nb21  1  0.00000000  0.00000000  0.50000000  1
  Nb  Nb22  1  0.25000000  0.25000000  0.75000000  1
  Nb  Nb23  1  0.00000000  0.50000000  0.00000000  1
  Cu  Cu24  1  0.25000000  0.75000000  0.75000000  1
  Cu  Cu25  1  0.00000000  0.00000000  0.00000000  1
  Cu  Cu26  1  0.25000000  0.25000000  0.25000000  1
  Cu  Cu27  1  0.00000000  0.50000000  0.50000000  1
  Cu  Cu28  1  0.75000000  0.75000000  0.25000000  1
  Cu  Cu29  1  0.50000000  0.00000000  0.50000000  1
  Cu  Cu30  1  0.75000000  0.25000000  0.75000000  1
  Cu  Cu31  1  0.50000000  0.50000000  0.00000000  1
  S  S32  1  0.25591600  0.59567000  0.55349700  1
  S  S33  1  0.25591600  0.90433000  0.94650300  1
  S  S34  1  0.24408400  0.59567000  0.94650300  1
  S  S35  1  0.24408400  0.90433000  0.55349700  1
  S  S36  1  0.50591600  0.84567000  0.69650300  1
  S  S37  1  0.99408400  0.84567000  0.80349700  1
  S  S38  1  0.50591600  0.65433000  0.80349700  1
  S  S39  1  0.99408400  0.65433000  0.69650300  1
  S  S40  1  0.25591600  0.09567000  0.05349700  1
  S  S41  1  0.25591600  0.40433000  0.44650300  1
  S  S42  1  0.24408400  0.09567000  0.44650300  1
  S  S43  1  0.24408400  0.40433000  0.05349700  1
  S  S44  1  0.50591600  0.34567000  0.19650300  1
  S  S45  1  0.99408400  0.34567000  0.30349700  1
  S  S46  1  0.50591600  0.15433000  0.30349700  1
  S  S47  1  0.99408400  0.15433000  0.19650300  1
  S  S48  1  0.75591600  0.59567000  0.05349700  1
  S  S49  1  0.75591600  0.90433000  0.44650300  1
  S  S50  1  0.74408400  0.59567000  0.44650300  1
  S  S51  1  0.74408400  0.90433000  0.05349700  1
  S  S52  1  0.00591600  0.84567000  0.19650300  1
  S  S53  1  0.49408400  0.84567000  0.30349700  1
  S  S54  1  0.00591600  0.65433000  0.30349700  1
  S  S55  1  0.49408400  0.65433000  0.19650300  1
  S  S56  1  0.75591600  0.09567000  0.55349700  1
  S  S57  1  0.75591600  0.40433000  0.94650300  1
  S  S58  1  0.74408400  0.09567000  0.94650300  1
  S  S59  1  0.74408400  0.40433000  0.55349700  1
  S  S60  1  0.00591600  0.34567000  0.69650300  1
  S  S61  1  0.49408400  0.34567000  0.80349700  1
  S  S62  1  0.00591600  0.15433000  0.80349700  1
  S  S63  1  0.49408400  0.15433000  0.69650300  1
