# generated using pymatgen
data_TbVO4
_symmetry_space_group_name_H-M   'P 1'
_cell_length_a   7.24330000
_cell_length_b   7.24330000
_cell_length_c   6.37235800
_cell_angle_alpha   90.00000000
_cell_angle_beta   90.00000000
_cell_angle_gamma   90.00000000
_symmetry_Int_Tables_number   1
_chemical_formula_structural   TbVO4
_chemical_formula_sum   'Tb4 V4 O16'
_cell_volume   334.32827885
_cell_formula_units_Z   4
loop_
 _symmetry_equiv_pos_site_id
 _symmetry_equiv_pos_as_xyz
  1  'x, y, z'
loop_
 _atom_site_type_symbol
 _atom_site_label
 _atom_site_symmetry_multiplicity
 _atom_site_fract_x
 _atom_site_fract_y
 _atom_site_fract_z
 _atom_site_occupancy
  Tb  Tb0  1  0.50000000  0.00000000  0.25000000  1
  Tb  Tb1  1  0.50000000  0.50000000  0.50000000  1
  Tb  Tb2  1  0.00000000  0.50000000  0.75000000  1
  Tb  Tb3  1  0.00000000  0.00000000  0.00000000  1
  V  V4  1  0.00000000  0.00000000  0.50000000  1
  V  V5  1  0.50000000  0.00000000  0.75000000  1
  V  V6  1  0.50000000  0.50000000  0.00000000  1
  V  V7  1  0.00000000  0.50000000  0.25000000  1
  O  O8  1  0.50000000  0.18410450  0.57450750  1
  O  O9  1  0.81589550  0.00000000  0.32450750  1
  O  O10  1  0.18410450  0.00000000  0.32450750  1
  O  O11  1  0.00000000  0.31589550  0.07450750  1
  O  O12  1  0.68410450  0.00000000  0.92549250  1
  O  O13  1  0.00000000  0.81589550  0.67549250  1
  O  O14  1  0.00000000  0.18410450  0.67549250  1
  O  O15  1  0.81589550  0.50000000  0.42549250  1
  O  O16  1  0.00000000  0.68410450  0.07450750  1
  O  O17  1  0.31589550  0.50000000  0.82450750  1
  O  O18  1  0.68410450  0.50000000  0.82450750  1
  O  O19  1  0.50000000  0.81589550  0.57450750  1
  O  O20  1  0.18410450  0.50000000  0.42549250  1
  O  O21  1  0.50000000  0.31589550  0.17549250  1
  O  O22  1  0.50000000  0.68410450  0.17549250  1
  O  O23  1  0.31589550  0.00000000  0.92549250  1
