# generated using pymatgen
data_FeWO4
_symmetry_space_group_name_H-M   'P 1'
_cell_length_a   4.82030321
_cell_length_b   5.76949405
_cell_length_c   5.11534776
_cell_angle_alpha   90.00000000
_cell_angle_beta   90.86477283
_cell_angle_gamma   90.00000000
_symmetry_Int_Tables_number   1
_chemical_formula_structural   FeWO4
_chemical_formula_sum   'Fe2 W2 O8'
_cell_volume   142.24525319
_cell_formula_units_Z   2
loop_
 _symmetry_equiv_pos_site_id
 _symmetry_equiv_pos_as_xyz
  1  'x, y, z'
loop_
 _atom_site_type_symbol
 _atom_site_label
 _atom_site_symmetry_multiplicity
 _atom_site_fract_x
 _atom_site_fract_y
 _atom_site_fract_z
 _atom_site_occupancy
  Fe  Fe0  1  0.00000000  0.66599600  0.75000000  1
  Fe  Fe1  1  0.00000000  0.33400400  0.25000000  1
  W  W2  1  0.50000000  0.82717800  0.25000000  1
  W  W3  1  0.50000000  0.17282200  0.75000000  1
  O  O4  1  0.75553500  0.62649400  0.39313800  1
  O  O5  1  0.24446500  0.62649400  0.10686200  1
  O  O6  1  0.24446500  0.37350600  0.60686200  1
  O  O7  1  0.75553500  0.37350600  0.89313800  1
  O  O8  1  0.71119000  0.10997900  0.43321800  1
  O  O9  1  0.28881000  0.10997900  0.06678200  1
  O  O10  1  0.71119000  0.89002100  0.93321800  1
  O  O11  1  0.28881000  0.89002100  0.56678200  1
