# generated using pymatgen
data_Sr3As4
_symmetry_space_group_name_H-M   'P 1'
_cell_length_a   6.04277600
_cell_length_b   15.00973800
_cell_length_c   18.06696800
_cell_angle_alpha   90.00000000
_cell_angle_beta   90.00000000
_cell_angle_gamma   90.00000000
_symmetry_Int_Tables_number   1
_chemical_formula_structural   Sr3As4
_chemical_formula_sum   'Sr24 As32'
_cell_volume   1638.68275200
_cell_formula_units_Z   8
loop_
 _symmetry_equiv_pos_site_id
 _symmetry_equiv_pos_as_xyz
  1  'x, y, z'
loop_
 _atom_site_type_symbol
 _atom_site_label
 _atom_site_symmetry_multiplicity
 _atom_site_fract_x
 _atom_site_fract_y
 _atom_site_fract_z
 _atom_site_occupancy
  Sr  Sr0  1  0.27713650  0.00278750  0.83301000  1
  Sr  Sr1  1  0.27713650  0.49721250  0.66699000  1
  Sr  Sr2  1  0.02713650  0.24721250  0.58301000  1
  Sr  Sr3  1  0.02713650  0.25278750  0.91699000  1
  Sr  Sr4  1  0.49616100  0.25000000  0.75000000  1
  Sr  Sr5  1  0.24616100  0.00000000  0.50000000  1
  Sr  Sr6  1  0.77713650  0.00278750  0.33301000  1
  Sr  Sr7  1  0.77713650  0.49721250  0.16699000  1
  Sr  Sr8  1  0.52713650  0.24721250  0.08301000  1
  Sr  Sr9  1  0.52713650  0.25278750  0.41699000  1
  Sr  Sr10  1  0.99616100  0.25000000  0.25000000  1
  Sr  Sr11  1  0.74616100  0.00000000  0.00000000  1
  Sr  Sr12  1  0.77713650  0.50278750  0.83301000  1
  Sr  Sr13  1  0.77713650  0.99721250  0.66699000  1
  Sr  Sr14  1  0.52713650  0.74721250  0.58301000  1
  Sr  Sr15  1  0.52713650  0.75278750  0.91699000  1
  Sr  Sr16  1  0.99616100  0.75000000  0.75000000  1
  Sr  Sr17  1  0.74616100  0.50000000  0.50000000  1
  Sr  Sr18  1  0.27713650  0.50278750  0.33301000  1
  Sr  Sr19  1  0.27713650  0.99721250  0.16699000  1
  Sr  Sr20  1  0.02713650  0.74721250  0.08301000  1
  Sr  Sr21  1  0.02713650  0.75278750  0.41699000  1
  Sr  Sr22  1  0.49616100  0.75000000  0.25000000  1
  Sr  Sr23  1  0.24616100  0.50000000  0.00000000  1
  As  As24  1  0.99704900  0.33614850  0.74744350  1
  As  As25  1  0.99704900  0.16385150  0.75255650  1
  As  As26  1  0.74704900  0.41385150  0.99744350  1
  As  As27  1  0.74704900  0.08614850  0.50255650  1
  As  As28  1  0.26813400  0.08520800  0.67030900  1
  As  As29  1  0.26813400  0.41479200  0.82969100  1
  As  As30  1  0.51813400  0.33520800  0.57969100  1
  As  As31  1  0.51813400  0.16479200  0.92030900  1
  As  As32  1  0.49704900  0.33614850  0.24744350  1
  As  As33  1  0.49704900  0.16385150  0.25255650  1
  As  As34  1  0.24704900  0.41385150  0.49744350  1
  As  As35  1  0.24704900  0.08614850  0.00255650  1
  As  As36  1  0.76813400  0.08520800  0.17030900  1
  As  As37  1  0.76813400  0.41479200  0.32969100  1
  As  As38  1  0.01813400  0.33520800  0.07969100  1
  As  As39  1  0.01813400  0.16479200  0.42030900  1
  As  As40  1  0.49704900  0.83614850  0.74744350  1
  As  As41  1  0.49704900  0.66385150  0.75255650  1
  As  As42  1  0.24704900  0.91385150  0.99744350  1
  As  As43  1  0.24704900  0.58614850  0.50255650  1
  As  As44  1  0.76813400  0.58520800  0.67030900  1
  As  As45  1  0.76813400  0.91479200  0.82969100  1
  As  As46  1  0.01813400  0.83520800  0.57969100  1
  As  As47  1  0.01813400  0.66479200  0.92030900  1
  As  As48  1  0.99704900  0.83614850  0.24744350  1
  As  As49  1  0.99704900  0.66385150  0.25255650  1
  As  As50  1  0.74704900  0.91385150  0.49744350  1
  As  As51  1  0.74704900  0.58614850  0.00255650  1
  As  As52  1  0.26813400  0.58520800  0.17030900  1
  As  As53  1  0.26813400  0.91479200  0.32969100  1
  As  As54  1  0.51813400  0.83520800  0.07969100  1
  As  As55  1  0.51813400  0.66479200  0.42030900  1
