# generated using pymatgen
data_SiC
_symmetry_space_group_name_H-M   'P 1'
_cell_length_a   3.09476436
_cell_length_b   3.09476436
_cell_length_c   37.96371266
_cell_angle_alpha   90.00000000
_cell_angle_beta   90.00000000
_cell_angle_gamma   120.00000000
_symmetry_Int_Tables_number   1
_chemical_formula_structural   SiC
_chemical_formula_sum   'Si15 C15'
_cell_volume   314.88682075
_cell_formula_units_Z   15
loop_
 _symmetry_equiv_pos_site_id
 _symmetry_equiv_pos_as_xyz
  1  'x, y, z'
loop_
 _atom_site_type_symbol
 _atom_site_label
 _atom_site_symmetry_multiplicity
 _atom_site_fract_x
 _atom_site_fract_y
 _atom_site_fract_z
 _atom_site_occupancy
  Si  Si0  1  0.00000000  0.00000000  0.08334200  1
  Si  Si1  1  0.33333333  0.66666667  0.01665767  1
  Si  Si2  1  0.33333333  0.66666667  0.21662167  1
  Si  Si3  1  0.66666667  0.33333333  0.14992833  1
  Si  Si4  1  0.66666667  0.33333333  0.28329133  1
  Si  Si5  1  0.66666667  0.33333333  0.41667533  1
  Si  Si6  1  0.00000000  0.00000000  0.34999100  1
  Si  Si7  1  0.00000000  0.00000000  0.54995500  1
  Si  Si8  1  0.33333333  0.66666667  0.48326167  1
  Si  Si9  1  0.33333333  0.66666667  0.61662467  1
  Si  Si10  1  0.33333333  0.66666667  0.75000867  1
  Si  Si11  1  0.66666667  0.33333333  0.68332433  1
  Si  Si12  1  0.66666667  0.33333333  0.88328833  1
  Si  Si13  1  0.00000000  0.00000000  0.81659500  1
  Si  Si14  1  0.00000000  0.00000000  0.94995800  1
  C  C15  1  0.00000000  0.00000000  0.13335500  1
  C  C16  1  0.33333333  0.66666667  0.06681467  1
  C  C17  1  0.33333333  0.66666667  0.26677067  1
  C  C18  1  0.66666667  0.33333333  0.19993233  1
  C  C19  1  0.66666667  0.33333333  0.33328533  1
  C  C20  1  0.66666667  0.33333333  0.46668833  1
  C  C21  1  0.00000000  0.00000000  0.40014800  1
  C  C22  1  0.00000000  0.00000000  0.60010400  1
  C  C23  1  0.33333333  0.66666667  0.53326567  1
  C  C24  1  0.33333333  0.66666667  0.66661867  1
  C  C25  1  0.33333333  0.66666667  0.80002167  1
  C  C26  1  0.66666667  0.33333333  0.73348133  1
  C  C27  1  0.66666667  0.33333333  0.93343733  1
  C  C28  1  0.00000000  0.00000000  0.86659900  1
  C  C29  1  0.00000000  0.00000000  0.99995200  1
