# generated using pymatgen
data_Tb4Si2S3O7
_symmetry_space_group_name_H-M   'P 1'
_cell_length_a   11.77228200
_cell_length_b   11.77228200
_cell_length_c   13.76617200
_cell_angle_alpha   90.00000000
_cell_angle_beta   90.00000000
_cell_angle_gamma   90.00000000
_symmetry_Int_Tables_number   1
_chemical_formula_structural   Tb4Si2S3O7
_chemical_formula_sum   'Tb32 Si16 S24 O56'
_cell_volume   1907.80729583
_cell_formula_units_Z   8
loop_
 _symmetry_equiv_pos_site_id
 _symmetry_equiv_pos_as_xyz
  1  'x, y, z'
loop_
 _atom_site_type_symbol
 _atom_site_label
 _atom_site_symmetry_multiplicity
 _atom_site_fract_x
 _atom_site_fract_y
 _atom_site_fract_z
 _atom_site_occupancy
  Tb  Tb0  1  0.17213150  0.67213150  0.25000000  1
  Tb  Tb1  1  0.32786850  0.67213150  0.50000000  1
  Tb  Tb2  1  0.67213150  0.32786850  0.50000000  1
  Tb  Tb3  1  0.82786850  0.32786850  0.25000000  1
  Tb  Tb4  1  0.32786850  0.32786850  0.50000000  1
  Tb  Tb5  1  0.17213150  0.32786850  0.25000000  1
  Tb  Tb6  1  0.82786850  0.67213150  0.25000000  1
  Tb  Tb7  1  0.17213150  0.17213150  0.00000000  1
  Tb  Tb8  1  0.26412000  0.50000000  0.03318800  1
  Tb  Tb9  1  0.23588000  0.00000000  0.53318800  1
  Tb  Tb10  1  0.00000000  0.23588000  0.46681200  1
  Tb  Tb11  1  0.50000000  0.23588000  0.28318800  1
  Tb  Tb12  1  0.50000000  0.76412000  0.28318800  1
  Tb  Tb13  1  0.26412000  0.00000000  0.21681200  1
  Tb  Tb14  1  0.73588000  0.00000000  0.21681200  1
  Tb  Tb15  1  0.50000000  0.26412000  0.96681200  1
  Tb  Tb16  1  0.67213150  0.17213150  0.75000000  1
  Tb  Tb17  1  0.82786850  0.17213150  0.00000000  1
  Tb  Tb18  1  0.17213150  0.82786850  0.00000000  1
  Tb  Tb19  1  0.32786850  0.82786850  0.75000000  1
  Tb  Tb20  1  0.82786850  0.82786850  0.00000000  1
  Tb  Tb21  1  0.67213150  0.82786850  0.75000000  1
  Tb  Tb22  1  0.32786850  0.17213150  0.75000000  1
  Tb  Tb23  1  0.67213150  0.67213150  0.50000000  1
  Tb  Tb24  1  0.76412000  0.00000000  0.53318800  1
  Tb  Tb25  1  0.73588000  0.50000000  0.03318800  1
  Tb  Tb26  1  0.50000000  0.73588000  0.96681200  1
  Tb  Tb27  1  0.00000000  0.73588000  0.78318800  1
  Tb  Tb28  1  0.00000000  0.26412000  0.78318800  1
  Tb  Tb29  1  0.76412000  0.50000000  0.71681200  1
  Tb  Tb30  1  0.23588000  0.50000000  0.71681200  1
  Tb  Tb31  1  0.00000000  0.76412000  0.46681200  1
  Si  Si32  1  0.12498500  0.00000000  0.77871000  1
  Si  Si33  1  0.37501500  0.50000000  0.27871000  1
  Si  Si34  1  0.50000000  0.37501500  0.72129000  1
  Si  Si35  1  0.00000000  0.37501500  0.02871000  1
  Si  Si36  1  0.00000000  0.62498500  0.02871000  1
  Si  Si37  1  0.12498500  0.50000000  0.47129000  1
  Si  Si38  1  0.87501500  0.50000000  0.47129000  1
  Si  Si39  1  0.00000000  0.12498500  0.22129000  1
  Si  Si40  1  0.62498500  0.50000000  0.27871000  1
  Si  Si41  1  0.87501500  0.00000000  0.77871000  1
  Si  Si42  1  0.00000000  0.87501500  0.22129000  1
  Si  Si43  1  0.50000000  0.87501500  0.52871000  1
  Si  Si44  1  0.50000000  0.12498500  0.52871000  1
  Si  Si45  1  0.62498500  0.00000000  0.97129000  1
  Si  Si46  1  0.37501500  0.00000000  0.97129000  1
  Si  Si47  1  0.50000000  0.62498500  0.72129000  1
  S  S48  1  0.00000000  0.00000000  0.00000000  1
  S  S49  1  0.00000000  0.50000000  0.25000000  1
  S  S50  1  0.50000000  0.00000000  0.25000000  1
  S  S51  1  0.00000000  0.00000000  0.50000000  1
  S  S52  1  0.35343300  0.25000000  0.12500000  1
  S  S53  1  0.25000000  0.35343300  0.87500000  1
  S  S54  1  0.25000000  0.14656700  0.37500000  1
  S  S55  1  0.14656700  0.25000000  0.62500000  1
  S  S56  1  0.64656700  0.25000000  0.12500000  1
  S  S57  1  0.25000000  0.64656700  0.87500000  1
  S  S58  1  0.25000000  0.85343300  0.37500000  1
  S  S59  1  0.85343300  0.25000000  0.62500000  1
  S  S60  1  0.50000000  0.50000000  0.50000000  1
  S  S61  1  0.50000000  0.00000000  0.75000000  1
  S  S62  1  0.00000000  0.50000000  0.75000000  1
  S  S63  1  0.50000000  0.50000000  0.00000000  1
  S  S64  1  0.85343300  0.75000000  0.62500000  1
  S  S65  1  0.75000000  0.85343300  0.37500000  1
  S  S66  1  0.75000000  0.64656700  0.87500000  1
  S  S67  1  0.64656700  0.75000000  0.12500000  1
  S  S68  1  0.14656700  0.75000000  0.62500000  1
  S  S69  1  0.75000000  0.14656700  0.37500000  1
  S  S70  1  0.75000000  0.35343300  0.87500000  1
  S  S71  1  0.35343300  0.75000000  0.12500000  1
  O  O72  1  0.00000000  0.00000000  0.27394000  1
  O  O73  1  0.50000000  0.00000000  0.02394000  1
  O  O74  1  0.50000000  0.00000000  0.47606000  1
  O  O75  1  0.00000000  0.00000000  0.72606000  1
  O  O76  1  0.26806050  0.50000000  0.20075450  1
  O  O77  1  0.23193950  0.00000000  0.70075450  1
  O  O78  1  0.00000000  0.23193950  0.29924550  1
  O  O79  1  0.50000000  0.23193950  0.45075450  1
  O  O80  1  0.50000000  0.76806050  0.45075450  1
  O  O81  1  0.26806050  0.00000000  0.04924550  1
  O  O82  1  0.73193950  0.00000000  0.04924550  1
  O  O83  1  0.50000000  0.26806050  0.79924550  1
  O  O84  1  0.14123350  0.37715650  0.41693150  1
  O  O85  1  0.35876650  0.12284350  0.91693150  1
  O  O86  1  0.12284350  0.35876650  0.08306850  1
  O  O87  1  0.37715650  0.35876650  0.66693150  1
  O  O88  1  0.12284350  0.14123350  0.16693150  1
  O  O89  1  0.14123350  0.12284350  0.83306850  1
  O  O90  1  0.35876650  0.37715650  0.33306850  1
  O  O91  1  0.37715650  0.14123350  0.58306850  1
  O  O92  1  0.35876650  0.62284350  0.33306850  1
  O  O93  1  0.14123350  0.87715650  0.83306850  1
  O  O94  1  0.87715650  0.14123350  0.16693150  1
  O  O95  1  0.12284350  0.64123350  0.08306850  1
  O  O96  1  0.37715650  0.85876650  0.58306850  1
  O  O97  1  0.85876650  0.37715650  0.41693150  1
  O  O98  1  0.64123350  0.12284350  0.91693150  1
  O  O99  1  0.62284350  0.35876650  0.66693150  1
  O  O100  1  0.50000000  0.50000000  0.77394000  1
  O  O101  1  0.00000000  0.50000000  0.52394000  1
  O  O102  1  0.00000000  0.50000000  0.97606000  1
  O  O103  1  0.50000000  0.50000000  0.22606000  1
  O  O104  1  0.76806050  0.00000000  0.70075450  1
  O  O105  1  0.73193950  0.50000000  0.20075450  1
  O  O106  1  0.50000000  0.73193950  0.79924550  1
  O  O107  1  0.00000000  0.73193950  0.95075450  1
  O  O108  1  0.00000000  0.26806050  0.95075450  1
  O  O109  1  0.76806050  0.50000000  0.54924550  1
  O  O110  1  0.23193950  0.50000000  0.54924550  1
  O  O111  1  0.00000000  0.76806050  0.29924550  1
  O  O112  1  0.64123350  0.87715650  0.91693150  1
  O  O113  1  0.85876650  0.62284350  0.41693150  1
  O  O114  1  0.62284350  0.85876650  0.58306850  1
  O  O115  1  0.87715650  0.85876650  0.16693150  1
  O  O116  1  0.62284350  0.64123350  0.66693150  1
  O  O117  1  0.64123350  0.62284350  0.33306850  1
  O  O118  1  0.85876650  0.87715650  0.83306850  1
  O  O119  1  0.87715650  0.64123350  0.08306850  1
  O  O120  1  0.85876650  0.12284350  0.83306850  1
  O  O121  1  0.64123350  0.37715650  0.33306850  1
  O  O122  1  0.37715650  0.64123350  0.66693150  1
  O  O123  1  0.62284350  0.14123350  0.58306850  1
  O  O124  1  0.87715650  0.35876650  0.08306850  1
  O  O125  1  0.35876650  0.87715650  0.91693150  1
  O  O126  1  0.14123350  0.62284350  0.41693150  1
  O  O127  1  0.12284350  0.85876650  0.16693150  1
