# generated using pymatgen
data_BaEr2F8
_symmetry_space_group_name_H-M   'P 1'
_cell_length_a   7.00143400
_cell_length_b   10.55045000
_cell_length_c   4.29229545
_cell_angle_alpha   90.00000000
_cell_angle_beta   99.12408901
_cell_angle_gamma   90.00000000
_symmetry_Int_Tables_number   1
_chemical_formula_structural   BaEr2F8
_chemical_formula_sum   'Ba2 Er4 F16'
_cell_volume   313.05273371
_cell_formula_units_Z   2
loop_
 _symmetry_equiv_pos_site_id
 _symmetry_equiv_pos_as_xyz
  1  'x, y, z'
loop_
 _atom_site_type_symbol
 _atom_site_label
 _atom_site_symmetry_multiplicity
 _atom_site_fract_x
 _atom_site_fract_y
 _atom_site_fract_z
 _atom_site_occupancy
  Ba  Ba0  1  0.00000000  0.00000000  0.00000000  1
  Ba  Ba1  1  0.50000000  0.50000000  0.00000000  1
  Er  Er2  1  0.50000000  0.17572000  0.50000000  1
  Er  Er3  1  0.50000000  0.82428000  0.50000000  1
  Er  Er4  1  0.00000000  0.67572000  0.50000000  1
  Er  Er5  1  0.00000000  0.32428000  0.50000000  1
  F  F6  1  0.50000000  0.76213600  0.00000000  1
  F  F7  1  0.50000000  0.23786400  0.00000000  1
  F  F8  1  0.39357700  0.00000000  0.22846600  1
  F  F9  1  0.81276200  0.14153400  0.43830000  1
  F  F10  1  0.18723800  0.14153400  0.56170000  1
  F  F11  1  0.18723800  0.85846600  0.56170000  1
  F  F12  1  0.81276200  0.85846600  0.43830000  1
  F  F13  1  0.60642300  0.00000000  0.77153400  1
  F  F14  1  0.00000000  0.26213600  0.00000000  1
  F  F15  1  0.00000000  0.73786400  0.00000000  1
  F  F16  1  0.89357700  0.50000000  0.22846600  1
  F  F17  1  0.31276200  0.64153400  0.43830000  1
  F  F18  1  0.68723800  0.64153400  0.56170000  1
  F  F19  1  0.68723800  0.35846600  0.56170000  1
  F  F20  1  0.31276200  0.35846600  0.43830000  1
  F  F21  1  0.10642300  0.50000000  0.77153400  1
