# generated using pymatgen
data_Mg3As2
_symmetry_space_group_name_H-M   'P 1'
_cell_length_a   12.47575000
_cell_length_b   12.47575000
_cell_length_c   12.47575000
_cell_angle_alpha   90.00000000
_cell_angle_beta   90.00000000
_cell_angle_gamma   90.00000000
_symmetry_Int_Tables_number   1
_chemical_formula_structural   Mg3As2
_chemical_formula_sum   'Mg48 As32'
_cell_volume   1941.77985058
_cell_formula_units_Z   16
loop_
 _symmetry_equiv_pos_site_id
 _symmetry_equiv_pos_as_xyz
  1  'x, y, z'
loop_
 _atom_site_type_symbol
 _atom_site_label
 _atom_site_symmetry_multiplicity
 _atom_site_fract_x
 _atom_site_fract_y
 _atom_site_fract_z
 _atom_site_occupancy
  Mg  Mg0  1  0.39475100  0.36413500  0.87086600  1
  Mg  Mg1  1  0.60524900  0.13586500  0.87086600  1
  Mg  Mg2  1  0.89475100  0.13586500  0.12913400  1
  Mg  Mg3  1  0.87086600  0.60524900  0.13586500  1
  Mg  Mg4  1  0.36413500  0.87086600  0.39475100  1
  Mg  Mg5  1  0.36413500  0.12913400  0.10524900  1
  Mg  Mg6  1  0.12913400  0.10524900  0.36413500  1
  Mg  Mg7  1  0.13586500  0.87086600  0.60524900  1
  Mg  Mg8  1  0.12913400  0.89475100  0.13586500  1
  Mg  Mg9  1  0.13586500  0.12913400  0.89475100  1
  Mg  Mg10  1  0.87086600  0.39475100  0.36413500  1
  Mg  Mg11  1  0.10524900  0.36413500  0.12913400  1
  Mg  Mg12  1  0.10524900  0.13586500  0.62913400  1
  Mg  Mg13  1  0.89475100  0.36413500  0.62913400  1
  Mg  Mg14  1  0.60524900  0.36413500  0.37086600  1
  Mg  Mg15  1  0.62913400  0.89475100  0.36413500  1
  Mg  Mg16  1  0.39475100  0.13586500  0.37086600  1
  Mg  Mg17  1  0.62913400  0.10524900  0.13586500  1
  Mg  Mg18  1  0.36413500  0.37086600  0.60524900  1
  Mg  Mg19  1  0.37086600  0.60524900  0.36413500  1
  Mg  Mg20  1  0.36413500  0.62913400  0.89475100  1
  Mg  Mg21  1  0.37086600  0.39475100  0.13586500  1
  Mg  Mg22  1  0.13586500  0.37086600  0.39475100  1
  Mg  Mg23  1  0.13586500  0.62913400  0.10524900  1
  Mg  Mg24  1  0.89475100  0.86413500  0.37086600  1
  Mg  Mg25  1  0.10524900  0.63586500  0.37086600  1
  Mg  Mg26  1  0.39475100  0.63586500  0.62913400  1
  Mg  Mg27  1  0.37086600  0.10524900  0.63586500  1
  Mg  Mg28  1  0.86413500  0.37086600  0.89475100  1
  Mg  Mg29  1  0.86413500  0.62913400  0.60524900  1
  Mg  Mg30  1  0.62913400  0.60524900  0.86413500  1
  Mg  Mg31  1  0.63586500  0.37086600  0.10524900  1
  Mg  Mg32  1  0.62913400  0.39475100  0.63586500  1
  Mg  Mg33  1  0.63586500  0.62913400  0.39475100  1
  Mg  Mg34  1  0.37086600  0.89475100  0.86413500  1
  Mg  Mg35  1  0.60524900  0.86413500  0.62913400  1
  Mg  Mg36  1  0.60524900  0.63586500  0.12913400  1
  Mg  Mg37  1  0.39475100  0.86413500  0.12913400  1
  Mg  Mg38  1  0.10524900  0.86413500  0.87086600  1
  Mg  Mg39  1  0.12913400  0.39475100  0.86413500  1
  Mg  Mg40  1  0.89475100  0.63586500  0.87086600  1
  Mg  Mg41  1  0.12913400  0.60524900  0.63586500  1
  Mg  Mg42  1  0.86413500  0.87086600  0.10524900  1
  Mg  Mg43  1  0.87086600  0.10524900  0.86413500  1
  Mg  Mg44  1  0.86413500  0.12913400  0.39475100  1
  Mg  Mg45  1  0.87086600  0.89475100  0.63586500  1
  Mg  Mg46  1  0.63586500  0.87086600  0.89475100  1
  Mg  Mg47  1  0.63586500  0.12913400  0.60524900  1
  As  As48  1  0.25000000  0.22819500  0.50000000  1
  As  As49  1  0.27180500  0.50000000  0.75000000  1
  As  As50  1  0.50000000  0.25000000  0.22819500  1
  As  As51  1  0.22819500  0.50000000  0.25000000  1
  As  As52  1  0.50000000  0.75000000  0.27180500  1
  As  As53  1  0.75000000  0.27180500  0.50000000  1
  As  As54  1  0.25000000  0.27180500  0.00000000  1
  As  As55  1  0.22819500  0.00000000  0.75000000  1
  As  As56  1  0.00000000  0.25000000  0.27180500  1
  As  As57  1  0.27180500  0.00000000  0.25000000  1
  As  As58  1  0.00000000  0.75000000  0.22819500  1
  As  As59  1  0.75000000  0.22819500  0.00000000  1
  As  As60  1  0.00000000  0.00000000  0.50000000  1
  As  As61  1  0.00000000  0.00000000  0.00000000  1
  As  As62  1  0.50000000  0.00000000  0.00000000  1
  As  As63  1  0.00000000  0.50000000  0.00000000  1
  As  As64  1  0.75000000  0.72819500  0.00000000  1
  As  As65  1  0.77180500  0.00000000  0.25000000  1
  As  As66  1  0.00000000  0.75000000  0.72819500  1
  As  As67  1  0.72819500  0.00000000  0.75000000  1
  As  As68  1  0.00000000  0.25000000  0.77180500  1
  As  As69  1  0.25000000  0.77180500  0.00000000  1
  As  As70  1  0.75000000  0.77180500  0.50000000  1
  As  As71  1  0.72819500  0.50000000  0.25000000  1
  As  As72  1  0.50000000  0.75000000  0.77180500  1
  As  As73  1  0.77180500  0.50000000  0.75000000  1
  As  As74  1  0.50000000  0.25000000  0.72819500  1
  As  As75  1  0.25000000  0.72819500  0.50000000  1
  As  As76  1  0.50000000  0.50000000  0.00000000  1
  As  As77  1  0.50000000  0.50000000  0.50000000  1
  As  As78  1  0.00000000  0.50000000  0.50000000  1
  As  As79  1  0.50000000  0.00000000  0.50000000  1
