# generated using pymatgen
data_Nb3AgO8
_symmetry_space_group_name_H-M   'P 1'
_cell_length_a   7.14415400
_cell_length_b   7.55976000
_cell_length_c   10.47179000
_cell_angle_alpha   90.00000000
_cell_angle_beta   90.00000000
_cell_angle_gamma   90.00000000
_symmetry_Int_Tables_number   1
_chemical_formula_structural   Nb3AgO8
_chemical_formula_sum   'Nb12 Ag4 O32'
_cell_volume   565.56137304
_cell_formula_units_Z   4
loop_
 _symmetry_equiv_pos_site_id
 _symmetry_equiv_pos_as_xyz
  1  'x, y, z'
loop_
 _atom_site_type_symbol
 _atom_site_label
 _atom_site_symmetry_multiplicity
 _atom_site_fract_x
 _atom_site_fract_y
 _atom_site_fract_z
 _atom_site_occupancy
  Nb  Nb0  1  0.00000000  0.75766300  0.23315200  1
  Nb  Nb1  1  0.00000000  0.24233700  0.76684800  1
  Nb  Nb2  1  0.50000000  0.75766300  0.76684800  1
  Nb  Nb3  1  0.50000000  0.24233700  0.23315200  1
  Nb  Nb4  1  0.75000000  0.50000000  0.00000000  1
  Nb  Nb5  1  0.25000000  0.50000000  0.00000000  1
  Nb  Nb6  1  0.50000000  0.25766300  0.73315200  1
  Nb  Nb7  1  0.50000000  0.74233700  0.26684800  1
  Nb  Nb8  1  0.00000000  0.25766300  0.26684800  1
  Nb  Nb9  1  0.00000000  0.74233700  0.73315200  1
  Nb  Nb10  1  0.25000000  0.00000000  0.50000000  1
  Nb  Nb11  1  0.75000000  0.00000000  0.50000000  1
  Ag  Ag12  1  0.75000000  0.00000000  0.00000000  1
  Ag  Ag13  1  0.25000000  0.00000000  0.00000000  1
  Ag  Ag14  1  0.25000000  0.50000000  0.50000000  1
  Ag  Ag15  1  0.75000000  0.50000000  0.50000000  1
  O  O16  1  0.30024650  0.30818550  0.85789250  1
  O  O17  1  0.30024650  0.69181450  0.14210750  1
  O  O18  1  0.19975350  0.30818550  0.14210750  1
  O  O19  1  0.19975350  0.69181450  0.85789250  1
  O  O20  1  0.69975350  0.69181450  0.14210750  1
  O  O21  1  0.69975350  0.30818550  0.85789250  1
  O  O22  1  0.80024650  0.69181450  0.85789250  1
  O  O23  1  0.80024650  0.30818550  0.14210750  1
  O  O24  1  0.50000000  0.51302500  0.33402600  1
  O  O25  1  0.50000000  0.48697500  0.66597400  1
  O  O26  1  0.00000000  0.51302500  0.66597400  1
  O  O27  1  0.00000000  0.48697500  0.33402600  1
  O  O28  1  0.50000000  0.39200100  0.07522000  1
  O  O29  1  0.50000000  0.60799900  0.92478000  1
  O  O30  1  0.00000000  0.39200100  0.92478000  1
  O  O31  1  0.00000000  0.60799900  0.07522000  1
  O  O32  1  0.80024650  0.80818550  0.35789250  1
  O  O33  1  0.80024650  0.19181450  0.64210750  1
  O  O34  1  0.69975350  0.80818550  0.64210750  1
  O  O35  1  0.69975350  0.19181450  0.35789250  1
  O  O36  1  0.19975350  0.19181450  0.64210750  1
  O  O37  1  0.19975350  0.80818550  0.35789250  1
  O  O38  1  0.30024650  0.19181450  0.35789250  1
  O  O39  1  0.30024650  0.80818550  0.64210750  1
  O  O40  1  0.00000000  0.01302500  0.83402600  1
  O  O41  1  0.00000000  0.98697500  0.16597400  1
  O  O42  1  0.50000000  0.01302500  0.16597400  1
  O  O43  1  0.50000000  0.98697500  0.83402600  1
  O  O44  1  0.00000000  0.89200100  0.57522000  1
  O  O45  1  0.00000000  0.10799900  0.42478000  1
  O  O46  1  0.50000000  0.89200100  0.42478000  1
  O  O47  1  0.50000000  0.10799900  0.57522000  1
