# generated using pymatgen
data_Na10YbSn12
_symmetry_space_group_name_H-M   'P 1'
_cell_length_a   11.29185000
_cell_length_b   11.29185000
_cell_length_c   11.29185000
_cell_angle_alpha   90.00000000
_cell_angle_beta   90.00000000
_cell_angle_gamma   90.00000000
_symmetry_Int_Tables_number   1
_chemical_formula_structural   Na10YbSn12
_chemical_formula_sum   'Na20 Yb2 Sn24'
_cell_volume   1439.77723068
_cell_formula_units_Z   2
loop_
 _symmetry_equiv_pos_site_id
 _symmetry_equiv_pos_as_xyz
  1  'x, y, z'
loop_
 _atom_site_type_symbol
 _atom_site_label
 _atom_site_symmetry_multiplicity
 _atom_site_fract_x
 _atom_site_fract_y
 _atom_site_fract_z
 _atom_site_occupancy
  Na  Na0  1  0.25000000  0.50000000  0.00000000  1
  Na  Na1  1  0.00000000  0.50000000  0.25000000  1
  Na  Na2  1  0.50000000  0.00000000  0.25000000  1
  Na  Na3  1  0.25000000  0.00000000  0.50000000  1
  Na  Na4  1  0.69239050  0.30760950  0.30760950  1
  Na  Na5  1  0.19239050  0.19239050  0.19239050  1
  Na  Na6  1  0.30760950  0.69239050  0.30760950  1
  Na  Na7  1  0.30760950  0.30760950  0.69239050  1
  Na  Na8  1  0.00000000  0.25000000  0.50000000  1
  Na  Na9  1  0.50000000  0.25000000  0.00000000  1
  Na  Na10  1  0.75000000  0.00000000  0.50000000  1
  Na  Na11  1  0.50000000  0.00000000  0.75000000  1
  Na  Na12  1  0.00000000  0.50000000  0.75000000  1
  Na  Na13  1  0.75000000  0.50000000  0.00000000  1
  Na  Na14  1  0.19239050  0.80760950  0.80760950  1
  Na  Na15  1  0.69239050  0.69239050  0.69239050  1
  Na  Na16  1  0.80760950  0.19239050  0.80760950  1
  Na  Na17  1  0.80760950  0.80760950  0.19239050  1
  Na  Na18  1  0.50000000  0.75000000  0.00000000  1
  Na  Na19  1  0.00000000  0.75000000  0.50000000  1
  Yb  Yb20  1  0.00000000  0.00000000  0.00000000  1
  Yb  Yb21  1  0.50000000  0.50000000  0.50000000  1
  Sn  Sn22  1  0.27920100  0.09121200  0.90878800  1
  Sn  Sn23  1  0.09121200  0.72079900  0.09121200  1
  Sn  Sn24  1  0.40878800  0.40878800  0.22079900  1
  Sn  Sn25  1  0.90878800  0.09121200  0.27920100  1
  Sn  Sn26  1  0.09121200  0.90878800  0.27920100  1
  Sn  Sn27  1  0.90878800  0.27920100  0.09121200  1
  Sn  Sn28  1  0.40878800  0.22079900  0.40878800  1
  Sn  Sn29  1  0.22079900  0.40878800  0.40878800  1
  Sn  Sn30  1  0.27920100  0.90878800  0.09121200  1
  Sn  Sn31  1  0.09121200  0.09121200  0.72079900  1
  Sn  Sn32  1  0.72079900  0.09121200  0.09121200  1
  Sn  Sn33  1  0.09121200  0.27920100  0.90878800  1
  Sn  Sn34  1  0.77920100  0.59121200  0.40878800  1
  Sn  Sn35  1  0.59121200  0.22079900  0.59121200  1
  Sn  Sn36  1  0.90878800  0.90878800  0.72079900  1
  Sn  Sn37  1  0.40878800  0.59121200  0.77920100  1
  Sn  Sn38  1  0.59121200  0.40878800  0.77920100  1
  Sn  Sn39  1  0.40878800  0.77920100  0.59121200  1
  Sn  Sn40  1  0.90878800  0.72079900  0.90878800  1
  Sn  Sn41  1  0.72079900  0.90878800  0.90878800  1
  Sn  Sn42  1  0.77920100  0.40878800  0.59121200  1
  Sn  Sn43  1  0.59121200  0.59121200  0.22079900  1
  Sn  Sn44  1  0.22079900  0.59121200  0.59121200  1
  Sn  Sn45  1  0.59121200  0.77920100  0.40878800  1
