# generated using pymatgen
data_Nd2HgO4
_symmetry_space_group_name_H-M   'P 1'
_cell_length_a   14.02609400
_cell_length_b   3.84369200
_cell_length_c   10.35511088
_cell_angle_alpha   90.00000000
_cell_angle_beta   121.01422566
_cell_angle_gamma   90.00000000
_symmetry_Int_Tables_number   1
_chemical_formula_structural   Nd2HgO4
_chemical_formula_sum   'Nd8 Hg4 O16'
_cell_volume   478.45474459
_cell_formula_units_Z   4
loop_
 _symmetry_equiv_pos_site_id
 _symmetry_equiv_pos_as_xyz
  1  'x, y, z'
loop_
 _atom_site_type_symbol
 _atom_site_label
 _atom_site_symmetry_multiplicity
 _atom_site_fract_x
 _atom_site_fract_y
 _atom_site_fract_z
 _atom_site_occupancy
  Nd  Nd0  1  0.11978700  0.50000000  0.45978700  1
  Nd  Nd1  1  0.88021300  0.50000000  0.54021300  1
  Nd  Nd2  1  0.84133200  0.00000000  0.20156800  1
  Nd  Nd3  1  0.15866800  0.00000000  0.79843200  1
  Nd  Nd4  1  0.61978700  0.00000000  0.45978700  1
  Nd  Nd5  1  0.38021300  0.00000000  0.54021300  1
  Nd  Nd6  1  0.34133200  0.50000000  0.20156800  1
  Nd  Nd7  1  0.65866800  0.50000000  0.79843200  1
  Hg  Hg8  1  0.61495900  0.50000000  0.16137300  1
  Hg  Hg9  1  0.38504100  0.50000000  0.83862700  1
  Hg  Hg10  1  0.11495900  0.00000000  0.16137300  1
  Hg  Hg11  1  0.88504100  0.00000000  0.83862700  1
  O  O12  1  0.70397500  0.50000000  0.05803300  1
  O  O13  1  0.29602500  0.50000000  0.94196700  1
  O  O14  1  0.03653600  0.00000000  0.27890300  1
  O  O15  1  0.96346400  0.00000000  0.72109700  1
  O  O16  1  0.91956400  0.50000000  0.34617100  1
  O  O17  1  0.08043600  0.50000000  0.65382900  1
  O  O18  1  0.22831500  0.00000000  0.61052900  1
  O  O19  1  0.77168500  0.00000000  0.38947100  1
  O  O20  1  0.20397500  0.00000000  0.05803300  1
  O  O21  1  0.79602500  0.00000000  0.94196700  1
  O  O22  1  0.53653600  0.50000000  0.27890300  1
  O  O23  1  0.46346400  0.50000000  0.72109700  1
  O  O24  1  0.41956400  0.00000000  0.34617100  1
  O  O25  1  0.58043600  0.00000000  0.65382900  1
  O  O26  1  0.72831500  0.50000000  0.61052900  1
  O  O27  1  0.27168500  0.50000000  0.38947100  1
