# generated using pymatgen
data_Tm2S3
_symmetry_space_group_name_H-M   'P 1'
_cell_length_a   6.80057569
_cell_length_b   6.80057569
_cell_length_c   18.33543008
_cell_angle_alpha   90.00000000
_cell_angle_beta   90.00000000
_cell_angle_gamma   120.00000000
_symmetry_Int_Tables_number   1
_chemical_formula_structural   Tm2S3
_chemical_formula_sum   'Tm12 S18'
_cell_volume   734.36689428
_cell_formula_units_Z   6
loop_
 _symmetry_equiv_pos_site_id
 _symmetry_equiv_pos_as_xyz
  1  'x, y, z'
loop_
 _atom_site_type_symbol
 _atom_site_label
 _atom_site_symmetry_multiplicity
 _atom_site_fract_x
 _atom_site_fract_y
 _atom_site_fract_z
 _atom_site_occupancy
  Tm  Tm0  1  0.33333333  0.66666667  0.01614367  1
  Tm  Tm1  1  0.00000000  0.00000000  0.15052300  1
  Tm  Tm2  1  0.33333333  0.66666667  0.31718967  1
  Tm  Tm3  1  0.66666667  0.33333333  0.18281033  1
  Tm  Tm4  1  0.00000000  0.00000000  0.34947700  1
  Tm  Tm5  1  0.66666667  0.33333333  0.48385633  1
  Tm  Tm6  1  0.00000000  0.00000000  0.65052300  1
  Tm  Tm7  1  0.33333333  0.66666667  0.51614367  1
  Tm  Tm8  1  0.66666667  0.33333333  0.68281033  1
  Tm  Tm9  1  0.33333333  0.66666667  0.81718967  1
  Tm  Tm10  1  0.66666667  0.33333333  0.98385633  1
  Tm  Tm11  1  0.00000000  0.00000000  0.84947700  1
  S  S12  1  0.00000000  0.30244100  0.25000000  1
  S  S13  1  0.69755900  0.69755900  0.25000000  1
  S  S14  1  0.30244100  0.00000000  0.25000000  1
  S  S15  1  0.66666667  0.03089233  0.08333333  1
  S  S16  1  0.36422567  0.33333333  0.08333333  1
  S  S17  1  0.96910767  0.63577433  0.08333333  1
  S  S18  1  0.66666667  0.63577433  0.58333333  1
  S  S19  1  0.36422567  0.03089233  0.58333333  1
  S  S20  1  0.96910767  0.33333333  0.58333333  1
  S  S21  1  0.33333333  0.36422567  0.41666667  1
  S  S22  1  0.03089233  0.66666667  0.41666667  1
  S  S23  1  0.63577433  0.96910767  0.41666667  1
  S  S24  1  0.33333333  0.96910767  0.91666667  1
  S  S25  1  0.03089233  0.36422567  0.91666667  1
  S  S26  1  0.63577433  0.66666667  0.91666667  1
  S  S27  1  0.00000000  0.69755900  0.75000000  1
  S  S28  1  0.69755900  0.00000000  0.75000000  1
  S  S29  1  0.30244100  0.30244100  0.75000000  1
