# generated using pymatgen
data_K2MnV4O12
_symmetry_space_group_name_H-M   'P 1'
_cell_length_a   8.41777400
_cell_length_b   9.55658700
_cell_length_c   9.86466811
_cell_angle_alpha   90.00000000
_cell_angle_beta   123.83683836
_cell_angle_gamma   90.00000000
_symmetry_Int_Tables_number   1
_chemical_formula_structural   K2MnV4O12
_chemical_formula_sum   'K4 Mn2 V8 O24'
_cell_volume   659.15629929
_cell_formula_units_Z   2
loop_
 _symmetry_equiv_pos_site_id
 _symmetry_equiv_pos_as_xyz
  1  'x, y, z'
loop_
 _atom_site_type_symbol
 _atom_site_label
 _atom_site_symmetry_multiplicity
 _atom_site_fract_x
 _atom_site_fract_y
 _atom_site_fract_z
 _atom_site_occupancy
  K  K0  1  0.27305900  0.71087900  0.90450000  1
  K  K1  1  0.72694100  0.21087900  0.59550000  1
  K  K2  1  0.72694100  0.28912100  0.09550000  1
  K  K3  1  0.27305900  0.78912100  0.40450000  1
  Mn  Mn4  1  0.00000000  0.50000000  0.50000000  1
  Mn  Mn5  1  0.00000000  0.00000000  0.00000000  1
  V  V6  1  0.54422100  0.94244600  0.25208100  1
  V  V7  1  0.45577900  0.44244600  0.24791900  1
  V  V8  1  0.45577900  0.05755400  0.74791900  1
  V  V9  1  0.54422100  0.55755400  0.75208100  1
  V  V10  1  0.79114000  0.72600100  0.13225600  1
  V  V11  1  0.20886000  0.22600100  0.36774400  1
  V  V12  1  0.20886000  0.27399900  0.86774400  1
  V  V13  1  0.79114000  0.77399900  0.63225600  1
  O  O14  1  0.61041000  0.10557700  0.25142400  1
  O  O15  1  0.38959000  0.60557700  0.24857600  1
  O  O16  1  0.38959000  0.89442300  0.74857600  1
  O  O17  1  0.61041000  0.39442300  0.75142400  1
  O  O18  1  0.30230600  0.93076900  0.14670300  1
  O  O19  1  0.69769400  0.43076900  0.35329700  1
  O  O20  1  0.69769400  0.06923100  0.85329700  1
  O  O21  1  0.30230600  0.56923100  0.64670300  1
  O  O22  1  0.92621700  0.83275200  0.10023900  1
  O  O23  1  0.07378300  0.33275200  0.39976100  1
  O  O24  1  0.07378300  0.16724800  0.89976100  1
  O  O25  1  0.92621700  0.66724800  0.60023900  1
  O  O26  1  0.94387000  0.63597700  0.30471600  1
  O  O27  1  0.05613000  0.13597700  0.19528400  1
  O  O28  1  0.64715700  0.89577000  0.46642200  1
  O  O29  1  0.35284300  0.39577000  0.03357800  1
  O  O30  1  0.35284300  0.10423000  0.53357800  1
  O  O31  1  0.64715700  0.60423000  0.96642200  1
  O  O32  1  0.62746000  0.67396300  0.65765200  1
  O  O33  1  0.37254000  0.17396300  0.84234800  1
  O  O34  1  0.37254000  0.32603700  0.34234800  1
  O  O35  1  0.62746000  0.82603700  0.15765200  1
  O  O36  1  0.94387000  0.86402300  0.80471600  1
  O  O37  1  0.05613000  0.36402300  0.69528400  1
