# generated using pymatgen
data_NaNd(GaS2)4
_symmetry_space_group_name_H-M   'P 1'
_cell_length_a   12.27173400
_cell_length_b   20.40901200
_cell_length_c   20.48612400
_cell_angle_alpha   90.00000000
_cell_angle_beta   90.00000000
_cell_angle_gamma   90.00000000
_symmetry_Int_Tables_number   1
_chemical_formula_structural   NaNd(GaS2)4
_chemical_formula_sum   'Na16 Nd16 Ga64 S128'
_cell_volume   5130.83101333
_cell_formula_units_Z   16
loop_
 _symmetry_equiv_pos_site_id
 _symmetry_equiv_pos_as_xyz
  1  'x, y, z'
loop_
 _atom_site_type_symbol
 _atom_site_label
 _atom_site_symmetry_multiplicity
 _atom_site_fract_x
 _atom_site_fract_y
 _atom_site_fract_z
 _atom_site_occupancy
  Na  Na0  1  0.50000000  0.00000000  0.25370000  1
  Na  Na1  1  0.75000000  0.75000000  0.00370000  1
  Na  Na2  1  0.75000000  0.75000000  0.49630000  1
  Na  Na3  1  0.00000000  0.00000000  0.24630000  1
  Na  Na4  1  0.50000000  0.50000000  0.75370000  1
  Na  Na5  1  0.75000000  0.25000000  0.50370000  1
  Na  Na6  1  0.75000000  0.25000000  0.99630000  1
  Na  Na7  1  0.00000000  0.50000000  0.74630000  1
  Na  Na8  1  0.00000000  0.00000000  0.75370000  1
  Na  Na9  1  0.25000000  0.75000000  0.50370000  1
  Na  Na10  1  0.25000000  0.75000000  0.99630000  1
  Na  Na11  1  0.50000000  0.00000000  0.74630000  1
  Na  Na12  1  0.00000000  0.50000000  0.25370000  1
  Na  Na13  1  0.25000000  0.25000000  0.00370000  1
  Na  Na14  1  0.25000000  0.25000000  0.49630000  1
  Na  Na15  1  0.50000000  0.50000000  0.24630000  1
  Nd  Nd16  1  0.75000000  0.75000000  0.25000000  1
  Nd  Nd17  1  0.00000000  0.00000000  0.00000000  1
  Nd  Nd18  1  0.75000000  0.25000000  0.25000000  1
  Nd  Nd19  1  0.50000000  0.00000000  0.00000000  1
  Nd  Nd20  1  0.75000000  0.25000000  0.75000000  1
  Nd  Nd21  1  0.00000000  0.50000000  0.50000000  1
  Nd  Nd22  1  0.75000000  0.75000000  0.75000000  1
  Nd  Nd23  1  0.50000000  0.50000000  0.50000000  1
  Nd  Nd24  1  0.25000000  0.75000000  0.75000000  1
  Nd  Nd25  1  0.50000000  0.00000000  0.50000000  1
  Nd  Nd26  1  0.25000000  0.25000000  0.75000000  1
  Nd  Nd27  1  0.00000000  0.00000000  0.50000000  1
  Nd  Nd28  1  0.25000000  0.25000000  0.25000000  1
  Nd  Nd29  1  0.50000000  0.50000000  0.00000000  1
  Nd  Nd30  1  0.25000000  0.75000000  0.25000000  1
  Nd  Nd31  1  0.00000000  0.50000000  0.00000000  1
  Ga  Ga32  1  0.96130550  0.67948300  0.37415050  1
  Ga  Ga33  1  0.46130550  0.32051700  0.12584950  1
  Ga  Ga34  1  0.03869450  0.32051700  0.37415050  1
  Ga  Ga35  1  0.53869450  0.67948300  0.12584950  1
  Ga  Ga36  1  0.28869450  0.07051700  0.37584950  1
  Ga  Ga37  1  0.78869450  0.92948300  0.12415050  1
  Ga  Ga38  1  0.71130550  0.92948300  0.37584950  1
  Ga  Ga39  1  0.21130550  0.07051700  0.12415050  1
  Ga  Ga40  1  0.24943050  0.88643900  0.37759950  1
  Ga  Ga41  1  0.74943050  0.11356100  0.12240050  1
  Ga  Ga42  1  0.75056950  0.11356100  0.37759950  1
  Ga  Ga43  1  0.25056950  0.88643900  0.12240050  1
  Ga  Ga44  1  0.00056950  0.86356100  0.37240050  1
  Ga  Ga45  1  0.50056950  0.13643900  0.12759950  1
  Ga  Ga46  1  0.99943050  0.13643900  0.37240050  1
  Ga  Ga47  1  0.49943050  0.86356100  0.12759950  1
  Ga  Ga48  1  0.96130550  0.17948300  0.87415050  1
  Ga  Ga49  1  0.46130550  0.82051700  0.62584950  1
  Ga  Ga50  1  0.03869450  0.82051700  0.87415050  1
  Ga  Ga51  1  0.53869450  0.17948300  0.62584950  1
  Ga  Ga52  1  0.28869450  0.57051700  0.87584950  1
  Ga  Ga53  1  0.78869450  0.42948300  0.62415050  1
  Ga  Ga54  1  0.71130550  0.42948300  0.87584950  1
  Ga  Ga55  1  0.21130550  0.57051700  0.62415050  1
  Ga  Ga56  1  0.24943050  0.38643900  0.87759950  1
  Ga  Ga57  1  0.74943050  0.61356100  0.62240050  1
  Ga  Ga58  1  0.75056950  0.61356100  0.87759950  1
  Ga  Ga59  1  0.25056950  0.38643900  0.62240050  1
  Ga  Ga60  1  0.00056950  0.36356100  0.87240050  1
  Ga  Ga61  1  0.50056950  0.63643900  0.62759950  1
  Ga  Ga62  1  0.99943050  0.63643900  0.87240050  1
  Ga  Ga63  1  0.49943050  0.36356100  0.62759950  1
  Ga  Ga64  1  0.46130550  0.67948300  0.87415050  1
  Ga  Ga65  1  0.96130550  0.32051700  0.62584950  1
  Ga  Ga66  1  0.53869450  0.32051700  0.87415050  1
  Ga  Ga67  1  0.03869450  0.67948300  0.62584950  1
  Ga  Ga68  1  0.78869450  0.07051700  0.87584950  1
  Ga  Ga69  1  0.28869450  0.92948300  0.62415050  1
  Ga  Ga70  1  0.21130550  0.92948300  0.87584950  1
  Ga  Ga71  1  0.71130550  0.07051700  0.62415050  1
  Ga  Ga72  1  0.74943050  0.88643900  0.87759950  1
  Ga  Ga73  1  0.24943050  0.11356100  0.62240050  1
  Ga  Ga74  1  0.25056950  0.11356100  0.87759950  1
  Ga  Ga75  1  0.75056950  0.88643900  0.62240050  1
  Ga  Ga76  1  0.50056950  0.86356100  0.87240050  1
  Ga  Ga77  1  0.00056950  0.13643900  0.62759950  1
  Ga  Ga78  1  0.49943050  0.13643900  0.87240050  1
  Ga  Ga79  1  0.99943050  0.86356100  0.62759950  1
  Ga  Ga80  1  0.46130550  0.17948300  0.37415050  1
  Ga  Ga81  1  0.96130550  0.82051700  0.12584950  1
  Ga  Ga82  1  0.53869450  0.82051700  0.37415050  1
  Ga  Ga83  1  0.03869450  0.17948300  0.12584950  1
  Ga  Ga84  1  0.78869450  0.57051700  0.37584950  1
  Ga  Ga85  1  0.28869450  0.42948300  0.12415050  1
  Ga  Ga86  1  0.21130550  0.42948300  0.37584950  1
  Ga  Ga87  1  0.71130550  0.57051700  0.12415050  1
  Ga  Ga88  1  0.74943050  0.38643900  0.37759950  1
  Ga  Ga89  1  0.24943050  0.61356100  0.12240050  1
  Ga  Ga90  1  0.25056950  0.61356100  0.37759950  1
  Ga  Ga91  1  0.75056950  0.38643900  0.12240050  1
  Ga  Ga92  1  0.50056950  0.36356100  0.37240050  1
  Ga  Ga93  1  0.00056950  0.63643900  0.12759950  1
  Ga  Ga94  1  0.49943050  0.63643900  0.37240050  1
  Ga  Ga95  1  0.99943050  0.36356100  0.12759950  1
  S  S96  1  0.88015050  0.87752550  0.04026600  1
  S  S97  1  0.61984950  0.87752550  0.45973400  1
  S  S98  1  0.61984950  0.62247450  0.04026600  1
  S  S99  1  0.88015050  0.62247450  0.45973400  1
  S  S100  1  0.86984950  0.87247450  0.20973400  1
  S  S101  1  0.86984950  0.62752550  0.29026600  1
  S  S102  1  0.63015050  0.62752550  0.20973400  1
  S  S103  1  0.63015050  0.87247450  0.29026600  1
  S  S104  1  0.63063150  0.12823050  0.20939700  1
  S  S105  1  0.13063150  0.87176950  0.29060300  1
  S  S106  1  0.36936850  0.87176950  0.20939700  1
  S  S107  1  0.86936850  0.12823050  0.29060300  1
  S  S108  1  0.61936850  0.12176950  0.04060300  1
  S  S109  1  0.11936850  0.87823050  0.45939700  1
  S  S110  1  0.38063150  0.87823050  0.04060300  1
  S  S111  1  0.88063150  0.12176950  0.45939700  1
  S  S112  1  0.85881750  0.29369750  0.37464900  1
  S  S113  1  0.85881750  0.20630250  0.12535100  1
  S  S114  1  0.64118250  0.20630250  0.37464900  1
  S  S115  1  0.64118250  0.29369750  0.12535100  1
  S  S116  1  0.87334450  0.46905050  0.37919800  1
  S  S117  1  0.87334450  0.03094950  0.12080200  1
  S  S118  1  0.62665550  0.03094950  0.37919800  1
  S  S119  1  0.62665550  0.46905050  0.12080200  1
  S  S120  1  0.87665550  0.78094950  0.37080200  1
  S  S121  1  0.37665550  0.21905050  0.12919800  1
  S  S122  1  0.12334450  0.21905050  0.37080200  1
  S  S123  1  0.62334450  0.78094950  0.12919800  1
  S  S124  1  0.60881750  0.95630250  0.12464900  1
  S  S125  1  0.10881750  0.04369750  0.37535100  1
  S  S126  1  0.39118250  0.04369750  0.12464900  1
  S  S127  1  0.89118250  0.95630250  0.37535100  1
  S  S128  1  0.88015050  0.37752550  0.54026600  1
  S  S129  1  0.61984950  0.37752550  0.95973400  1
  S  S130  1  0.61984950  0.12247450  0.54026600  1
  S  S131  1  0.88015050  0.12247450  0.95973400  1
  S  S132  1  0.86984950  0.37247450  0.70973400  1
  S  S133  1  0.86984950  0.12752550  0.79026600  1
  S  S134  1  0.63015050  0.12752550  0.70973400  1
  S  S135  1  0.63015050  0.37247450  0.79026600  1
  S  S136  1  0.63063150  0.62823050  0.70939700  1
  S  S137  1  0.13063150  0.37176950  0.79060300  1
  S  S138  1  0.36936850  0.37176950  0.70939700  1
  S  S139  1  0.86936850  0.62823050  0.79060300  1
  S  S140  1  0.61936850  0.62176950  0.54060300  1
  S  S141  1  0.11936850  0.37823050  0.95939700  1
  S  S142  1  0.38063150  0.37823050  0.54060300  1
  S  S143  1  0.88063150  0.62176950  0.95939700  1
  S  S144  1  0.85881750  0.79369750  0.87464900  1
  S  S145  1  0.85881750  0.70630250  0.62535100  1
  S  S146  1  0.64118250  0.70630250  0.87464900  1
  S  S147  1  0.64118250  0.79369750  0.62535100  1
  S  S148  1  0.87334450  0.96905050  0.87919800  1
  S  S149  1  0.87334450  0.53094950  0.62080200  1
  S  S150  1  0.62665550  0.53094950  0.87919800  1
  S  S151  1  0.62665550  0.96905050  0.62080200  1
  S  S152  1  0.87665550  0.28094950  0.87080200  1
  S  S153  1  0.37665550  0.71905050  0.62919800  1
  S  S154  1  0.12334450  0.71905050  0.87080200  1
  S  S155  1  0.62334450  0.28094950  0.62919800  1
  S  S156  1  0.60881750  0.45630250  0.62464900  1
  S  S157  1  0.10881750  0.54369750  0.87535100  1
  S  S158  1  0.39118250  0.54369750  0.62464900  1
  S  S159  1  0.89118250  0.45630250  0.87535100  1
  S  S160  1  0.38015050  0.87752550  0.54026600  1
  S  S161  1  0.11984950  0.87752550  0.95973400  1
  S  S162  1  0.11984950  0.62247450  0.54026600  1
  S  S163  1  0.38015050  0.62247450  0.95973400  1
  S  S164  1  0.36984950  0.87247450  0.70973400  1
  S  S165  1  0.36984950  0.62752550  0.79026600  1
  S  S166  1  0.13015050  0.62752550  0.70973400  1
  S  S167  1  0.13015050  0.87247450  0.79026600  1
  S  S168  1  0.13063150  0.12823050  0.70939700  1
  S  S169  1  0.63063150  0.87176950  0.79060300  1
  S  S170  1  0.86936850  0.87176950  0.70939700  1
  S  S171  1  0.36936850  0.12823050  0.79060300  1
  S  S172  1  0.11936850  0.12176950  0.54060300  1
  S  S173  1  0.61936850  0.87823050  0.95939700  1
  S  S174  1  0.88063150  0.87823050  0.54060300  1
  S  S175  1  0.38063150  0.12176950  0.95939700  1
  S  S176  1  0.35881750  0.29369750  0.87464900  1
  S  S177  1  0.35881750  0.20630250  0.62535100  1
  S  S178  1  0.14118250  0.20630250  0.87464900  1
  S  S179  1  0.14118250  0.29369750  0.62535100  1
  S  S180  1  0.37334450  0.46905050  0.87919800  1
  S  S181  1  0.37334450  0.03094950  0.62080200  1
  S  S182  1  0.12665550  0.03094950  0.87919800  1
  S  S183  1  0.12665550  0.46905050  0.62080200  1
  S  S184  1  0.37665550  0.78094950  0.87080200  1
  S  S185  1  0.87665550  0.21905050  0.62919800  1
  S  S186  1  0.62334450  0.21905050  0.87080200  1
  S  S187  1  0.12334450  0.78094950  0.62919800  1
  S  S188  1  0.10881750  0.95630250  0.62464900  1
  S  S189  1  0.60881750  0.04369750  0.87535100  1
  S  S190  1  0.89118250  0.04369750  0.62464900  1
  S  S191  1  0.39118250  0.95630250  0.87535100  1
  S  S192  1  0.38015050  0.37752550  0.04026600  1
  S  S193  1  0.11984950  0.37752550  0.45973400  1
  S  S194  1  0.11984950  0.12247450  0.04026600  1
  S  S195  1  0.38015050  0.12247450  0.45973400  1
  S  S196  1  0.36984950  0.37247450  0.20973400  1
  S  S197  1  0.36984950  0.12752550  0.29026600  1
  S  S198  1  0.13015050  0.12752550  0.20973400  1
  S  S199  1  0.13015050  0.37247450  0.29026600  1
  S  S200  1  0.13063150  0.62823050  0.20939700  1
  S  S201  1  0.63063150  0.37176950  0.29060300  1
  S  S202  1  0.86936850  0.37176950  0.20939700  1
  S  S203  1  0.36936850  0.62823050  0.29060300  1
  S  S204  1  0.11936850  0.62176950  0.04060300  1
  S  S205  1  0.61936850  0.37823050  0.45939700  1
  S  S206  1  0.88063150  0.37823050  0.04060300  1
  S  S207  1  0.38063150  0.62176950  0.45939700  1
  S  S208  1  0.35881750  0.79369750  0.37464900  1
  S  S209  1  0.35881750  0.70630250  0.12535100  1
  S  S210  1  0.14118250  0.70630250  0.37464900  1
  S  S211  1  0.14118250  0.79369750  0.12535100  1
  S  S212  1  0.37334450  0.96905050  0.37919800  1
  S  S213  1  0.37334450  0.53094950  0.12080200  1
  S  S214  1  0.12665550  0.53094950  0.37919800  1
  S  S215  1  0.12665550  0.96905050  0.12080200  1
  S  S216  1  0.37665550  0.28094950  0.37080200  1
  S  S217  1  0.87665550  0.71905050  0.12919800  1
  S  S218  1  0.62334450  0.71905050  0.37080200  1
  S  S219  1  0.12334450  0.28094950  0.12919800  1
  S  S220  1  0.10881750  0.45630250  0.12464900  1
  S  S221  1  0.60881750  0.54369750  0.37535100  1
  S  S222  1  0.89118250  0.54369750  0.12464900  1
  S  S223  1  0.39118250  0.45630250  0.37535100  1
