# generated using pymatgen
data_Ag2MoO4
_symmetry_space_group_name_H-M   'P 1'
_cell_length_a   9.46512400
_cell_length_b   9.46512400
_cell_length_c   9.46512400
_cell_angle_alpha   90.00000000
_cell_angle_beta   90.00000000
_cell_angle_gamma   90.00000000
_symmetry_Int_Tables_number   1
_chemical_formula_structural   Ag2MoO4
_chemical_formula_sum   'Ag16 Mo8 O32'
_cell_volume   847.96694614
_cell_formula_units_Z   8
loop_
 _symmetry_equiv_pos_site_id
 _symmetry_equiv_pos_as_xyz
  1  'x, y, z'
loop_
 _atom_site_type_symbol
 _atom_site_label
 _atom_site_symmetry_multiplicity
 _atom_site_fract_x
 _atom_site_fract_y
 _atom_site_fract_z
 _atom_site_occupancy
  Ag  Ag0  1  0.37500000  0.62500000  0.37500000  1
  Ag  Ag1  1  0.37500000  0.87500000  0.12500000  1
  Ag  Ag2  1  0.12500000  0.87500000  0.37500000  1
  Ag  Ag3  1  0.12500000  0.62500000  0.12500000  1
  Ag  Ag4  1  0.37500000  0.12500000  0.87500000  1
  Ag  Ag5  1  0.37500000  0.37500000  0.62500000  1
  Ag  Ag6  1  0.12500000  0.37500000  0.87500000  1
  Ag  Ag7  1  0.12500000  0.12500000  0.62500000  1
  Ag  Ag8  1  0.87500000  0.62500000  0.87500000  1
  Ag  Ag9  1  0.87500000  0.87500000  0.62500000  1
  Ag  Ag10  1  0.62500000  0.87500000  0.87500000  1
  Ag  Ag11  1  0.62500000  0.62500000  0.62500000  1
  Ag  Ag12  1  0.87500000  0.12500000  0.37500000  1
  Ag  Ag13  1  0.87500000  0.37500000  0.12500000  1
  Ag  Ag14  1  0.62500000  0.37500000  0.37500000  1
  Ag  Ag15  1  0.62500000  0.12500000  0.12500000  1
  Mo  Mo16  1  0.25000000  0.25000000  0.25000000  1
  Mo  Mo17  1  0.50000000  0.00000000  0.50000000  1
  Mo  Mo18  1  0.25000000  0.75000000  0.75000000  1
  Mo  Mo19  1  0.50000000  0.50000000  0.00000000  1
  Mo  Mo20  1  0.75000000  0.25000000  0.75000000  1
  Mo  Mo21  1  0.00000000  0.00000000  0.00000000  1
  Mo  Mo22  1  0.75000000  0.75000000  0.25000000  1
  Mo  Mo23  1  0.00000000  0.50000000  0.50000000  1
  O  O24  1  0.38962600  0.88962600  0.38962600  1
  O  O25  1  0.13962600  0.36037400  0.13962600  1
  O  O26  1  0.11037400  0.88962600  0.11037400  1
  O  O27  1  0.13962600  0.13962600  0.36037400  1
  O  O28  1  0.36037400  0.13962600  0.13962600  1
  O  O29  1  0.36037400  0.36037400  0.36037400  1
  O  O30  1  0.88962600  0.11037400  0.11037400  1
  O  O31  1  0.61037400  0.11037400  0.38962600  1
  O  O32  1  0.38962600  0.38962600  0.88962600  1
  O  O33  1  0.13962600  0.86037400  0.63962600  1
  O  O34  1  0.11037400  0.38962600  0.61037400  1
  O  O35  1  0.13962600  0.63962600  0.86037400  1
  O  O36  1  0.36037400  0.63962600  0.63962600  1
  O  O37  1  0.36037400  0.86037400  0.86037400  1
  O  O38  1  0.88962600  0.61037400  0.61037400  1
  O  O39  1  0.61037400  0.61037400  0.88962600  1
  O  O40  1  0.88962600  0.88962600  0.88962600  1
  O  O41  1  0.63962600  0.36037400  0.63962600  1
  O  O42  1  0.61037400  0.88962600  0.61037400  1
  O  O43  1  0.63962600  0.13962600  0.86037400  1
  O  O44  1  0.86037400  0.13962600  0.63962600  1
  O  O45  1  0.86037400  0.36037400  0.86037400  1
  O  O46  1  0.38962600  0.11037400  0.61037400  1
  O  O47  1  0.11037400  0.11037400  0.88962600  1
  O  O48  1  0.88962600  0.38962600  0.38962600  1
  O  O49  1  0.63962600  0.86037400  0.13962600  1
  O  O50  1  0.61037400  0.38962600  0.11037400  1
  O  O51  1  0.63962600  0.63962600  0.36037400  1
  O  O52  1  0.86037400  0.63962600  0.13962600  1
  O  O53  1  0.86037400  0.86037400  0.36037400  1
  O  O54  1  0.38962600  0.61037400  0.11037400  1
  O  O55  1  0.11037400  0.61037400  0.38962600  1
