# generated using pymatgen
data_Ca4Al6WO16
_symmetry_space_group_name_H-M   'P 1'
_cell_length_a   9.46021000
_cell_length_b   9.46021000
_cell_length_c   9.46021000
_cell_angle_alpha   90.00000000
_cell_angle_beta   90.00000000
_cell_angle_gamma   90.00000000
_symmetry_Int_Tables_number   1
_chemical_formula_structural   Ca4Al6WO16
_chemical_formula_sum   'Ca8 Al12 W2 O32'
_cell_volume   846.64691696
_cell_formula_units_Z   2
loop_
 _symmetry_equiv_pos_site_id
 _symmetry_equiv_pos_as_xyz
  1  'x, y, z'
loop_
 _atom_site_type_symbol
 _atom_site_label
 _atom_site_symmetry_multiplicity
 _atom_site_fract_x
 _atom_site_fract_y
 _atom_site_fract_z
 _atom_site_occupancy
  Ca  Ca0  1  0.24900250  0.24900250  0.75099750  1
  Ca  Ca1  1  0.24900250  0.75099750  0.24900250  1
  Ca  Ca2  1  0.25099750  0.25099750  0.25099750  1
  Ca  Ca3  1  0.75099750  0.24900250  0.24900250  1
  Ca  Ca4  1  0.74900250  0.74900250  0.25099750  1
  Ca  Ca5  1  0.74900250  0.25099750  0.74900250  1
  Ca  Ca6  1  0.75099750  0.75099750  0.75099750  1
  Ca  Ca7  1  0.25099750  0.74900250  0.74900250  1
  Al  Al8  1  0.25000000  0.50000000  0.00000000  1
  Al  Al9  1  0.00000000  0.50000000  0.25000000  1
  Al  Al10  1  0.00000000  0.25000000  0.50000000  1
  Al  Al11  1  0.50000000  0.25000000  0.00000000  1
  Al  Al12  1  0.50000000  0.00000000  0.25000000  1
  Al  Al13  1  0.25000000  0.00000000  0.50000000  1
  Al  Al14  1  0.75000000  0.00000000  0.50000000  1
  Al  Al15  1  0.50000000  0.00000000  0.75000000  1
  Al  Al16  1  0.50000000  0.75000000  0.00000000  1
  Al  Al17  1  0.00000000  0.75000000  0.50000000  1
  Al  Al18  1  0.00000000  0.50000000  0.75000000  1
  Al  Al19  1  0.75000000  0.50000000  0.00000000  1
  W  W20  1  0.00000000  0.00000000  0.00000000  1
  W  W21  1  0.50000000  0.50000000  0.50000000  1
  O  O22  1  0.95630250  0.34656050  0.34656050  1
  O  O23  1  0.15343950  0.15343950  0.45630250  1
  O  O24  1  0.15343950  0.45630250  0.15343950  1
  O  O25  1  0.84656050  0.54369750  0.15343950  1
  O  O26  1  0.84656050  0.15343950  0.54369750  1
  O  O27  1  0.34656050  0.95630250  0.34656050  1
  O  O28  1  0.15343950  0.54369750  0.84656050  1
  O  O29  1  0.54369750  0.84656050  0.15343950  1
  O  O30  1  0.54369750  0.15343950  0.84656050  1
  O  O31  1  0.15343950  0.84656050  0.54369750  1
  O  O32  1  0.34656050  0.34656050  0.95630250  1
  O  O33  1  0.38955850  0.38955850  0.38955850  1
  O  O34  1  0.11044150  0.11044150  0.88955850  1
  O  O35  1  0.88955850  0.11044150  0.11044150  1
  O  O36  1  0.11044150  0.88955850  0.11044150  1
  O  O37  1  0.45630250  0.15343950  0.15343950  1
  O  O38  1  0.45630250  0.84656050  0.84656050  1
  O  O39  1  0.65343950  0.65343950  0.95630250  1
  O  O40  1  0.65343950  0.95630250  0.65343950  1
  O  O41  1  0.34656050  0.04369750  0.65343950  1
  O  O42  1  0.34656050  0.65343950  0.04369750  1
  O  O43  1  0.84656050  0.45630250  0.84656050  1
  O  O44  1  0.65343950  0.04369750  0.34656050  1
  O  O45  1  0.04369750  0.34656050  0.65343950  1
  O  O46  1  0.04369750  0.65343950  0.34656050  1
  O  O47  1  0.65343950  0.34656050  0.04369750  1
  O  O48  1  0.84656050  0.84656050  0.45630250  1
  O  O49  1  0.88955850  0.88955850  0.88955850  1
  O  O50  1  0.61044150  0.61044150  0.38955850  1
  O  O51  1  0.38955850  0.61044150  0.61044150  1
  O  O52  1  0.61044150  0.38955850  0.61044150  1
  O  O53  1  0.95630250  0.65343950  0.65343950  1
