# generated using pymatgen
data_NbCuO3
_symmetry_space_group_name_H-M   'P 1'
_cell_length_a   9.72876600
_cell_length_b   8.73475200
_cell_length_c   6.87182941
_cell_angle_alpha   90.00000000
_cell_angle_beta   90.73888924
_cell_angle_gamma   90.00000000
_symmetry_Int_Tables_number   1
_chemical_formula_structural   NbCuO3
_chemical_formula_sum   'Nb8 Cu8 O24'
_cell_volume   583.90822413
_cell_formula_units_Z   8
loop_
 _symmetry_equiv_pos_site_id
 _symmetry_equiv_pos_as_xyz
  1  'x, y, z'
loop_
 _atom_site_type_symbol
 _atom_site_label
 _atom_site_symmetry_multiplicity
 _atom_site_fract_x
 _atom_site_fract_y
 _atom_site_fract_z
 _atom_site_occupancy
  Nb  Nb0  1  0.50000000  0.29861800  0.00000000  1
  Nb  Nb1  1  0.50000000  0.70138200  0.00000000  1
  Nb  Nb2  1  0.24919200  0.00000000  0.77770100  1
  Nb  Nb3  1  0.75080800  0.00000000  0.22229900  1
  Nb  Nb4  1  0.00000000  0.79861800  0.00000000  1
  Nb  Nb5  1  0.00000000  0.20138200  0.00000000  1
  Nb  Nb6  1  0.74919200  0.50000000  0.77770100  1
  Nb  Nb7  1  0.25080800  0.50000000  0.22229900  1
  Cu  Cu8  1  0.50000000  0.34746200  0.50000000  1
  Cu  Cu9  1  0.50000000  0.65253800  0.50000000  1
  Cu  Cu10  1  0.78446400  0.00000000  0.70381100  1
  Cu  Cu11  1  0.21553600  0.00000000  0.29618900  1
  Cu  Cu12  1  0.00000000  0.84746200  0.50000000  1
  Cu  Cu13  1  0.00000000  0.15253800  0.50000000  1
  Cu  Cu14  1  0.28446400  0.50000000  0.70381100  1
  Cu  Cu15  1  0.71553600  0.50000000  0.29618900  1
  O  O16  1  0.69375200  0.00000000  0.47404000  1
  O  O17  1  0.30624800  0.00000000  0.52596000  1
  O  O18  1  0.87080000  0.00000000  0.94334900  1
  O  O19  1  0.12920000  0.00000000  0.05665100  1
  O  O20  1  0.59202050  0.33755150  0.74124900  1
  O  O21  1  0.40797950  0.33755150  0.25875100  1
  O  O22  1  0.40797950  0.66244850  0.25875100  1
  O  O23  1  0.59202050  0.66244850  0.74124900  1
  O  O24  1  0.36832100  0.83818000  0.89296600  1
  O  O25  1  0.63167900  0.83818000  0.10703400  1
  O  O26  1  0.63167900  0.16182000  0.10703400  1
  O  O27  1  0.36832100  0.16182000  0.89296600  1
  O  O28  1  0.19375200  0.50000000  0.47404000  1
  O  O29  1  0.80624800  0.50000000  0.52596000  1
  O  O30  1  0.37080000  0.50000000  0.94334900  1
  O  O31  1  0.62920000  0.50000000  0.05665100  1
  O  O32  1  0.09202050  0.83755150  0.74124900  1
  O  O33  1  0.90797950  0.83755150  0.25875100  1
  O  O34  1  0.90797950  0.16244850  0.25875100  1
  O  O35  1  0.09202050  0.16244850  0.74124900  1
  O  O36  1  0.86832100  0.33818000  0.89296600  1
  O  O37  1  0.13167900  0.33818000  0.10703400  1
  O  O38  1  0.13167900  0.66182000  0.10703400  1
  O  O39  1  0.86832100  0.66182000  0.89296600  1
