# generated using pymatgen
data_SrSnO3
_symmetry_space_group_name_H-M   'P 1'
_cell_length_a   5.79166800
_cell_length_b   5.83749400
_cell_length_c   8.15811000
_cell_angle_alpha   90.00000000
_cell_angle_beta   90.00000000
_cell_angle_gamma   90.00000000
_symmetry_Int_Tables_number   1
_chemical_formula_structural   SrSnO3
_chemical_formula_sum   'Sr4 Sn4 O12'
_cell_volume   275.81613127
_cell_formula_units_Z   4
loop_
 _symmetry_equiv_pos_site_id
 _symmetry_equiv_pos_as_xyz
  1  'x, y, z'
loop_
 _atom_site_type_symbol
 _atom_site_label
 _atom_site_symmetry_multiplicity
 _atom_site_fract_x
 _atom_site_fract_y
 _atom_site_fract_z
 _atom_site_occupancy
  Sr  Sr0  1  0.00000000  0.99038400  0.25000000  1
  Sr  Sr1  1  0.00000000  0.00961600  0.75000000  1
  Sr  Sr2  1  0.50000000  0.49038400  0.75000000  1
  Sr  Sr3  1  0.50000000  0.50961600  0.25000000  1
  Sn  Sn4  1  0.50000000  0.00000000  0.50000000  1
  Sn  Sn5  1  0.50000000  0.00000000  0.00000000  1
  Sn  Sn6  1  0.00000000  0.50000000  0.00000000  1
  Sn  Sn7  1  0.00000000  0.50000000  0.50000000  1
  O  O8  1  0.75000000  0.25000000  0.54470900  1
  O  O9  1  0.75000000  0.75000000  0.45529100  1
  O  O10  1  0.25000000  0.75000000  0.45529100  1
  O  O11  1  0.25000000  0.25000000  0.54470900  1
  O  O12  1  0.50000000  0.07993800  0.25000000  1
  O  O13  1  0.50000000  0.92006200  0.75000000  1
  O  O14  1  0.25000000  0.75000000  0.04470900  1
  O  O15  1  0.25000000  0.25000000  0.95529100  1
  O  O16  1  0.75000000  0.25000000  0.95529100  1
  O  O17  1  0.75000000  0.75000000  0.04470900  1
  O  O18  1  0.00000000  0.57993800  0.75000000  1
  O  O19  1  0.00000000  0.42006200  0.25000000  1
