# generated using pymatgen
data_Rb2TaAgS4
_symmetry_space_group_name_H-M   'P 1'
_cell_length_a   6.00564000
_cell_length_b   13.96695800
_cell_length_c   24.09962600
_cell_angle_alpha   90.00000000
_cell_angle_beta   90.00000000
_cell_angle_gamma   90.00000000
_symmetry_Int_Tables_number   1
_chemical_formula_structural   Rb2TaAgS4
_chemical_formula_sum   'Rb16 Ta8 Ag8 S32'
_cell_volume   2021.48920028
_cell_formula_units_Z   8
loop_
 _symmetry_equiv_pos_site_id
 _symmetry_equiv_pos_as_xyz
  1  'x, y, z'
loop_
 _atom_site_type_symbol
 _atom_site_label
 _atom_site_symmetry_multiplicity
 _atom_site_fract_x
 _atom_site_fract_y
 _atom_site_fract_z
 _atom_site_occupancy
  Rb  Rb0  1  0.25000000  0.75000000  0.92917200  1
  Rb  Rb1  1  0.00000000  0.00000000  0.82082800  1
  Rb  Rb2  1  0.25000000  0.75000000  0.57082800  1
  Rb  Rb3  1  0.50000000  0.00000000  0.67917200  1
  Rb  Rb4  1  0.25000000  0.25000000  0.42917200  1
  Rb  Rb5  1  0.00000000  0.50000000  0.32082800  1
  Rb  Rb6  1  0.25000000  0.25000000  0.07082800  1
  Rb  Rb7  1  0.50000000  0.50000000  0.17917200  1
  Rb  Rb8  1  0.75000000  0.75000000  0.42917200  1
  Rb  Rb9  1  0.50000000  0.00000000  0.32082800  1
  Rb  Rb10  1  0.75000000  0.75000000  0.07082800  1
  Rb  Rb11  1  0.00000000  0.00000000  0.17917200  1
  Rb  Rb12  1  0.75000000  0.25000000  0.92917200  1
  Rb  Rb13  1  0.50000000  0.50000000  0.82082800  1
  Rb  Rb14  1  0.75000000  0.25000000  0.57082800  1
  Rb  Rb15  1  0.00000000  0.50000000  0.67917200  1
  Ta  Ta16  1  0.00000000  0.00000000  0.00000000  1
  Ta  Ta17  1  0.25000000  0.75000000  0.75000000  1
  Ta  Ta18  1  0.00000000  0.50000000  0.50000000  1
  Ta  Ta19  1  0.25000000  0.25000000  0.25000000  1
  Ta  Ta20  1  0.50000000  0.00000000  0.50000000  1
  Ta  Ta21  1  0.75000000  0.75000000  0.25000000  1
  Ta  Ta22  1  0.50000000  0.50000000  0.00000000  1
  Ta  Ta23  1  0.75000000  0.25000000  0.75000000  1
  Ag  Ag24  1  0.50000000  0.00000000  0.00000000  1
  Ag  Ag25  1  0.75000000  0.75000000  0.75000000  1
  Ag  Ag26  1  0.50000000  0.50000000  0.50000000  1
  Ag  Ag27  1  0.75000000  0.25000000  0.25000000  1
  Ag  Ag28  1  0.00000000  0.00000000  0.50000000  1
  Ag  Ag29  1  0.25000000  0.75000000  0.25000000  1
  Ag  Ag30  1  0.00000000  0.50000000  0.00000000  1
  Ag  Ag31  1  0.25000000  0.25000000  0.75000000  1
  S  S32  1  0.71320600  0.90194300  0.55551700  1
  S  S33  1  0.71320600  0.59805700  0.94448300  1
  S  S34  1  0.78679400  0.90194300  0.94448300  1
  S  S35  1  0.78679400  0.59805700  0.55551700  1
  S  S36  1  0.03679400  0.84805700  0.69448300  1
  S  S37  1  0.46320600  0.65194300  0.69448300  1
  S  S38  1  0.46320600  0.84805700  0.80551700  1
  S  S39  1  0.03679400  0.65194300  0.80551700  1
  S  S40  1  0.71320600  0.40194300  0.05551700  1
  S  S41  1  0.71320600  0.09805700  0.44448300  1
  S  S42  1  0.78679400  0.40194300  0.44448300  1
  S  S43  1  0.78679400  0.09805700  0.05551700  1
  S  S44  1  0.03679400  0.34805700  0.19448300  1
  S  S45  1  0.46320600  0.15194300  0.19448300  1
  S  S46  1  0.46320600  0.34805700  0.30551700  1
  S  S47  1  0.03679400  0.15194300  0.30551700  1
  S  S48  1  0.21320600  0.90194300  0.05551700  1
  S  S49  1  0.21320600  0.59805700  0.44448300  1
  S  S50  1  0.28679400  0.90194300  0.44448300  1
  S  S51  1  0.28679400  0.59805700  0.05551700  1
  S  S52  1  0.53679400  0.84805700  0.19448300  1
  S  S53  1  0.96320600  0.65194300  0.19448300  1
  S  S54  1  0.96320600  0.84805700  0.30551700  1
  S  S55  1  0.53679400  0.65194300  0.30551700  1
  S  S56  1  0.21320600  0.40194300  0.55551700  1
  S  S57  1  0.21320600  0.09805700  0.94448300  1
  S  S58  1  0.28679400  0.40194300  0.94448300  1
  S  S59  1  0.28679400  0.09805700  0.55551700  1
  S  S60  1  0.53679400  0.34805700  0.69448300  1
  S  S61  1  0.96320600  0.15194300  0.69448300  1
  S  S62  1  0.96320600  0.34805700  0.80551700  1
  S  S63  1  0.53679400  0.15194300  0.80551700  1
