# generated using pymatgen
data_BPO4
_symmetry_space_group_name_H-M   'P 1'
_cell_length_a   4.54783779
_cell_length_b   4.54783779
_cell_length_c   10.05601700
_cell_angle_alpha   90.00000000
_cell_angle_beta   90.00000000
_cell_angle_gamma   120.00000000
_symmetry_Int_Tables_number   1
_chemical_formula_structural   BPO4
_chemical_formula_sum   'B3 P3 O12'
_cell_volume   180.12191812
_cell_formula_units_Z   3
loop_
 _symmetry_equiv_pos_site_id
 _symmetry_equiv_pos_as_xyz
  1  'x, y, z'
loop_
 _atom_site_type_symbol
 _atom_site_label
 _atom_site_symmetry_multiplicity
 _atom_site_fract_x
 _atom_site_fract_y
 _atom_site_fract_z
 _atom_site_occupancy
  B  B0  1  0.47017000  0.00000000  0.33333333  1
  B  B1  1  0.00000000  0.47017000  0.66666667  1
  B  B2  1  0.52983000  0.52983000  0.00000000  1
  P  P3  1  0.46918300  0.00000000  0.83333333  1
  P  P4  1  0.53081700  0.53081700  0.50000000  1
  P  P5  1  0.00000000  0.46918300  0.16666667  1
  O  O6  1  0.73609000  0.14394300  0.72133900  1
  O  O7  1  0.27477100  0.40602000  0.10731700  1
  O  O8  1  0.59398000  0.86875100  0.44065033  1
  O  O9  1  0.40785300  0.26391000  0.38800567  1
  O  O10  1  0.14394300  0.73609000  0.27866100  1
  O  O11  1  0.85605700  0.59214700  0.05467233  1
  O  O12  1  0.26391000  0.40785300  0.61199433  1
  O  O13  1  0.59214700  0.85605700  0.94532767  1
  O  O14  1  0.86875100  0.59398000  0.55934967  1
  O  O15  1  0.40602000  0.27477100  0.89268300  1
  O  O16  1  0.72522900  0.13124900  0.22601633  1
  O  O17  1  0.13124900  0.72522900  0.77398367  1
