# generated using pymatgen
data_Ag6Ge2O7
_symmetry_space_group_name_H-M   'P 1'
_cell_length_a   5.53357900
_cell_length_b   10.21137900
_cell_length_c   16.33759294
_cell_angle_alpha   90.00000000
_cell_angle_beta   90.21209624
_cell_angle_gamma   90.00000000
_symmetry_Int_Tables_number   1
_chemical_formula_structural   Ag6Ge2O7
_chemical_formula_sum   'Ag24 Ge8 O28'
_cell_volume   923.15708166
_cell_formula_units_Z   4
loop_
 _symmetry_equiv_pos_site_id
 _symmetry_equiv_pos_as_xyz
  1  'x, y, z'
loop_
 _atom_site_type_symbol
 _atom_site_label
 _atom_site_symmetry_multiplicity
 _atom_site_fract_x
 _atom_site_fract_y
 _atom_site_fract_z
 _atom_site_occupancy
  Ag  Ag0  1  0.82689700  0.01486600  0.07159900  1
  Ag  Ag1  1  0.17310300  0.51486600  0.92840100  1
  Ag  Ag2  1  0.71906600  0.98879200  0.57801000  1
  Ag  Ag3  1  0.28093400  0.48879200  0.42199000  1
  Ag  Ag4  1  0.71589500  0.15941500  0.42743300  1
  Ag  Ag5  1  0.28410500  0.65941500  0.57256700  1
  Ag  Ag6  1  0.31589900  0.99094200  0.17459900  1
  Ag  Ag7  1  0.68410100  0.49094200  0.82540100  1
  Ag  Ag8  1  0.27621900  0.00088800  0.67496900  1
  Ag  Ag9  1  0.72378100  0.50088800  0.32503100  1
  Ag  Ag10  1  0.30350600  0.21579100  0.54788100  1
  Ag  Ag11  1  0.69649400  0.71579100  0.45211900  1
  Ag  Ag12  1  0.68520500  0.75843200  0.99164800  1
  Ag  Ag13  1  0.31479500  0.25843200  0.00835200  1
  Ag  Ag14  1  0.25677800  0.70625400  0.08918100  1
  Ag  Ag15  1  0.74322200  0.20625400  0.91081900  1
  Ag  Ag16  1  0.29132000  0.48701300  0.19406200  1
  Ag  Ag17  1  0.70868000  0.98701300  0.80593800  1
  Ag  Ag18  1  0.27721700  0.45912700  0.70509700  1
  Ag  Ag19  1  0.72278300  0.95912700  0.29490300  1
  Ag  Ag20  1  0.27860700  0.19599500  0.34318700  1
  Ag  Ag21  1  0.72139300  0.69599500  0.65681300  1
  Ag  Ag22  1  0.30564100  0.20336200  0.80922900  1
  Ag  Ag23  1  0.69435900  0.70336200  0.19077100  1
  Ge  Ge24  1  0.76435500  0.43207300  0.53071100  1
  Ge  Ge25  1  0.23564500  0.93207300  0.46928900  1
  Ge  Ge26  1  0.22745000  0.74766000  0.30508700  1
  Ge  Ge27  1  0.77255000  0.24766000  0.69491300  1
  Ge  Ge28  1  0.28415400  0.73444500  0.79572200  1
  Ge  Ge29  1  0.24273900  0.95209200  0.93296200  1
  Ge  Ge30  1  0.75726100  0.45209200  0.06703800  1
  Ge  Ge31  1  0.71584600  0.23444500  0.20427800  1
  O  O32  1  0.44835600  0.25961100  0.68836100  1
  O  O33  1  0.55164400  0.75961100  0.31163900  1
  O  O34  1  0.86347900  0.07952600  0.69051600  1
  O  O35  1  0.13652100  0.57952600  0.30948400  1
  O  O36  1  0.89316600  0.32165000  0.78362400  1
  O  O37  1  0.10683400  0.82165000  0.21637600  1
  O  O38  1  0.09877200  0.82511200  0.39341900  1
  O  O39  1  0.90122800  0.32511200  0.60658100  1
  O  O40  1  0.55813200  0.93564400  0.45937700  1
  O  O41  1  0.44186800  0.43564400  0.54062300  1
  O  O42  1  0.12320300  0.09247100  0.44977800  1
  O  O43  1  0.87679700  0.59247100  0.55022200  1
  O  O44  1  0.13511400  0.87217500  0.56433300  1
  O  O45  1  0.86488600  0.37217500  0.43566700  1
  O  O46  1  0.55914800  0.14154700  0.12610500  1
  O  O47  1  0.44085200  0.64154700  0.87389500  1
  O  O48  1  0.50442400  0.31906600  0.26685400  1
  O  O49  1  0.49557600  0.81906600  0.73314600  1
  O  O50  1  0.91900600  0.13592900  0.26027000  1
  O  O51  1  0.08099400  0.63592900  0.73973000  1
  O  O52  1  0.88707300  0.36151900  0.15195300  1
  O  O53  1  0.11292700  0.86151900  0.84804700  1
  O  O54  1  0.15181600  0.11953600  0.91981500  1
  O  O55  1  0.84818400  0.61953600  0.08018500  1
  O  O56  1  0.43724100  0.44190000  0.06875500  1
  O  O57  1  0.11663600  0.89469100  0.02513300  1
  O  O58  1  0.88336400  0.39469100  0.97486700  1
  O  O59  1  0.56275900  0.94190000  0.93124500  1
