# generated using pymatgen
data_MgCN2
_symmetry_space_group_name_H-M   'P 1'
_cell_length_a   4.49116400
_cell_length_b   4.49116400
_cell_length_c   6.17775800
_cell_angle_alpha   90.00000000
_cell_angle_beta   90.00000000
_cell_angle_gamma   90.00000000
_symmetry_Int_Tables_number   1
_chemical_formula_structural   MgCN2
_chemical_formula_sum   'Mg4 C4 N8'
_cell_volume   124.60880180
_cell_formula_units_Z   4
loop_
 _symmetry_equiv_pos_site_id
 _symmetry_equiv_pos_as_xyz
  1  'x, y, z'
loop_
 _atom_site_type_symbol
 _atom_site_label
 _atom_site_symmetry_multiplicity
 _atom_site_fract_x
 _atom_site_fract_y
 _atom_site_fract_z
 _atom_site_occupancy
  Mg  Mg0  1  0.00000000  0.50000000  0.25000000  1
  Mg  Mg1  1  0.00000000  0.00000000  0.00000000  1
  Mg  Mg2  1  0.50000000  0.00000000  0.75000000  1
  Mg  Mg3  1  0.50000000  0.50000000  0.50000000  1
  C  C4  1  0.00000000  0.00000000  0.50000000  1
  C  C5  1  0.50000000  0.00000000  0.25000000  1
  C  C6  1  0.50000000  0.50000000  0.00000000  1
  C  C7  1  0.00000000  0.50000000  0.75000000  1
  N  N8  1  0.25000000  0.14714000  0.37500000  1
  N  N9  1  0.85286000  0.25000000  0.62500000  1
  N  N10  1  0.25000000  0.35286000  0.87500000  1
  N  N11  1  0.64714000  0.25000000  0.12500000  1
  N  N12  1  0.75000000  0.64714000  0.87500000  1
  N  N13  1  0.35286000  0.75000000  0.12500000  1
  N  N14  1  0.75000000  0.85286000  0.37500000  1
  N  N15  1  0.14714000  0.75000000  0.62500000  1
