# generated using pymatgen
data_Ga2Se3
_symmetry_space_group_name_H-M   'P 1'
_cell_length_a   6.81154800
_cell_length_b   11.99391400
_cell_length_c   6.76989570
_cell_angle_alpha   90.00000000
_cell_angle_beta   108.56824654
_cell_angle_gamma   90.00000000
_symmetry_Int_Tables_number   1
_chemical_formula_structural   Ga2Se3
_chemical_formula_sum   'Ga8 Se12'
_cell_volume   524.29037483
_cell_formula_units_Z   4
loop_
 _symmetry_equiv_pos_site_id
 _symmetry_equiv_pos_as_xyz
  1  'x, y, z'
loop_
 _atom_site_type_symbol
 _atom_site_label
 _atom_site_symmetry_multiplicity
 _atom_site_fract_x
 _atom_site_fract_y
 _atom_site_fract_z
 _atom_site_occupancy
  Ga  Ga0  1  0.53185200  0.74887400  0.50514200  1
  Ga  Ga1  1  0.03185200  0.75112600  0.00514200  1
  Ga  Ga2  1  0.99888600  0.58505700  0.50098900  1
  Ga  Ga3  1  0.49888600  0.91494300  0.00098900  1
  Ga  Ga4  1  0.03185200  0.24887400  0.50514200  1
  Ga  Ga5  1  0.53185200  0.25112600  0.00514200  1
  Ga  Ga6  1  0.49888600  0.08505700  0.50098900  1
  Ga  Ga7  1  0.99888600  0.41494300  0.00098900  1
  Se  Se8  1  0.16240700  0.57797200  0.88661900  1
  Se  Se9  1  0.66240700  0.92202800  0.38661900  1
  Se  Se10  1  0.63278450  0.58588650  0.36236300  1
  Se  Se11  1  0.13278450  0.91411350  0.86236300  1
  Se  Se12  1  0.14427000  0.75722700  0.39248600  1
  Se  Se13  1  0.64427000  0.74277300  0.89248600  1
  Se  Se14  1  0.66240700  0.07797200  0.88661900  1
  Se  Se15  1  0.16240700  0.42202800  0.38661900  1
  Se  Se16  1  0.13278450  0.08588650  0.36236300  1
  Se  Se17  1  0.63278450  0.41411350  0.86236300  1
  Se  Se18  1  0.64427000  0.25722700  0.39248600  1
  Se  Se19  1  0.14427000  0.24277300  0.89248600  1
