# generated using pymatgen
data_Ta2O5
_symmetry_space_group_name_H-M   'P 1'
_cell_length_a   12.95019600
_cell_length_b   4.92996400
_cell_length_c   5.59861841
_cell_angle_alpha   90.00000000
_cell_angle_beta   103.16673937
_cell_angle_gamma   90.00000000
_symmetry_Int_Tables_number   1
_chemical_formula_structural   Ta2O5
_chemical_formula_sum   'Ta8 O20'
_cell_volume   348.04160807
_cell_formula_units_Z   4
loop_
 _symmetry_equiv_pos_site_id
 _symmetry_equiv_pos_as_xyz
  1  'x, y, z'
loop_
 _atom_site_type_symbol
 _atom_site_label
 _atom_site_symmetry_multiplicity
 _atom_site_fract_x
 _atom_site_fract_y
 _atom_site_fract_z
 _atom_site_occupancy
  Ta  Ta0  1  0.14102000  0.75366100  0.76922300  1
  Ta  Ta1  1  0.35898000  0.25366100  0.73077700  1
  Ta  Ta2  1  0.35898000  0.74633900  0.23077700  1
  Ta  Ta3  1  0.14102000  0.24633900  0.26922300  1
  Ta  Ta4  1  0.64102000  0.25366100  0.76922300  1
  Ta  Ta5  1  0.85898000  0.75366100  0.73077700  1
  Ta  Ta6  1  0.85898000  0.24633900  0.23077700  1
  Ta  Ta7  1  0.64102000  0.74633900  0.26922300  1
  O  O8  1  0.29528350  0.56848850  0.87243300  1
  O  O9  1  0.20471650  0.06848850  0.62756700  1
  O  O10  1  0.20471650  0.93151150  0.12756700  1
  O  O11  1  0.29528350  0.43151150  0.37243300  1
  O  O12  1  0.00000000  0.10877200  0.25000000  1
  O  O13  1  0.00000000  0.89122800  0.75000000  1
  O  O14  1  0.38818050  0.05028750  0.01668000  1
  O  O15  1  0.11181950  0.55028750  0.48332000  1
  O  O16  1  0.11181950  0.44971250  0.98332000  1
  O  O17  1  0.38818050  0.94971250  0.51668000  1
  O  O18  1  0.79528350  0.06848850  0.87243300  1
  O  O19  1  0.70471650  0.56848850  0.62756700  1
  O  O20  1  0.70471650  0.43151150  0.12756700  1
  O  O21  1  0.79528350  0.93151150  0.37243300  1
  O  O22  1  0.50000000  0.60877200  0.25000000  1
  O  O23  1  0.50000000  0.39122800  0.75000000  1
  O  O24  1  0.88818050  0.55028750  0.01668000  1
  O  O25  1  0.61181950  0.05028750  0.48332000  1
  O  O26  1  0.61181950  0.94971250  0.98332000  1
  O  O27  1  0.88818050  0.44971250  0.51668000  1
