# generated using pymatgen
data_Na2FeO4
_symmetry_space_group_name_H-M   'P 1'
_cell_length_a   5.88994506
_cell_length_b   9.34601859
_cell_length_c   7.22498100
_cell_angle_alpha   90.00000000
_cell_angle_beta   90.00000000
_cell_angle_gamma   90.00000000
_symmetry_Int_Tables_number   1
_chemical_formula_structural   Na2FeO4
_chemical_formula_sum   'Na8 Fe4 O16'
_cell_volume   397.71740181
_cell_formula_units_Z   4
loop_
 _symmetry_equiv_pos_site_id
 _symmetry_equiv_pos_as_xyz
  1  'x, y, z'
loop_
 _atom_site_type_symbol
 _atom_site_label
 _atom_site_symmetry_multiplicity
 _atom_site_fract_x
 _atom_site_fract_y
 _atom_site_fract_z
 _atom_site_occupancy
  Na  Na0  1  0.50000000  0.00000000  0.50000000  1
  Na  Na1  1  0.50000000  0.00000000  0.00000000  1
  Na  Na2  1  0.50000000  0.68145600  0.75000000  1
  Na  Na3  1  0.50000000  0.31854400  0.25000000  1
  Na  Na4  1  0.00000000  0.50000000  0.50000000  1
  Na  Na5  1  0.00000000  0.50000000  0.00000000  1
  Na  Na6  1  0.00000000  0.18145600  0.75000000  1
  Na  Na7  1  0.00000000  0.81854400  0.25000000  1
  Fe  Fe8  1  0.50000000  0.64711900  0.25000000  1
  Fe  Fe9  1  0.50000000  0.35288100  0.75000000  1
  Fe  Fe10  1  0.00000000  0.14711900  0.25000000  1
  Fe  Fe11  1  0.00000000  0.85288100  0.75000000  1
  O  O12  1  0.50000000  0.74983400  0.43588700  1
  O  O13  1  0.50000000  0.25016600  0.93588700  1
  O  O14  1  0.50000000  0.25016600  0.56411300  1
  O  O15  1  0.50000000  0.74983400  0.06411300  1
  O  O16  1  0.23038550  0.04230950  0.25000000  1
  O  O17  1  0.76961450  0.95769050  0.75000000  1
  O  O18  1  0.76961450  0.04230950  0.25000000  1
  O  O19  1  0.23038550  0.95769050  0.75000000  1
  O  O20  1  0.00000000  0.24983400  0.43588700  1
  O  O21  1  0.00000000  0.75016600  0.93588700  1
  O  O22  1  0.00000000  0.75016600  0.56411300  1
  O  O23  1  0.00000000  0.24983400  0.06411300  1
  O  O24  1  0.73038550  0.54230950  0.25000000  1
  O  O25  1  0.26961450  0.45769050  0.75000000  1
  O  O26  1  0.26961450  0.54230950  0.25000000  1
  O  O27  1  0.73038550  0.45769050  0.75000000  1
