# generated using pymatgen
data_CaAl2SiO6
_symmetry_space_group_name_H-M   'P 1'
_cell_length_a   9.75158400
_cell_length_b   8.71873600
_cell_length_c   5.32471973
_cell_angle_alpha   90.00000000
_cell_angle_beta   106.02949084
_cell_angle_gamma   90.00000000
_symmetry_Int_Tables_number   1
_chemical_formula_structural   CaAl2SiO6
_chemical_formula_sum   'Ca4 Al8 Si4 O24'
_cell_volume   435.11386620
_cell_formula_units_Z   4
loop_
 _symmetry_equiv_pos_site_id
 _symmetry_equiv_pos_as_xyz
  1  'x, y, z'
loop_
 _atom_site_type_symbol
 _atom_site_label
 _atom_site_symmetry_multiplicity
 _atom_site_fract_x
 _atom_site_fract_y
 _atom_site_fract_z
 _atom_site_occupancy
  Ca  Ca0  1  0.00995700  0.31342800  0.75913900  1
  Ca  Ca1  1  0.00995700  0.68657200  0.25913900  1
  Ca  Ca2  1  0.50995700  0.81342800  0.75913900  1
  Ca  Ca3  1  0.50995700  0.18657200  0.25913900  1
  Al  Al4  1  0.21117400  0.59825100  0.79152100  1
  Al  Al5  1  0.21117400  0.40174900  0.29152100  1
  Al  Al6  1  0.99915300  0.90967100  0.73873000  1
  Al  Al7  1  0.99915300  0.09032900  0.23873000  1
  Al  Al8  1  0.71117400  0.09825100  0.79152100  1
  Al  Al9  1  0.71117400  0.90174900  0.29152100  1
  Al  Al10  1  0.49915300  0.40967100  0.73873000  1
  Al  Al11  1  0.49915300  0.59032900  0.23873000  1
  Si  Si12  1  0.78526750  0.59590350  0.71631800  1
  Si  Si13  1  0.78526750  0.40409650  0.21631800  1
  Si  Si14  1  0.28526750  0.09590350  0.71631800  1
  Si  Si15  1  0.28526750  0.90409650  0.21631800  1
  O  O16  1  0.40153600  0.57344000  0.87709600  1
  O  O17  1  0.13424200  0.77634000  0.67993600  1
  O  O18  1  0.13543000  0.52519800  0.02762100  1
  O  O19  1  0.61054850  0.58961950  0.62504400  1
  O  O20  1  0.86731300  0.75693100  0.79754500  1
  O  O21  1  0.84537950  0.51139850  0.48705000  1
  O  O22  1  0.61054850  0.41038050  0.12504400  1
  O  O23  1  0.86731300  0.24306900  0.29754500  1
  O  O24  1  0.84537950  0.48860150  0.98705000  1
  O  O25  1  0.40153600  0.42656000  0.37709600  1
  O  O26  1  0.13424200  0.22366000  0.17993600  1
  O  O27  1  0.13543000  0.47480200  0.52762100  1
  O  O28  1  0.90153600  0.07344000  0.87709600  1
  O  O29  1  0.63424200  0.27634000  0.67993600  1
  O  O30  1  0.63543000  0.02519800  0.02762100  1
  O  O31  1  0.11054850  0.08961950  0.62504400  1
  O  O32  1  0.36731300  0.25693100  0.79754500  1
  O  O33  1  0.34537950  0.01139850  0.48705000  1
  O  O34  1  0.11054850  0.91038050  0.12504400  1
  O  O35  1  0.36731300  0.74306900  0.29754500  1
  O  O36  1  0.34537950  0.98860150  0.98705000  1
  O  O37  1  0.90153600  0.92656000  0.37709600  1
  O  O38  1  0.63424200  0.72366000  0.17993600  1
  O  O39  1  0.63543000  0.97480200  0.52762100  1
