# generated using pymatgen
data_Cd(RhO2)2
_symmetry_space_group_name_H-M   'P 1'
_cell_length_a   8.92684200
_cell_length_b   8.92684200
_cell_length_c   8.92684200
_cell_angle_alpha   90.00000000
_cell_angle_beta   90.00000000
_cell_angle_gamma   90.00000000
_symmetry_Int_Tables_number   1
_chemical_formula_structural   Cd(RhO2)2
_chemical_formula_sum   'Cd8 Rh16 O32'
_cell_volume   711.36672096
_cell_formula_units_Z   8
loop_
 _symmetry_equiv_pos_site_id
 _symmetry_equiv_pos_as_xyz
  1  'x, y, z'
loop_
 _atom_site_type_symbol
 _atom_site_label
 _atom_site_symmetry_multiplicity
 _atom_site_fract_x
 _atom_site_fract_y
 _atom_site_fract_z
 _atom_site_occupancy
  Cd  Cd0  1  0.25000000  0.75000000  0.25000000  1
  Cd  Cd1  1  0.00000000  0.00000000  0.50000000  1
  Cd  Cd2  1  0.25000000  0.25000000  0.75000000  1
  Cd  Cd3  1  0.00000000  0.50000000  0.00000000  1
  Cd  Cd4  1  0.75000000  0.75000000  0.75000000  1
  Cd  Cd5  1  0.50000000  0.00000000  0.00000000  1
  Cd  Cd6  1  0.75000000  0.25000000  0.25000000  1
  Cd  Cd7  1  0.50000000  0.50000000  0.50000000  1
  Rh  Rh8  1  0.87500000  0.87500000  0.12500000  1
  Rh  Rh9  1  0.37500000  0.12500000  0.37500000  1
  Rh  Rh10  1  0.62500000  0.87500000  0.37500000  1
  Rh  Rh11  1  0.12500000  0.12500000  0.12500000  1
  Rh  Rh12  1  0.87500000  0.37500000  0.62500000  1
  Rh  Rh13  1  0.37500000  0.62500000  0.87500000  1
  Rh  Rh14  1  0.62500000  0.37500000  0.87500000  1
  Rh  Rh15  1  0.12500000  0.62500000  0.62500000  1
  Rh  Rh16  1  0.37500000  0.87500000  0.62500000  1
  Rh  Rh17  1  0.87500000  0.12500000  0.87500000  1
  Rh  Rh18  1  0.12500000  0.87500000  0.87500000  1
  Rh  Rh19  1  0.62500000  0.12500000  0.62500000  1
  Rh  Rh20  1  0.37500000  0.37500000  0.12500000  1
  Rh  Rh21  1  0.87500000  0.62500000  0.37500000  1
  Rh  Rh22  1  0.12500000  0.37500000  0.37500000  1
  Rh  Rh23  1  0.62500000  0.62500000  0.12500000  1
  O  O24  1  0.14346433  0.14346433  0.35653567  1
  O  O25  1  0.14346433  0.35653567  0.14346433  1
  O  O26  1  0.35653567  0.14346433  0.14346433  1
  O  O27  1  0.35653567  0.35653567  0.35653567  1
  O  O28  1  0.60653567  0.10653567  0.39346433  1
  O  O29  1  0.10653567  0.89346433  0.10653567  1
  O  O30  1  0.89346433  0.10653567  0.10653567  1
  O  O31  1  0.39346433  0.89346433  0.39346433  1
  O  O32  1  0.14346433  0.64346433  0.85653567  1
  O  O33  1  0.14346433  0.85653567  0.64346433  1
  O  O34  1  0.35653567  0.64346433  0.64346433  1
  O  O35  1  0.35653567  0.85653567  0.85653567  1
  O  O36  1  0.60653567  0.60653567  0.89346433  1
  O  O37  1  0.10653567  0.39346433  0.60653567  1
  O  O38  1  0.89346433  0.60653567  0.60653567  1
  O  O39  1  0.39346433  0.39346433  0.89346433  1
  O  O40  1  0.64346433  0.14346433  0.85653567  1
  O  O41  1  0.64346433  0.35653567  0.64346433  1
  O  O42  1  0.85653567  0.14346433  0.64346433  1
  O  O43  1  0.85653567  0.35653567  0.85653567  1
  O  O44  1  0.10653567  0.10653567  0.89346433  1
  O  O45  1  0.60653567  0.89346433  0.60653567  1
  O  O46  1  0.39346433  0.10653567  0.60653567  1
  O  O47  1  0.89346433  0.89346433  0.89346433  1
  O  O48  1  0.64346433  0.64346433  0.35653567  1
  O  O49  1  0.64346433  0.85653567  0.14346433  1
  O  O50  1  0.85653567  0.64346433  0.14346433  1
  O  O51  1  0.85653567  0.85653567  0.35653567  1
  O  O52  1  0.10653567  0.60653567  0.39346433  1
  O  O53  1  0.60653567  0.39346433  0.10653567  1
  O  O54  1  0.39346433  0.60653567  0.10653567  1
  O  O55  1  0.89346433  0.39346433  0.39346433  1
