# generated using pymatgen
data_CsZnPO4
_symmetry_space_group_name_H-M   'P 1'
_cell_length_a   5.58652000
_cell_length_b   9.19528600
_cell_length_c   9.77019200
_cell_angle_alpha   90.00000000
_cell_angle_beta   90.00000000
_cell_angle_gamma   90.00000000
_symmetry_Int_Tables_number   1
_chemical_formula_structural   CsZnPO4
_chemical_formula_sum   'Cs4 Zn4 P4 O16'
_cell_volume   501.89133512
_cell_formula_units_Z   4
loop_
 _symmetry_equiv_pos_site_id
 _symmetry_equiv_pos_as_xyz
  1  'x, y, z'
loop_
 _atom_site_type_symbol
 _atom_site_label
 _atom_site_symmetry_multiplicity
 _atom_site_fract_x
 _atom_site_fract_y
 _atom_site_fract_z
 _atom_site_occupancy
  Cs  Cs0  1  0.25000000  0.48776700  0.30939700  1
  Cs  Cs1  1  0.75000000  0.51223300  0.69060300  1
  Cs  Cs2  1  0.25000000  0.98776700  0.19060300  1
  Cs  Cs3  1  0.75000000  0.01223300  0.80939700  1
  Zn  Zn4  1  0.25000000  0.66241900  0.90431200  1
  Zn  Zn5  1  0.75000000  0.33758100  0.09568800  1
  Zn  Zn6  1  0.25000000  0.16241900  0.59568800  1
  Zn  Zn7  1  0.75000000  0.83758100  0.40431200  1
  P  P8  1  0.25000000  0.28745400  0.92737600  1
  P  P9  1  0.75000000  0.71254600  0.07262400  1
  P  P10  1  0.25000000  0.78745400  0.57262400  1
  P  P11  1  0.75000000  0.21254600  0.42737600  1
  O  O12  1  0.97452200  0.75768100  0.98753100  1
  O  O13  1  0.47452200  0.24231900  0.01246900  1
  O  O14  1  0.52547800  0.25768100  0.51246900  1
  O  O15  1  0.02547800  0.74231900  0.48753100  1
  O  O16  1  0.02547800  0.24231900  0.01246900  1
  O  O17  1  0.52547800  0.75768100  0.98753100  1
  O  O18  1  0.47452200  0.74231900  0.48753100  1
  O  O19  1  0.97452200  0.25768100  0.51246900  1
  O  O20  1  0.25000000  0.19580900  0.79485800  1
  O  O21  1  0.75000000  0.80419100  0.20514200  1
  O  O22  1  0.25000000  0.69580900  0.70514200  1
  O  O23  1  0.75000000  0.30419100  0.29485800  1
  O  O24  1  0.75000000  0.04896800  0.39472200  1
  O  O25  1  0.25000000  0.95103200  0.60527800  1
  O  O26  1  0.75000000  0.54896800  0.10527800  1
  O  O27  1  0.25000000  0.45103200  0.89472200  1
