# generated using pymatgen
data_V4Ag2O11
_symmetry_space_group_name_H-M   'P 1'
_cell_length_a   15.54730831
_cell_length_b   3.61100368
_cell_length_c   9.61418694
_cell_angle_alpha   90.00000000
_cell_angle_beta   127.07070091
_cell_angle_gamma   90.00000000
_symmetry_Int_Tables_number   1
_chemical_formula_structural   V4Ag2O11
_chemical_formula_sum   'V8 Ag4 O22'
_cell_volume   430.66538856
_cell_formula_units_Z   2
loop_
 _symmetry_equiv_pos_site_id
 _symmetry_equiv_pos_as_xyz
  1  'x, y, z'
loop_
 _atom_site_type_symbol
 _atom_site_label
 _atom_site_symmetry_multiplicity
 _atom_site_fract_x
 _atom_site_fract_y
 _atom_site_fract_z
 _atom_site_occupancy
  V  V0  1  0.36567858  0.00000000  0.07628494  1
  V  V1  1  0.63432142  0.00000000  0.92371506  1
  V  V2  1  0.14581576  0.00000000  0.65279170  1
  V  V3  1  0.85418424  0.00000000  0.34720830  1
  V  V4  1  0.86567858  0.50000000  0.07628494  1
  V  V5  1  0.13432142  0.50000000  0.92371506  1
  V  V6  1  0.64581576  0.50000000  0.65279170  1
  V  V7  1  0.35418424  0.50000000  0.34720830  1
  Ag  Ag8  1  0.61945472  0.50000000  0.23198265  1
  Ag  Ag9  1  0.38054528  0.50000000  0.76801735  1
  Ag  Ag10  1  0.11945472  0.00000000  0.23198265  1
  Ag  Ag11  1  0.88054528  0.00000000  0.76801735  1
  O  O12  1  0.49861451  0.00000000  0.18050614  1
  O  O13  1  0.50138549  0.00000000  0.81949386  1
  O  O14  1  0.31537484  0.00000000  0.85423056  1
  O  O15  1  0.68462516  0.00000000  0.14576944  1
  O  O16  1  0.17674187  0.00000000  0.51686197  1
  O  O17  1  0.82325813  0.00000000  0.48313803  1
  O  O18  1  0.50000000  0.50000000  0.50000000  1
  O  O19  1  0.15088991  0.50000000  0.71970525  1
  O  O20  1  0.66484523  0.50000000  0.91010320  1
  O  O21  1  0.33515477  0.50000000  0.08989680  1
  O  O22  1  0.84911009  0.50000000  0.28029475  1
  O  O23  1  0.99861451  0.50000000  0.18050614  1
  O  O24  1  0.00138549  0.50000000  0.81949386  1
  O  O25  1  0.81537484  0.50000000  0.85423056  1
  O  O26  1  0.18462516  0.50000000  0.14576944  1
  O  O27  1  0.67674187  0.50000000  0.51686197  1
  O  O28  1  0.32325813  0.50000000  0.48313803  1
  O  O29  1  0.00000000  0.00000000  0.50000000  1
  O  O30  1  0.65088991  0.00000000  0.71970525  1
  O  O31  1  0.16484523  0.00000000  0.91010320  1
  O  O32  1  0.83515477  0.00000000  0.08989680  1
  O  O33  1  0.34911009  0.00000000  0.28029475  1
