# generated using pymatgen
data_Ho3Al5O12
_symmetry_space_group_name_H-M   'P 1'
_cell_length_a   12.07926800
_cell_length_b   12.07926800
_cell_length_c   12.07926800
_cell_angle_alpha   90.00000000
_cell_angle_beta   90.00000000
_cell_angle_gamma   90.00000000
_symmetry_Int_Tables_number   1
_chemical_formula_structural   Ho3Al5O12
_chemical_formula_sum   'Ho24 Al40 O96'
_cell_volume   1762.47047704
_cell_formula_units_Z   8
loop_
 _symmetry_equiv_pos_site_id
 _symmetry_equiv_pos_as_xyz
  1  'x, y, z'
loop_
 _atom_site_type_symbol
 _atom_site_label
 _atom_site_symmetry_multiplicity
 _atom_site_fract_x
 _atom_site_fract_y
 _atom_site_fract_z
 _atom_site_occupancy
  Ho  Ho0  1  0.00000000  0.25000000  0.62500000  1
  Ho  Ho1  1  0.25000000  0.62500000  0.00000000  1
  Ho  Ho2  1  0.25000000  0.37500000  0.50000000  1
  Ho  Ho3  1  0.37500000  0.50000000  0.25000000  1
  Ho  Ho4  1  0.62500000  0.00000000  0.25000000  1
  Ho  Ho5  1  0.50000000  0.25000000  0.37500000  1
  Ho  Ho6  1  0.50000000  0.25000000  0.87500000  1
  Ho  Ho7  1  0.25000000  0.87500000  0.50000000  1
  Ho  Ho8  1  0.25000000  0.12500000  0.00000000  1
  Ho  Ho9  1  0.12500000  0.00000000  0.25000000  1
  Ho  Ho10  1  0.87500000  0.50000000  0.25000000  1
  Ho  Ho11  1  0.00000000  0.25000000  0.12500000  1
  Ho  Ho12  1  0.50000000  0.75000000  0.12500000  1
  Ho  Ho13  1  0.75000000  0.12500000  0.50000000  1
  Ho  Ho14  1  0.75000000  0.87500000  0.00000000  1
  Ho  Ho15  1  0.87500000  0.00000000  0.75000000  1
  Ho  Ho16  1  0.12500000  0.50000000  0.75000000  1
  Ho  Ho17  1  0.00000000  0.75000000  0.87500000  1
  Ho  Ho18  1  0.00000000  0.75000000  0.37500000  1
  Ho  Ho19  1  0.75000000  0.37500000  0.00000000  1
  Ho  Ho20  1  0.75000000  0.62500000  0.50000000  1
  Ho  Ho21  1  0.62500000  0.50000000  0.75000000  1
  Ho  Ho22  1  0.37500000  0.00000000  0.75000000  1
  Ho  Ho23  1  0.50000000  0.75000000  0.62500000  1
  Al  Al24  1  0.50000000  0.75000000  0.37500000  1
  Al  Al25  1  0.00000000  0.75000000  0.12500000  1
  Al  Al26  1  0.37500000  0.00000000  0.25000000  1
  Al  Al27  1  0.25000000  0.37500000  0.00000000  1
  Al  Al28  1  0.12500000  0.00000000  0.75000000  1
  Al  Al29  1  0.75000000  0.12500000  0.00000000  1
  Al  Al30  1  0.50000000  0.25000000  0.12500000  1
  Al  Al31  1  0.25000000  0.12500000  0.50000000  1
  Al  Al32  1  0.75000000  0.37500000  0.50000000  1
  Al  Al33  1  0.37500000  0.50000000  0.75000000  1
  Al  Al34  1  0.12500000  0.50000000  0.25000000  1
  Al  Al35  1  0.00000000  0.25000000  0.37500000  1
  Al  Al36  1  0.25000000  0.25000000  0.25000000  1
  Al  Al37  1  0.00000000  0.50000000  0.00000000  1
  Al  Al38  1  0.50000000  0.00000000  0.00000000  1
  Al  Al39  1  0.00000000  0.00000000  0.50000000  1
  Al  Al40  1  0.25000000  0.25000000  0.75000000  1
  Al  Al41  1  0.25000000  0.75000000  0.25000000  1
  Al  Al42  1  0.75000000  0.25000000  0.25000000  1
  Al  Al43  1  0.00000000  0.00000000  0.00000000  1
  Al  Al44  1  0.00000000  0.25000000  0.87500000  1
  Al  Al45  1  0.50000000  0.25000000  0.62500000  1
  Al  Al46  1  0.87500000  0.50000000  0.75000000  1
  Al  Al47  1  0.75000000  0.87500000  0.50000000  1
  Al  Al48  1  0.62500000  0.50000000  0.25000000  1
  Al  Al49  1  0.25000000  0.62500000  0.50000000  1
  Al  Al50  1  0.00000000  0.75000000  0.62500000  1
  Al  Al51  1  0.75000000  0.62500000  0.00000000  1
  Al  Al52  1  0.25000000  0.87500000  0.00000000  1
  Al  Al53  1  0.87500000  0.00000000  0.25000000  1
  Al  Al54  1  0.62500000  0.00000000  0.75000000  1
  Al  Al55  1  0.50000000  0.75000000  0.87500000  1
  Al  Al56  1  0.75000000  0.75000000  0.75000000  1
  Al  Al57  1  0.50000000  0.00000000  0.50000000  1
  Al  Al58  1  0.00000000  0.50000000  0.50000000  1
  Al  Al59  1  0.50000000  0.50000000  0.00000000  1
  Al  Al60  1  0.75000000  0.75000000  0.25000000  1
  Al  Al61  1  0.75000000  0.25000000  0.75000000  1
  Al  Al62  1  0.25000000  0.75000000  0.75000000  1
  Al  Al63  1  0.50000000  0.50000000  0.50000000  1
  O  O64  1  0.19902700  0.78006200  0.89924300  1
  O  O65  1  0.21993800  0.60075700  0.19902700  1
  O  O66  1  0.60075700  0.80097300  0.28006200  1
  O  O67  1  0.30097300  0.21993800  0.39924300  1
  O  O68  1  0.46993800  0.05097300  0.35075700  1
  O  O69  1  0.21993800  0.39924300  0.30097300  1
  O  O70  1  0.03006200  0.05097300  0.64924300  1
  O  O71  1  0.39924300  0.30097300  0.21993800  1
  O  O72  1  0.46993800  0.94902700  0.14924300  1
  O  O73  1  0.44902700  0.35075700  0.53006200  1
  O  O74  1  0.35075700  0.53006200  0.44902700  1
  O  O75  1  0.35075700  0.46993800  0.05097300  1
  O  O76  1  0.05097300  0.64924300  0.03006200  1
  O  O77  1  0.14924300  0.46993800  0.94902700  1
  O  O78  1  0.05097300  0.35075700  0.46993800  1
  O  O79  1  0.64924300  0.03006200  0.05097300  1
  O  O80  1  0.94902700  0.14924300  0.46993800  1
  O  O81  1  0.19902700  0.21993800  0.60075700  1
  O  O82  1  0.80097300  0.28006200  0.60075700  1
  O  O83  1  0.03006200  0.55097300  0.35075700  1
  O  O84  1  0.28006200  0.60075700  0.80097300  1
  O  O85  1  0.89924300  0.19902700  0.78006200  1
  O  O86  1  0.60075700  0.19902700  0.21993800  1
  O  O87  1  0.53006200  0.44902700  0.35075700  1
  O  O88  1  0.30097300  0.71993800  0.60075700  1
  O  O89  1  0.28006200  0.89924300  0.30097300  1
  O  O90  1  0.89924300  0.69902700  0.21993800  1
  O  O91  1  0.19902700  0.28006200  0.10075700  1
  O  O92  1  0.03006200  0.44902700  0.14924300  1
  O  O93  1  0.28006200  0.10075700  0.19902700  1
  O  O94  1  0.46993800  0.44902700  0.85075700  1
  O  O95  1  0.10075700  0.19902700  0.28006200  1
  O  O96  1  0.96993800  0.05097300  0.14924300  1
  O  O97  1  0.89924300  0.30097300  0.28006200  1
  O  O98  1  0.60075700  0.30097300  0.71993800  1
  O  O99  1  0.71993800  0.60075700  0.30097300  1
  O  O100  1  0.21993800  0.89924300  0.69902700  1
  O  O101  1  0.69902700  0.21993800  0.89924300  1
  O  O102  1  0.30097300  0.28006200  0.89924300  1
  O  O103  1  0.55097300  0.35075700  0.03006200  1
  O  O104  1  0.85075700  0.46993800  0.44902700  1
  O  O105  1  0.44902700  0.14924300  0.03006200  1
  O  O106  1  0.35075700  0.03006200  0.55097300  1
  O  O107  1  0.44902700  0.85075700  0.46993800  1
  O  O108  1  0.14924300  0.03006200  0.44902700  1
  O  O109  1  0.14924300  0.96993800  0.05097300  1
  O  O110  1  0.05097300  0.14924300  0.96993800  1
  O  O111  1  0.78006200  0.89924300  0.19902700  1
  O  O112  1  0.69902700  0.28006200  0.39924300  1
  O  O113  1  0.71993800  0.10075700  0.69902700  1
  O  O114  1  0.10075700  0.30097300  0.78006200  1
  O  O115  1  0.80097300  0.71993800  0.89924300  1
  O  O116  1  0.96993800  0.55097300  0.85075700  1
  O  O117  1  0.71993800  0.89924300  0.80097300  1
  O  O118  1  0.53006200  0.55097300  0.14924300  1
  O  O119  1  0.89924300  0.80097300  0.71993800  1
  O  O120  1  0.96993800  0.44902700  0.64924300  1
  O  O121  1  0.94902700  0.85075700  0.03006200  1
  O  O122  1  0.85075700  0.03006200  0.94902700  1
  O  O123  1  0.85075700  0.96993800  0.55097300  1
  O  O124  1  0.55097300  0.14924300  0.53006200  1
  O  O125  1  0.64924300  0.96993800  0.44902700  1
  O  O126  1  0.55097300  0.85075700  0.96993800  1
  O  O127  1  0.14924300  0.53006200  0.55097300  1
  O  O128  1  0.44902700  0.64924300  0.96993800  1
  O  O129  1  0.69902700  0.71993800  0.10075700  1
  O  O130  1  0.30097300  0.78006200  0.10075700  1
  O  O131  1  0.53006200  0.05097300  0.85075700  1
  O  O132  1  0.78006200  0.10075700  0.30097300  1
  O  O133  1  0.39924300  0.69902700  0.28006200  1
  O  O134  1  0.10075700  0.69902700  0.71993800  1
  O  O135  1  0.03006200  0.94902700  0.85075700  1
  O  O136  1  0.80097300  0.21993800  0.10075700  1
  O  O137  1  0.78006200  0.39924300  0.80097300  1
  O  O138  1  0.39924300  0.19902700  0.71993800  1
  O  O139  1  0.69902700  0.78006200  0.60075700  1
  O  O140  1  0.53006200  0.94902700  0.64924300  1
  O  O141  1  0.78006200  0.60075700  0.69902700  1
  O  O142  1  0.96993800  0.94902700  0.35075700  1
  O  O143  1  0.60075700  0.69902700  0.78006200  1
  O  O144  1  0.46993800  0.55097300  0.64924300  1
  O  O145  1  0.39924300  0.80097300  0.78006200  1
  O  O146  1  0.10075700  0.80097300  0.21993800  1
  O  O147  1  0.21993800  0.10075700  0.80097300  1
  O  O148  1  0.71993800  0.39924300  0.19902700  1
  O  O149  1  0.19902700  0.71993800  0.39924300  1
  O  O150  1  0.80097300  0.78006200  0.39924300  1
  O  O151  1  0.05097300  0.85075700  0.53006200  1
  O  O152  1  0.35075700  0.96993800  0.94902700  1
  O  O153  1  0.94902700  0.64924300  0.53006200  1
  O  O154  1  0.85075700  0.53006200  0.05097300  1
  O  O155  1  0.94902700  0.35075700  0.96993800  1
  O  O156  1  0.64924300  0.53006200  0.94902700  1
  O  O157  1  0.64924300  0.46993800  0.55097300  1
  O  O158  1  0.55097300  0.64924300  0.46993800  1
  O  O159  1  0.28006200  0.39924300  0.69902700  1
