# generated using pymatgen
data_LiBO2
_symmetry_space_group_name_H-M   'P 1'
_cell_length_a   4.23282600
_cell_length_b   4.23282600
_cell_length_c   6.59379200
_cell_angle_alpha   90.00000000
_cell_angle_beta   90.00000000
_cell_angle_gamma   90.00000000
_symmetry_Int_Tables_number   1
_chemical_formula_structural   LiBO2
_chemical_formula_sum   'Li4 B4 O8'
_cell_volume   118.13975765
_cell_formula_units_Z   4
loop_
 _symmetry_equiv_pos_site_id
 _symmetry_equiv_pos_as_xyz
  1  'x, y, z'
loop_
 _atom_site_type_symbol
 _atom_site_label
 _atom_site_symmetry_multiplicity
 _atom_site_fract_x
 _atom_site_fract_y
 _atom_site_fract_z
 _atom_site_occupancy
  Li  Li0  1  0.50000000  0.00000000  0.25000000  1
  Li  Li1  1  0.50000000  0.50000000  0.00000000  1
  Li  Li2  1  0.00000000  0.50000000  0.75000000  1
  Li  Li3  1  0.00000000  0.00000000  0.50000000  1
  B  B4  1  0.00000000  0.50000000  0.25000000  1
  B  B5  1  0.00000000  0.00000000  0.00000000  1
  B  B6  1  0.50000000  0.00000000  0.75000000  1
  B  B7  1  0.50000000  0.50000000  0.50000000  1
  O  O8  1  0.25000000  0.34407500  0.37500000  1
  O  O9  1  0.84407500  0.25000000  0.12500000  1
  O  O10  1  0.15592500  0.75000000  0.12500000  1
  O  O11  1  0.75000000  0.65592500  0.37500000  1
  O  O12  1  0.75000000  0.84407500  0.87500000  1
  O  O13  1  0.34407500  0.75000000  0.62500000  1
  O  O14  1  0.65592500  0.25000000  0.62500000  1
  O  O15  1  0.25000000  0.15592500  0.87500000  1
