# generated using pymatgen
data_K2ZnTe2
_symmetry_space_group_name_H-M   'P 1'
_cell_length_a   7.04846200
_cell_length_b   7.37180200
_cell_length_c   14.19600600
_cell_angle_alpha   90.00000000
_cell_angle_beta   90.00000000
_cell_angle_gamma   90.00000000
_symmetry_Int_Tables_number   1
_chemical_formula_structural   K2ZnTe2
_chemical_formula_sum   'K8 Zn4 Te8'
_cell_volume   737.62257331
_cell_formula_units_Z   4
loop_
 _symmetry_equiv_pos_site_id
 _symmetry_equiv_pos_as_xyz
  1  'x, y, z'
loop_
 _atom_site_type_symbol
 _atom_site_label
 _atom_site_symmetry_multiplicity
 _atom_site_fract_x
 _atom_site_fract_y
 _atom_site_fract_z
 _atom_site_occupancy
  K  K0  1  0.00000000  0.31691400  0.14055200  1
  K  K1  1  0.50000000  0.18308600  0.35944800  1
  K  K2  1  0.00000000  0.81691400  0.35944800  1
  K  K3  1  0.50000000  0.68308600  0.14055200  1
  K  K4  1  0.50000000  0.81691400  0.64055200  1
  K  K5  1  0.00000000  0.68308600  0.85944800  1
  K  K6  1  0.50000000  0.31691400  0.85944800  1
  K  K7  1  0.00000000  0.18308600  0.64055200  1
  Zn  Zn8  1  0.75000000  0.00000000  0.00000000  1
  Zn  Zn9  1  0.25000000  0.00000000  0.00000000  1
  Zn  Zn10  1  0.25000000  0.50000000  0.50000000  1
  Zn  Zn11  1  0.75000000  0.50000000  0.50000000  1
  Te  Te12  1  0.00000000  0.30670150  0.39323250  1
  Te  Te13  1  0.50000000  0.19329850  0.10676750  1
  Te  Te14  1  0.00000000  0.80670150  0.10676750  1
  Te  Te15  1  0.50000000  0.69329850  0.39323250  1
  Te  Te16  1  0.50000000  0.80670150  0.89323250  1
  Te  Te17  1  0.00000000  0.69329850  0.60676750  1
  Te  Te18  1  0.50000000  0.30670150  0.60676750  1
  Te  Te19  1  0.00000000  0.19329850  0.89323250  1
