# generated using pymatgen
data_LiAlSiO4
_symmetry_space_group_name_H-M   'P 1'
_cell_length_a   13.65215421
_cell_length_b   13.65215421
_cell_length_c   9.10148913
_cell_angle_alpha   90.00000000
_cell_angle_beta   90.00000000
_cell_angle_gamma   120.00000000
_symmetry_Int_Tables_number   1
_chemical_formula_structural   LiAlSiO4
_chemical_formula_sum   'Li18 Al18 Si18 O72'
_cell_volume   1469.08003591
_cell_formula_units_Z   18
loop_
 _symmetry_equiv_pos_site_id
 _symmetry_equiv_pos_as_xyz
  1  'x, y, z'
loop_
 _atom_site_type_symbol
 _atom_site_label
 _atom_site_symmetry_multiplicity
 _atom_site_fract_x
 _atom_site_fract_y
 _atom_site_fract_z
 _atom_site_occupancy
  Li  Li0  1  0.01605067  0.80991333  0.75076033  1
  Li  Li1  1  0.19008667  0.20613733  0.75076033  1
  Li  Li2  1  0.79386267  0.98394933  0.75076033  1
  Li  Li3  1  0.98008400  0.18980300  0.24764500  1
  Li  Li4  1  0.81019700  0.79028100  0.24764500  1
  Li  Li5  1  0.20971900  0.01991600  0.24764500  1
  Li  Li6  1  0.68271733  0.14324667  0.08409367  1
  Li  Li7  1  0.85675333  0.53947067  0.08409367  1
  Li  Li8  1  0.46052933  0.31728267  0.08409367  1
  Li  Li9  1  0.64675067  0.52313633  0.58097833  1
  Li  Li10  1  0.47686367  0.12361433  0.58097833  1
  Li  Li11  1  0.87638567  0.35324933  0.58097833  1
  Li  Li12  1  0.34938400  0.47658000  0.41742700  1
  Li  Li13  1  0.52342000  0.87280400  0.41742700  1
  Li  Li14  1  0.12719600  0.65061600  0.41742700  1
  Li  Li15  1  0.31341733  0.85646967  0.91431167  1
  Li  Li16  1  0.14353033  0.45694767  0.91431167  1
  Li  Li17  1  0.54305233  0.68658267  0.91431167  1
  Al  Al18  1  0.80235233  0.79253067  0.58238767  1
  Al  Al19  1  0.86305333  0.54792067  0.41580867  1
  Al  Al20  1  0.99017833  0.19764767  0.58238767  1
  Al  Al21  1  0.20746933  0.00982167  0.58238767  1
  Al  Al22  1  0.45207933  0.31513267  0.41580867  1
  Al  Al23  1  0.68486733  0.13694667  0.41580867  1
  Al  Al24  1  0.46901900  0.12586400  0.91572100  1
  Al  Al25  1  0.52972000  0.88125400  0.74914200  1
  Al  Al26  1  0.65684500  0.53098100  0.91572100  1
  Al  Al27  1  0.87413600  0.34315500  0.91572100  1
  Al  Al28  1  0.11874600  0.64846600  0.74914200  1
  Al  Al29  1  0.35153400  0.47028000  0.74914200  1
  Al  Al30  1  0.13568567  0.45919733  0.24905433  1
  Al  Al31  1  0.19638667  0.21458733  0.08247533  1
  Al  Al32  1  0.32351167  0.86431433  0.24905433  1
  Al  Al33  1  0.54080267  0.67648833  0.24905433  1
  Al  Al34  1  0.78541267  0.98179933  0.08247533  1
  Al  Al35  1  0.01820067  0.80361333  0.08247533  1
  Si  Si36  1  0.79236600  0.99059300  0.41677500  1
  Si  Si37  1  0.00940700  0.80177300  0.41677500  1
  Si  Si38  1  0.19822700  0.20763400  0.41677500  1
  Si  Si39  1  0.13703433  0.45380967  0.58305567  1
  Si  Si40  1  0.31677533  0.86296567  0.58305567  1
  Si  Si41  1  0.54619033  0.68322467  0.58305567  1
  Si  Si42  1  0.45903267  0.32392633  0.75010833  1
  Si  Si43  1  0.67607367  0.13510633  0.75010833  1
  Si  Si44  1  0.86489367  0.54096733  0.75010833  1
  Si  Si45  1  0.80370100  0.78714300  0.91638900  1
  Si  Si46  1  0.98344200  0.19629900  0.91638900  1
  Si  Si47  1  0.21285700  0.01655800  0.91638900  1
  Si  Si48  1  0.12569933  0.65725967  0.08344167  1
  Si  Si49  1  0.34274033  0.46843967  0.08344167  1
  Si  Si50  1  0.53156033  0.87430067  0.08344167  1
  Si  Si51  1  0.47036767  0.12047633  0.24972233  1
  Si  Si52  1  0.65010867  0.52963233  0.24972233  1
  Si  Si53  1  0.87952367  0.34989133  0.24972233  1
  O  O54  1  0.21475600  0.45167300  0.71990400  1
  O  O55  1  0.32426600  0.98713100  0.58361100  1
  O  O56  1  0.66286500  0.67573400  0.58361100  1
  O  O57  1  0.01286900  0.33713500  0.58361100  1
  O  O58  1  0.67903700  0.00400000  0.41571400  1
  O  O59  1  0.32496300  0.32096300  0.41571400  1
  O  O60  1  0.99600000  0.67503700  0.41571400  1
  O  O61  1  0.54832700  0.76308300  0.71990400  1
  O  O62  1  0.90304233  0.11831367  0.43472467  1
  O  O63  1  0.23691700  0.78524400  0.71990400  1
  O  O64  1  0.45064000  0.22904400  0.27005900  1
  O  O65  1  0.77840400  0.54936000  0.27005900  1
  O  O66  1  0.08538567  0.87601033  0.55677833  1
  O  O67  1  0.12398967  0.20937533  0.55677833  1
  O  O68  1  0.79062467  0.91461433  0.55677833  1
  O  O69  1  0.06514467  0.86613933  0.25945433  1
  O  O70  1  0.88168633  0.78472867  0.43472467  1
  O  O71  1  0.21527133  0.09695767  0.43472467  1
  O  O72  1  0.19919333  0.06513467  0.75594167  1
  O  O73  1  0.13386067  0.19900533  0.25945433  1
  O  O74  1  0.80099467  0.93485533  0.25945433  1
  O  O75  1  0.93486533  0.13405867  0.75594167  1
  O  O76  1  0.86594133  0.80080667  0.75594167  1
  O  O77  1  0.77095600  0.22159600  0.27005900  1
  O  O78  1  0.88142267  0.78500633  0.05323733  1
  O  O79  1  0.99093267  0.32046433  0.91694433  1
  O  O80  1  0.32953167  0.00906733  0.91694433  1
  O  O81  1  0.67953567  0.67046833  0.91694433  1
  O  O82  1  0.34570367  0.33733333  0.74904733  1
  O  O83  1  0.99162967  0.65429633  0.74904733  1
  O  O84  1  0.66266667  0.00837033  0.74904733  1
  O  O85  1  0.21499367  0.09641633  0.05323733  1
  O  O86  1  0.56970900  0.45164700  0.76805800  1
  O  O87  1  0.90358367  0.11857733  0.05323733  1
  O  O88  1  0.11730667  0.56237733  0.60339233  1
  O  O89  1  0.44507067  0.88269333  0.60339233  1
  O  O90  1  0.75205233  0.20934367  0.89011167  1
  O  O91  1  0.79065633  0.54270867  0.89011167  1
  O  O92  1  0.45729133  0.24794767  0.89011167  1
  O  O93  1  0.73181133  0.19947267  0.59278767  1
  O  O94  1  0.54835300  0.11806200  0.76805800  1
  O  O95  1  0.88193800  0.43029100  0.76805800  1
  O  O96  1  0.86586000  0.39846800  0.08927500  1
  O  O97  1  0.80052733  0.53233867  0.59278767  1
  O  O98  1  0.46766133  0.26818867  0.59278767  1
  O  O99  1  0.60153200  0.46739200  0.08927500  1
  O  O100  1  0.53260800  0.13414000  0.08927500  1
  O  O101  1  0.43762267  0.55492933  0.60339233  1
  O  O102  1  0.54808933  0.11833967  0.38657067  1
  O  O103  1  0.65759933  0.65379767  0.25027767  1
  O  O104  1  0.99619833  0.34240067  0.25027767  1
  O  O105  1  0.34620233  0.00380167  0.25027767  1
  O  O106  1  0.01237033  0.67066667  0.08238067  1
  O  O107  1  0.65829633  0.98762967  0.08238067  1
  O  O108  1  0.32933333  0.34170367  0.08238067  1
  O  O109  1  0.88166033  0.42974967  0.38657067  1
  O  O110  1  0.23637567  0.78498033  0.10139133  1
  O  O111  1  0.57025033  0.45191067  0.38657067  1
  O  O112  1  0.78397333  0.89571067  0.93672567  1
  O  O113  1  0.11173733  0.21602667  0.93672567  1
  O  O114  1  0.41871900  0.54267700  0.22344500  1
  O  O115  1  0.45732300  0.87604200  0.22344500  1
  O  O116  1  0.12395800  0.58128100  0.22344500  1
  O  O117  1  0.39847800  0.53280600  0.92612100  1
  O  O118  1  0.21501967  0.45139533  0.10139133  1
  O  O119  1  0.54860467  0.76362433  0.10139133  1
  O  O120  1  0.53252667  0.73180133  0.42260833  1
  O  O121  1  0.46719400  0.86567200  0.92612100  1
  O  O122  1  0.13432800  0.60152200  0.92612100  1
  O  O123  1  0.26819867  0.80072533  0.42260833  1
  O  O124  1  0.19927467  0.46747333  0.42260833  1
  O  O125  1  0.10428933  0.88826267  0.93672567  1
