# generated using pymatgen
data_Ti2CrO5
_symmetry_space_group_name_H-M   'P 1'
_cell_length_a   10.30967975
_cell_length_b   5.20013300
_cell_length_c   7.06797688
_cell_angle_alpha   90.00000000
_cell_angle_beta   109.20859023
_cell_angle_gamma   90.00000000
_symmetry_Int_Tables_number   1
_chemical_formula_structural   Ti2CrO5
_chemical_formula_sum   'Ti8 Cr4 O20'
_cell_volume   357.83035427
_cell_formula_units_Z   4
loop_
 _symmetry_equiv_pos_site_id
 _symmetry_equiv_pos_as_xyz
  1  'x, y, z'
loop_
 _atom_site_type_symbol
 _atom_site_label
 _atom_site_symmetry_multiplicity
 _atom_site_fract_x
 _atom_site_fract_y
 _atom_site_fract_z
 _atom_site_occupancy
  Ti  Ti0  1  0.36573375  0.98303175  0.27956400  1
  Ti  Ti1  1  0.13426625  0.48303175  0.22043600  1
  Ti  Ti2  1  0.36573375  0.01696825  0.77956400  1
  Ti  Ti3  1  0.13426625  0.51696825  0.72043600  1
  Ti  Ti4  1  0.86573375  0.48303175  0.27956400  1
  Ti  Ti5  1  0.63426625  0.98303175  0.22043600  1
  Ti  Ti6  1  0.86573375  0.51696825  0.77956400  1
  Ti  Ti7  1  0.63426625  0.01696825  0.72043600  1
  Cr  Cr8  1  0.50000000  0.50000000  0.50000000  1
  Cr  Cr9  1  0.00000000  0.00000000  0.00000000  1
  Cr  Cr10  1  0.00000000  0.00000000  0.50000000  1
  Cr  Cr11  1  0.50000000  0.50000000  0.00000000  1
  O  O12  1  0.50000000  0.29211275  0.75000000  1
  O  O13  1  0.00000000  0.20788725  0.25000000  1
  O  O14  1  0.08335575  0.35438025  0.94298900  1
  O  O15  1  0.41664425  0.85438025  0.55701100  1
  O  O16  1  0.41664425  0.14561975  0.05701100  1
  O  O17  1  0.08335575  0.64561975  0.44298900  1
  O  O18  1  0.29580325  0.68744225  0.82951400  1
  O  O19  1  0.20419675  0.18744225  0.67048600  1
  O  O20  1  0.20419675  0.81255775  0.17048600  1
  O  O21  1  0.29580325  0.31255775  0.32951400  1
  O  O22  1  0.00000000  0.79211275  0.75000000  1
  O  O23  1  0.50000000  0.70788725  0.25000000  1
  O  O24  1  0.58335575  0.85438025  0.94298900  1
  O  O25  1  0.91664425  0.35438025  0.55701100  1
  O  O26  1  0.91664425  0.64561975  0.05701100  1
  O  O27  1  0.58335575  0.14561975  0.44298900  1
  O  O28  1  0.79580325  0.18744225  0.82951400  1
  O  O29  1  0.70419675  0.68744225  0.67048600  1
  O  O30  1  0.70419675  0.31255775  0.17048600  1
  O  O31  1  0.79580325  0.81255775  0.32951400  1
