# generated using pymatgen
data_Pr(BO2)3
_symmetry_space_group_name_H-M   'P 1'
_cell_length_a   9.95883600
_cell_length_b   8.20222600
_cell_length_c   6.48565196
_cell_angle_alpha   90.00000000
_cell_angle_beta   127.02820382
_cell_angle_gamma   90.00000000
_symmetry_Int_Tables_number   1
_chemical_formula_structural   Pr(BO2)3
_chemical_formula_sum   'Pr4 B12 O24'
_cell_volume   422.94255968
_cell_formula_units_Z   4
loop_
 _symmetry_equiv_pos_site_id
 _symmetry_equiv_pos_as_xyz
  1  'x, y, z'
loop_
 _atom_site_type_symbol
 _atom_site_label
 _atom_site_symmetry_multiplicity
 _atom_site_fract_x
 _atom_site_fract_y
 _atom_site_fract_z
 _atom_site_occupancy
  Pr  Pr0  1  0.00000000  0.29903800  0.75000000  1
  Pr  Pr1  1  0.00000000  0.70096200  0.25000000  1
  Pr  Pr2  1  0.50000000  0.79903800  0.75000000  1
  Pr  Pr3  1  0.50000000  0.20096200  0.25000000  1
  B  B4  1  0.00000000  0.27745100  0.25000000  1
  B  B5  1  0.27323000  0.56797800  0.91619300  1
  B  B6  1  0.72677000  0.56797800  0.58380700  1
  B  B7  1  0.00000000  0.72254900  0.75000000  1
  B  B8  1  0.27323000  0.43202200  0.41619300  1
  B  B9  1  0.72677000  0.43202200  0.08380700  1
  B  B10  1  0.50000000  0.77745100  0.25000000  1
  B  B11  1  0.77323000  0.06797800  0.91619300  1
  B  B12  1  0.22677000  0.06797800  0.58380700  1
  B  B13  1  0.50000000  0.22254900  0.75000000  1
  B  B14  1  0.77323000  0.93202200  0.41619300  1
  B  B15  1  0.22677000  0.93202200  0.08380700  1
  O  O16  1  0.29706000  0.41338600  0.99707800  1
  O  O17  1  0.70294000  0.41338600  0.50292200  1
  O  O18  1  0.10491250  0.61424150  0.71273300  1
  O  O19  1  0.89508750  0.61424150  0.78726700  1
  O  O20  1  0.89508750  0.38575850  0.28726700  1
  O  O21  1  0.10491250  0.38575850  0.21273300  1
  O  O22  1  0.89775400  0.81376000  0.50838900  1
  O  O23  1  0.10224600  0.81376000  0.99161100  1
  O  O24  1  0.10224600  0.18624000  0.49161100  1
  O  O25  1  0.89775400  0.18624000  0.00838900  1
  O  O26  1  0.29706000  0.58661400  0.49707800  1
  O  O27  1  0.70294000  0.58661400  0.00292200  1
  O  O28  1  0.79706000  0.91338600  0.99707800  1
  O  O29  1  0.20294000  0.91338600  0.50292200  1
  O  O30  1  0.60491250  0.11424150  0.71273300  1
  O  O31  1  0.39508750  0.11424150  0.78726700  1
  O  O32  1  0.39508750  0.88575850  0.28726700  1
  O  O33  1  0.60491250  0.88575850  0.21273300  1
  O  O34  1  0.39775400  0.31376000  0.50838900  1
  O  O35  1  0.60224600  0.31376000  0.99161100  1
  O  O36  1  0.60224600  0.68624000  0.49161100  1
  O  O37  1  0.39775400  0.68624000  0.00838900  1
  O  O38  1  0.79706000  0.08661400  0.49707800  1
  O  O39  1  0.20294000  0.08661400  0.00292200  1
