# generated using pymatgen
data_ZnSnO3
_symmetry_space_group_name_H-M   'P 1'
_cell_length_a   5.35089008
_cell_length_b   5.35089008
_cell_length_c   14.22444628
_cell_angle_alpha   90.00000000
_cell_angle_beta   90.00000000
_cell_angle_gamma   120.00000000
_symmetry_Int_Tables_number   1
_chemical_formula_structural   ZnSnO3
_chemical_formula_sum   'Zn6 Sn6 O18'
_cell_volume   352.71023301
_cell_formula_units_Z   6
loop_
 _symmetry_equiv_pos_site_id
 _symmetry_equiv_pos_as_xyz
  1  'x, y, z'
loop_
 _atom_site_type_symbol
 _atom_site_label
 _atom_site_symmetry_multiplicity
 _atom_site_fract_x
 _atom_site_fract_y
 _atom_site_fract_z
 _atom_site_occupancy
  Zn  Zn0  1  0.00000000  0.00000000  0.28407200  1
  Zn  Zn1  1  0.66666667  0.33333333  0.11740533  1
  Zn  Zn2  1  0.66666667  0.33333333  0.61740533  1
  Zn  Zn3  1  0.33333333  0.66666667  0.45073867  1
  Zn  Zn4  1  0.33333333  0.66666667  0.95073867  1
  Zn  Zn5  1  0.00000000  0.00000000  0.78407200  1
  Sn  Sn6  1  0.00000000  0.00000000  0.00184400  1
  Sn  Sn7  1  0.33333333  0.66666667  0.16851067  1
  Sn  Sn8  1  0.66666667  0.33333333  0.33517733  1
  Sn  Sn9  1  0.00000000  0.00000000  0.50184400  1
  Sn  Sn10  1  0.33333333  0.66666667  0.66851067  1
  Sn  Sn11  1  0.66666667  0.33333333  0.83517733  1
  O  O12  1  0.65520800  0.63045500  0.23756100  1
  O  O13  1  0.36954500  0.02475300  0.23756100  1
  O  O14  1  0.97524700  0.34479200  0.23756100  1
  O  O15  1  0.03621167  0.67812533  0.07089433  1
  O  O16  1  0.64191367  0.96378833  0.07089433  1
  O  O17  1  0.32187467  0.35808633  0.07089433  1
  O  O18  1  0.32187467  0.96378833  0.57089433  1
  O  O19  1  0.03621167  0.35808633  0.57089433  1
  O  O20  1  0.64191367  0.67812533  0.57089433  1
  O  O21  1  0.70287833  0.01145867  0.40422767  1
  O  O22  1  0.30858033  0.29712167  0.40422767  1
  O  O23  1  0.98854133  0.69141967  0.40422767  1
  O  O24  1  0.98854133  0.29712167  0.90422767  1
  O  O25  1  0.70287833  0.69141967  0.90422767  1
  O  O26  1  0.30858033  0.01145867  0.90422767  1
  O  O27  1  0.36954500  0.34479200  0.73756100  1
  O  O28  1  0.97524700  0.63045500  0.73756100  1
  O  O29  1  0.65520800  0.02475300  0.73756100  1
