# generated using pymatgen
data_CsLuCdTe3
_symmetry_space_group_name_H-M   'P 1'
_cell_length_a   4.49683800
_cell_length_b   17.37508200
_cell_length_c   11.78557200
_cell_angle_alpha   90.00000000
_cell_angle_beta   90.00000000
_cell_angle_gamma   90.00000000
_symmetry_Int_Tables_number   1
_chemical_formula_structural   CsLuCdTe3
_chemical_formula_sum   'Cs4 Lu4 Cd4 Te12'
_cell_volume   920.84126019
_cell_formula_units_Z   4
loop_
 _symmetry_equiv_pos_site_id
 _symmetry_equiv_pos_as_xyz
  1  'x, y, z'
loop_
 _atom_site_type_symbol
 _atom_site_label
 _atom_site_symmetry_multiplicity
 _atom_site_fract_x
 _atom_site_fract_y
 _atom_site_fract_z
 _atom_site_occupancy
  Cs  Cs0  1  0.50000000  0.25082000  0.75000000  1
  Cs  Cs1  1  0.00000000  0.24918000  0.25000000  1
  Cs  Cs2  1  0.00000000  0.75082000  0.75000000  1
  Cs  Cs3  1  0.50000000  0.74918000  0.25000000  1
  Lu  Lu4  1  0.00000000  0.00000000  0.00000000  1
  Lu  Lu5  1  0.00000000  0.00000000  0.50000000  1
  Lu  Lu6  1  0.50000000  0.50000000  0.00000000  1
  Lu  Lu7  1  0.50000000  0.50000000  0.50000000  1
  Cd  Cd8  1  0.00000000  0.46095300  0.75000000  1
  Cd  Cd9  1  0.50000000  0.03904700  0.25000000  1
  Cd  Cd10  1  0.50000000  0.96095300  0.75000000  1
  Cd  Cd11  1  0.00000000  0.53904700  0.25000000  1
  Te  Te12  1  0.00000000  0.38163700  0.54233800  1
  Te  Te13  1  0.50000000  0.11836300  0.45766200  1
  Te  Te14  1  0.50000000  0.43616700  0.25000000  1
  Te  Te15  1  0.00000000  0.06383300  0.75000000  1
  Te  Te16  1  0.00000000  0.38163700  0.95766200  1
  Te  Te17  1  0.50000000  0.11836300  0.04233800  1
  Te  Te18  1  0.50000000  0.88163700  0.54233800  1
  Te  Te19  1  0.00000000  0.61836300  0.45766200  1
  Te  Te20  1  0.00000000  0.93616700  0.25000000  1
  Te  Te21  1  0.50000000  0.56383300  0.75000000  1
  Te  Te22  1  0.50000000  0.88163700  0.95766200  1
  Te  Te23  1  0.00000000  0.61836300  0.04233800  1
