# generated using pymatgen
data_Li2CaHfF8
_symmetry_space_group_name_H-M   'P 1'
_cell_length_a   5.17662200
_cell_length_b   5.17662200
_cell_length_c   10.61058400
_cell_angle_alpha   90.00000000
_cell_angle_beta   90.00000000
_cell_angle_gamma   90.00000000
_symmetry_Int_Tables_number   1
_chemical_formula_structural   Li2CaHfF8
_chemical_formula_sum   'Li4 Ca2 Hf2 F16'
_cell_volume   284.33622635
_cell_formula_units_Z   2
loop_
 _symmetry_equiv_pos_site_id
 _symmetry_equiv_pos_as_xyz
  1  'x, y, z'
loop_
 _atom_site_type_symbol
 _atom_site_label
 _atom_site_symmetry_multiplicity
 _atom_site_fract_x
 _atom_site_fract_y
 _atom_site_fract_z
 _atom_site_occupancy
  Li  Li0  1  0.00000000  0.50000000  0.25000000  1
  Li  Li1  1  0.00000000  0.00000000  0.00000000  1
  Li  Li2  1  0.50000000  0.00000000  0.75000000  1
  Li  Li3  1  0.50000000  0.50000000  0.50000000  1
  Ca  Ca4  1  0.50000000  0.50000000  0.00000000  1
  Ca  Ca5  1  0.00000000  0.00000000  0.50000000  1
  Hf  Hf6  1  0.50000000  0.00000000  0.25000000  1
  Hf  Hf7  1  0.00000000  0.50000000  0.75000000  1
  F  F8  1  0.28707900  0.31077600  0.18017200  1
  F  F9  1  0.70929350  0.14774850  0.08939650  1
  F  F10  1  0.81077600  0.21292100  0.31982800  1
  F  F11  1  0.18922400  0.78707900  0.31982800  1
  F  F12  1  0.71292100  0.68922400  0.18017200  1
  F  F13  1  0.64774850  0.79070650  0.41060350  1
  F  F14  1  0.29070650  0.85225150  0.08939650  1
  F  F15  1  0.35225150  0.20929350  0.41060350  1
  F  F16  1  0.78707900  0.81077600  0.68017200  1
  F  F17  1  0.20929350  0.64774850  0.58939650  1
  F  F18  1  0.31077600  0.71292100  0.81982800  1
  F  F19  1  0.68922400  0.28707900  0.81982800  1
  F  F20  1  0.21292100  0.18922400  0.68017200  1
  F  F21  1  0.14774850  0.29070650  0.91060350  1
  F  F22  1  0.79070650  0.35225150  0.58939650  1
  F  F23  1  0.85225150  0.70929350  0.91060350  1
