# generated using pymatgen
data_K3AuSe2
_symmetry_space_group_name_H-M   'P 1'
_cell_length_a   9.05816381
_cell_length_b   9.05816381
_cell_length_c   18.37438242
_cell_angle_alpha   90.00000000
_cell_angle_beta   90.00000000
_cell_angle_gamma   120.00000000
_symmetry_Int_Tables_number   1
_chemical_formula_structural   K3AuSe2
_chemical_formula_sum   'K18 Au6 Se12'
_cell_volume   1305.64083160
_cell_formula_units_Z   6
loop_
 _symmetry_equiv_pos_site_id
 _symmetry_equiv_pos_as_xyz
  1  'x, y, z'
loop_
 _atom_site_type_symbol
 _atom_site_label
 _atom_site_symmetry_multiplicity
 _atom_site_fract_x
 _atom_site_fract_y
 _atom_site_fract_z
 _atom_site_occupancy
  K  K0  1  0.29095500  0.00000000  0.25000000  1
  K  K1  1  0.70904500  0.70904500  0.25000000  1
  K  K2  1  0.00000000  0.29095500  0.25000000  1
  K  K3  1  0.37571167  0.33333333  0.08333333  1
  K  K4  1  0.95762167  0.62428833  0.08333333  1
  K  K5  1  0.66666667  0.04237833  0.08333333  1
  K  K6  1  0.95762167  0.33333333  0.58333333  1
  K  K7  1  0.37571167  0.04237833  0.58333333  1
  K  K8  1  0.66666667  0.62428833  0.58333333  1
  K  K9  1  0.04237833  0.66666667  0.41666667  1
  K  K10  1  0.62428833  0.95762167  0.41666667  1
  K  K11  1  0.33333333  0.37571167  0.41666667  1
  K  K12  1  0.62428833  0.66666667  0.91666667  1
  K  K13  1  0.04237833  0.37571167  0.91666667  1
  K  K14  1  0.33333333  0.95762167  0.91666667  1
  K  K15  1  0.70904500  0.00000000  0.75000000  1
  K  K16  1  0.29095500  0.29095500  0.75000000  1
  K  K17  1  0.00000000  0.70904500  0.75000000  1
  Au  Au18  1  0.33333333  0.66666667  0.16666667  1
  Au  Au19  1  0.00000000  0.00000000  0.00000000  1
  Au  Au20  1  1.00000000  0.00000000  0.50000000  1
  Au  Au21  1  0.66666667  0.33333333  0.33333333  1
  Au  Au22  1  0.66666667  0.33333333  0.83333333  1
  Au  Au23  1  0.33333333  0.66666667  0.66666667  1
  Se  Se24  1  0.33333333  0.66666667  0.30061167  1
  Se  Se25  1  0.33333333  0.66666667  0.53272167  1
  Se  Se26  1  0.33333333  0.66666667  0.80061167  1
  Se  Se27  1  0.33333333  0.66666667  0.03272167  1
  Se  Se28  1  0.00000000  0.00000000  0.63394500  1
  Se  Se29  1  1.00000000  0.00000000  0.86605500  1
  Se  Se30  1  0.00000000  0.00000000  0.13394500  1
  Se  Se31  1  0.00000000  0.00000000  0.36605500  1
  Se  Se32  1  0.66666667  0.33333333  0.96727833  1
  Se  Se33  1  0.66666667  0.33333333  0.19938833  1
  Se  Se34  1  0.66666667  0.33333333  0.46727833  1
  Se  Se35  1  0.66666667  0.33333333  0.69938833  1
