# generated using pymatgen
data_CsTbCdSe3
_symmetry_space_group_name_H-M   'P 1'
_cell_length_a   4.32036600
_cell_length_b   16.38665600
_cell_length_c   11.23763900
_cell_angle_alpha   90.00000000
_cell_angle_beta   90.00000000
_cell_angle_gamma   90.00000000
_symmetry_Int_Tables_number   1
_chemical_formula_structural   CsTbCdSe3
_chemical_formula_sum   'Cs4 Tb4 Cd4 Se12'
_cell_volume   795.58383996
_cell_formula_units_Z   4
loop_
 _symmetry_equiv_pos_site_id
 _symmetry_equiv_pos_as_xyz
  1  'x, y, z'
loop_
 _atom_site_type_symbol
 _atom_site_label
 _atom_site_symmetry_multiplicity
 _atom_site_fract_x
 _atom_site_fract_y
 _atom_site_fract_z
 _atom_site_occupancy
  Cs  Cs0  1  0.00000000  0.25557800  0.75000000  1
  Cs  Cs1  1  0.50000000  0.24442200  0.25000000  1
  Cs  Cs2  1  0.50000000  0.75557800  0.75000000  1
  Cs  Cs3  1  0.00000000  0.74442200  0.25000000  1
  Tb  Tb4  1  0.00000000  0.00000000  0.00000000  1
  Tb  Tb5  1  0.00000000  0.00000000  0.50000000  1
  Tb  Tb6  1  0.50000000  0.50000000  0.00000000  1
  Tb  Tb7  1  0.50000000  0.50000000  0.50000000  1
  Cd  Cd8  1  0.00000000  0.46104500  0.25000000  1
  Cd  Cd9  1  0.50000000  0.03895500  0.75000000  1
  Cd  Cd10  1  0.50000000  0.96104500  0.25000000  1
  Cd  Cd11  1  0.00000000  0.53895500  0.75000000  1
  Se  Se12  1  0.50000000  0.43935900  0.75000000  1
  Se  Se13  1  0.00000000  0.06064100  0.25000000  1
  Se  Se14  1  0.00000000  0.38305400  0.04596400  1
  Se  Se15  1  0.00000000  0.38305400  0.45403600  1
  Se  Se16  1  0.50000000  0.11694600  0.54596400  1
  Se  Se17  1  0.50000000  0.11694600  0.95403600  1
  Se  Se18  1  0.00000000  0.93935900  0.75000000  1
  Se  Se19  1  0.50000000  0.56064100  0.25000000  1
  Se  Se20  1  0.50000000  0.88305400  0.04596400  1
  Se  Se21  1  0.50000000  0.88305400  0.45403600  1
  Se  Se22  1  0.00000000  0.61694600  0.54596400  1
  Se  Se23  1  0.00000000  0.61694600  0.95403600  1
