# generated using pymatgen
data_SiO2
_symmetry_space_group_name_H-M   'P 1'
_cell_length_a   13.70564376
_cell_length_b   13.70564376
_cell_length_c   14.95638872
_cell_angle_alpha   90.00000000
_cell_angle_beta   90.00000000
_cell_angle_gamma   120.00000000
_symmetry_Int_Tables_number   1
_chemical_formula_structural   SiO2
_chemical_formula_sum   'Si36 O72'
_cell_volume   2433.07924577
_cell_formula_units_Z   36
loop_
 _symmetry_equiv_pos_site_id
 _symmetry_equiv_pos_as_xyz
  1  'x, y, z'
loop_
 _atom_site_type_symbol
 _atom_site_label
 _atom_site_symmetry_multiplicity
 _atom_site_fract_x
 _atom_site_fract_y
 _atom_site_fract_z
 _atom_site_occupancy
  Si  Si0  1  0.89527467  0.33317533  0.43760633  1
  Si  Si1  1  0.66682467  0.56209933  0.43760633  1
  Si  Si2  1  0.43790067  0.10472533  0.43760633  1
  Si  Si3  1  0.56209933  0.66682467  0.56239367  1
  Si  Si4  1  0.33317533  0.89527467  0.56239367  1
  Si  Si5  1  0.10472533  0.43790067  0.56239367  1
  Si  Si6  1  0.10472533  0.66682467  0.56239367  1
  Si  Si7  1  0.33317533  0.43790067  0.56239367  1
  Si  Si8  1  0.56209933  0.89527467  0.56239367  1
  Si  Si9  1  0.43790067  0.33317533  0.43760633  1
  Si  Si10  1  0.66682467  0.10472533  0.43760633  1
  Si  Si11  1  0.89527467  0.56209933  0.43760633  1
  Si  Si12  1  0.56194133  0.66650867  0.77093967  1
  Si  Si13  1  0.33349133  0.89543267  0.77093967  1
  Si  Si14  1  0.10456733  0.43805867  0.77093967  1
  Si  Si15  1  0.22876600  0.00015800  0.89572700  1
  Si  Si16  1  0.99984200  0.22860800  0.89572700  1
  Si  Si17  1  0.77139200  0.77123400  0.89572700  1
  Si  Si18  1  0.77139200  0.00015800  0.89572700  1
  Si  Si19  1  0.99984200  0.77123400  0.89572700  1
  Si  Si20  1  0.22876600  0.22860800  0.89572700  1
  Si  Si21  1  0.10456733  0.66650867  0.77093967  1
  Si  Si22  1  0.33349133  0.43805867  0.77093967  1
  Si  Si23  1  0.56194133  0.89543267  0.77093967  1
  Si  Si24  1  0.22860800  0.99984200  0.10427300  1
  Si  Si25  1  0.00015800  0.22876600  0.10427300  1
  Si  Si26  1  0.77123400  0.77139200  0.10427300  1
  Si  Si27  1  0.89543267  0.33349133  0.22906033  1
  Si  Si28  1  0.66650867  0.56194133  0.22906033  1
  Si  Si29  1  0.43805867  0.10456733  0.22906033  1
  Si  Si30  1  0.43805867  0.33349133  0.22906033  1
  Si  Si31  1  0.66650867  0.10456733  0.22906033  1
  Si  Si32  1  0.89543267  0.56194133  0.22906033  1
  Si  Si33  1  0.77123400  0.99984200  0.10427300  1
  Si  Si34  1  0.00015800  0.77139200  0.10427300  1
  Si  Si35  1  0.22860800  0.22876600  0.10427300  1
  O  O36  1  0.92972567  0.33333333  0.33333333  1
  O  O37  1  0.66666667  0.59639233  0.33333333  1
  O  O38  1  0.40360767  0.07027433  0.33333333  1
  O  O39  1  0.40360767  0.33333333  0.33333333  1
  O  O40  1  0.66666667  0.07027433  0.33333333  1
  O  O41  1  0.92972567  0.59639233  0.33333333  1
  O  O42  1  0.80218467  0.90109233  0.87871633  1
  O  O43  1  0.09890767  0.90109233  0.87871633  1
  O  O44  1  0.09890767  0.19781533  0.87871633  1
  O  O45  1  0.90109233  0.09890767  0.12128367  1
  O  O46  1  0.90109233  0.80218467  0.12128367  1
  O  O47  1  0.19781533  0.09890767  0.12128367  1
  O  O48  1  0.78685033  0.57370067  0.46401067  1
  O  O49  1  0.78685033  0.21314967  0.46401067  1
  O  O50  1  0.42629933  0.21314967  0.46401067  1
  O  O51  1  0.57370067  0.78685033  0.53598933  1
  O  O52  1  0.21314967  0.42629933  0.53598933  1
  O  O53  1  0.21314967  0.78685033  0.53598933  1
  O  O54  1  0.00000000  0.64784300  0.50000000  1
  O  O55  1  0.64784300  0.00000000  0.50000000  1
  O  O56  1  0.35215700  0.35215700  0.50000000  1
  O  O57  1  0.00000000  0.35215700  0.50000000  1
  O  O58  1  0.35215700  0.00000000  0.50000000  1
  O  O59  1  0.64784300  0.64784300  0.50000000  1
  O  O60  1  0.59639233  0.66666667  0.66666667  1
  O  O61  1  0.33333333  0.92972567  0.66666667  1
  O  O62  1  0.07027433  0.40360767  0.66666667  1
  O  O63  1  0.07027433  0.66666667  0.66666667  1
  O  O64  1  0.33333333  0.40360767  0.66666667  1
  O  O65  1  0.59639233  0.92972567  0.66666667  1
  O  O66  1  0.46885133  0.23442567  0.21204967  1
  O  O67  1  0.76557433  0.23442567  0.21204967  1
  O  O68  1  0.76557433  0.53114867  0.21204967  1
  O  O69  1  0.56775900  0.43224100  0.45461700  1
  O  O70  1  0.56775900  0.13551800  0.45461700  1
  O  O71  1  0.86448200  0.43224100  0.45461700  1
  O  O72  1  0.45351700  0.90703400  0.79734400  1
  O  O73  1  0.45351700  0.54648300  0.79734400  1
  O  O74  1  0.09296600  0.54648300  0.79734400  1
  O  O75  1  0.24036733  0.12018367  0.86932267  1
  O  O76  1  0.87981633  0.75963267  0.86932267  1
  O  O77  1  0.87981633  0.12018367  0.86932267  1
  O  O78  1  0.66666667  0.98117633  0.83333333  1
  O  O79  1  0.31450967  0.33333333  0.83333333  1
  O  O80  1  0.01882367  0.68549033  0.83333333  1
  O  O81  1  0.66666667  0.68549033  0.83333333  1
  O  O82  1  0.01882367  0.33333333  0.83333333  1
  O  O83  1  0.31450967  0.98117633  0.83333333  1
  O  O84  1  0.26305900  0.00000000  0.00000000  1
  O  O85  1  0.00000000  0.26305900  0.00000000  1
  O  O86  1  0.73694100  0.73694100  0.00000000  1
  O  O87  1  0.73694100  0.00000000  0.00000000  1
  O  O88  1  0.00000000  0.73694100  0.00000000  1
  O  O89  1  0.26305900  0.26305900  0.00000000  1
  O  O90  1  0.13551800  0.56775900  0.54538300  1
  O  O91  1  0.43224100  0.56775900  0.54538300  1
  O  O92  1  0.43224100  0.86448200  0.54538300  1
  O  O93  1  0.23442567  0.76557433  0.78795033  1
  O  O94  1  0.23442567  0.46885133  0.78795033  1
  O  O95  1  0.53114867  0.76557433  0.78795033  1
  O  O96  1  0.12018367  0.24036733  0.13067733  1
  O  O97  1  0.12018367  0.87981633  0.13067733  1
  O  O98  1  0.75963267  0.87981633  0.13067733  1
  O  O99  1  0.90703400  0.45351700  0.20265600  1
  O  O100  1  0.54648300  0.09296600  0.20265600  1
  O  O101  1  0.54648300  0.45351700  0.20265600  1
  O  O102  1  0.33333333  0.31450967  0.16666667  1
  O  O103  1  0.98117633  0.66666667  0.16666667  1
  O  O104  1  0.68549033  0.01882367  0.16666667  1
  O  O105  1  0.33333333  0.01882367  0.16666667  1
  O  O106  1  0.68549033  0.66666667  0.16666667  1
  O  O107  1  0.98117633  0.31450967  0.16666667  1
