# generated using pymatgen
data_ZnSnO3
_symmetry_space_group_name_H-M   'P 1'
_cell_length_a   5.37902557
_cell_length_b   5.37902557
_cell_length_c   14.29471324
_cell_angle_alpha   90.00000000
_cell_angle_beta   90.00000000
_cell_angle_gamma   120.00000000
_symmetry_Int_Tables_number   1
_chemical_formula_structural   ZnSnO3
_chemical_formula_sum   'Zn6 Sn6 O18'
_cell_volume   358.18986852
_cell_formula_units_Z   6
loop_
 _symmetry_equiv_pos_site_id
 _symmetry_equiv_pos_as_xyz
  1  'x, y, z'
loop_
 _atom_site_type_symbol
 _atom_site_label
 _atom_site_symmetry_multiplicity
 _atom_site_fract_x
 _atom_site_fract_y
 _atom_site_fract_z
 _atom_site_occupancy
  Zn  Zn0  1  0.33333333  0.66666667  0.03212867  1
  Zn  Zn1  1  0.33333333  0.66666667  0.30120467  1
  Zn  Zn2  1  0.00000000  0.00000000  0.36546200  1
  Zn  Zn3  1  0.00000000  0.00000000  0.63453800  1
  Zn  Zn4  1  0.66666667  0.33333333  0.69879533  1
  Zn  Zn5  1  0.66666667  0.33333333  0.96787133  1
  Sn  Sn6  1  0.00000000  0.00000000  0.14996200  1
  Sn  Sn7  1  0.66666667  0.33333333  0.18337133  1
  Sn  Sn8  1  0.66666667  0.33333333  0.48329533  1
  Sn  Sn9  1  0.33333333  0.66666667  0.51670467  1
  Sn  Sn10  1  0.33333333  0.66666667  0.81662867  1
  Sn  Sn11  1  0.00000000  0.00000000  0.85003800  1
  O  O12  1  0.96478867  0.32535233  0.08519833  1
  O  O13  1  0.67464767  0.63943633  0.08519833  1
  O  O14  1  0.36056367  0.03521133  0.08519833  1
  O  O15  1  0.70187800  0.00798100  0.24813500  1
  O  O16  1  0.30610300  0.29812200  0.24813500  1
  O  O17  1  0.99201900  0.69389700  0.24813500  1
  O  O18  1  0.63145533  0.65868567  0.41853167  1
  O  O19  1  0.34131433  0.97276967  0.41853167  1
  O  O20  1  0.02723033  0.36854467  0.41853167  1
  O  O21  1  0.36854467  0.34131433  0.58146833  1
  O  O22  1  0.97276967  0.63145533  0.58146833  1
  O  O23  1  0.65868567  0.02723033  0.58146833  1
  O  O24  1  0.29812200  0.99201900  0.75186500  1
  O  O25  1  0.00798100  0.30610300  0.75186500  1
  O  O26  1  0.69389700  0.70187800  0.75186500  1
  O  O27  1  0.03521133  0.67464767  0.91480167  1
  O  O28  1  0.63943633  0.96478867  0.91480167  1
  O  O29  1  0.32535233  0.36056367  0.91480167  1
