# generated using pymatgen
data_MgSiN2
_symmetry_space_group_name_H-M   'P 1'
_cell_length_a   4.62819800
_cell_length_b   4.62819800
_cell_length_c   8.07780800
_cell_angle_alpha   90.00000000
_cell_angle_beta   90.00000000
_cell_angle_gamma   90.00000000
_symmetry_Int_Tables_number   1
_chemical_formula_structural   MgSiN2
_chemical_formula_sum   'Mg4 Si4 N8'
_cell_volume   173.02839804
_cell_formula_units_Z   4
loop_
 _symmetry_equiv_pos_site_id
 _symmetry_equiv_pos_as_xyz
  1  'x, y, z'
loop_
 _atom_site_type_symbol
 _atom_site_label
 _atom_site_symmetry_multiplicity
 _atom_site_fract_x
 _atom_site_fract_y
 _atom_site_fract_z
 _atom_site_occupancy
  Mg  Mg0  1  0.00000000  0.00000000  0.00000000  1
  Mg  Mg1  1  0.00000000  0.50000000  0.25000000  1
  Mg  Mg2  1  0.50000000  0.50000000  0.50000000  1
  Mg  Mg3  1  0.50000000  0.00000000  0.75000000  1
  Si  Si4  1  0.50000000  0.00000000  0.25000000  1
  Si  Si5  1  0.50000000  0.50000000  0.00000000  1
  Si  Si6  1  0.00000000  0.50000000  0.75000000  1
  Si  Si7  1  0.00000000  0.00000000  0.50000000  1
  N  N8  1  0.25000000  0.18690800  0.37500000  1
  N  N9  1  0.68690800  0.25000000  0.12500000  1
  N  N10  1  0.75000000  0.81309200  0.37500000  1
  N  N11  1  0.31309200  0.75000000  0.12500000  1
  N  N12  1  0.75000000  0.68690800  0.87500000  1
  N  N13  1  0.18690800  0.75000000  0.62500000  1
  N  N14  1  0.25000000  0.31309200  0.87500000  1
  N  N15  1  0.81309200  0.25000000  0.62500000  1
