# generated using pymatgen
data_TlZnAsO4
_symmetry_space_group_name_H-M   'P 1'
_cell_length_a   9.11082900
_cell_length_b   5.73520100
_cell_length_c   9.17394867
_cell_angle_alpha   90.00000000
_cell_angle_beta   91.05619045
_cell_angle_gamma   90.00000000
_symmetry_Int_Tables_number   1
_chemical_formula_structural   TlZnAsO4
_chemical_formula_sum   'Tl4 Zn4 As4 O16'
_cell_volume   479.27971770
_cell_formula_units_Z   4
loop_
 _symmetry_equiv_pos_site_id
 _symmetry_equiv_pos_as_xyz
  1  'x, y, z'
loop_
 _atom_site_type_symbol
 _atom_site_label
 _atom_site_symmetry_multiplicity
 _atom_site_fract_x
 _atom_site_fract_y
 _atom_site_fract_z
 _atom_site_occupancy
  Tl  Tl0  1  0.50218900  0.48191700  0.31924600  1
  Tl  Tl1  1  0.49781100  0.98191700  0.68075400  1
  Tl  Tl2  1  0.99672800  0.51806800  0.18402900  1
  Tl  Tl3  1  0.00327200  0.01806800  0.81597100  1
  Zn  Zn4  1  0.17752300  0.49894800  0.59795000  1
  Zn  Zn5  1  0.82247700  0.99894800  0.40205000  1
  Zn  Zn6  1  0.32738000  0.03232700  0.07534000  1
  Zn  Zn7  1  0.67262000  0.53232700  0.92466000  1
  As  As8  1  0.30895300  0.53099300  0.93448900  1
  As  As9  1  0.81112700  0.50073200  0.59854300  1
  As  As10  1  0.69104700  0.03099300  0.06551100  1
  As  As11  1  0.18887300  0.00073200  0.40145700  1
  O  O12  1  0.67434100  0.08745300  0.24900300  1
  O  O13  1  0.32565900  0.58745300  0.75099700  1
  O  O14  1  0.22306800  0.70814400  0.43345100  1
  O  O15  1  0.77693200  0.20814400  0.56654900  1
  O  O16  1  0.21198600  0.75255800  0.01736700  1
  O  O17  1  0.78801400  0.25255800  0.98263300  1
  O  O18  1  0.32174300  0.10087700  0.28484500  1
  O  O19  1  0.67825700  0.60087700  0.71515500  1
  O  O20  1  0.79423700  0.65829700  0.43841700  1
  O  O21  1  0.20576300  0.15829700  0.56158300  1
  O  O22  1  0.21360700  0.27623900  0.96519500  1
  O  O23  1  0.78639300  0.77623900  0.03480500  1
  O  O24  1  0.98078300  0.53782900  0.68208400  1
  O  O25  1  0.01921700  0.03782900  0.31791600  1
  O  O26  1  0.52083700  0.00731600  0.98047100  1
  O  O27  1  0.47916300  0.50731600  0.01952900  1
