# generated using pymatgen
data_Rb2LiVO4
_symmetry_space_group_name_H-M   'P 1'
_cell_length_a   5.97999400
_cell_length_b   11.98540600
_cell_length_c   8.00760000
_cell_angle_alpha   90.00000000
_cell_angle_beta   90.00000000
_cell_angle_gamma   90.00000000
_symmetry_Int_Tables_number   1
_chemical_formula_structural   Rb2LiVO4
_chemical_formula_sum   'Rb8 Li4 V4 O16'
_cell_volume   573.92595993
_cell_formula_units_Z   4
loop_
 _symmetry_equiv_pos_site_id
 _symmetry_equiv_pos_as_xyz
  1  'x, y, z'
loop_
 _atom_site_type_symbol
 _atom_site_label
 _atom_site_symmetry_multiplicity
 _atom_site_fract_x
 _atom_site_fract_y
 _atom_site_fract_z
 _atom_site_occupancy
  Rb  Rb0  1  0.50000000  0.10445900  0.45085900  1
  Rb  Rb1  1  0.00000000  0.39554100  0.95085900  1
  Rb  Rb2  1  0.50000000  0.43624300  0.58892000  1
  Rb  Rb3  1  0.00000000  0.06375700  0.08892000  1
  Rb  Rb4  1  0.00000000  0.60445900  0.45085900  1
  Rb  Rb5  1  0.50000000  0.89554100  0.95085900  1
  Rb  Rb6  1  0.00000000  0.93624300  0.58892000  1
  Rb  Rb7  1  0.50000000  0.56375700  0.08892000  1
  Li  Li8  1  0.50000000  0.29915200  0.17114100  1
  Li  Li9  1  0.00000000  0.20084800  0.67114100  1
  Li  Li10  1  0.00000000  0.79915200  0.17114100  1
  Li  Li11  1  0.50000000  0.70084800  0.67114100  1
  V  V12  1  0.00000000  0.30873000  0.38930300  1
  V  V13  1  0.50000000  0.19127000  0.88930300  1
  V  V14  1  0.50000000  0.80873000  0.38930300  1
  V  V15  1  0.00000000  0.69127000  0.88930300  1
  O  O16  1  0.73840000  0.14694400  0.78269800  1
  O  O17  1  0.76160000  0.35305600  0.28269800  1
  O  O18  1  0.50000000  0.13525000  0.09080200  1
  O  O19  1  0.00000000  0.36475000  0.59080200  1
  O  O20  1  0.26160000  0.14694400  0.78269800  1
  O  O21  1  0.23840000  0.35305600  0.28269800  1
  O  O22  1  0.00000000  0.16399700  0.42228000  1
  O  O23  1  0.50000000  0.33600300  0.92228000  1
  O  O24  1  0.23840000  0.64694400  0.78269800  1
  O  O25  1  0.26160000  0.85305600  0.28269800  1
  O  O26  1  0.00000000  0.63525000  0.09080200  1
  O  O27  1  0.50000000  0.86475000  0.59080200  1
  O  O28  1  0.76160000  0.64694400  0.78269800  1
  O  O29  1  0.73840000  0.85305600  0.28269800  1
  O  O30  1  0.50000000  0.66399700  0.42228000  1
  O  O31  1  0.00000000  0.83600300  0.92228000  1
