# generated using pymatgen
data_BaAl4O7
_symmetry_space_group_name_H-M   'P 1'
_cell_length_a   4.98027500
_cell_length_b   10.41318700
_cell_length_c   13.14671500
_cell_angle_alpha   90.00000000
_cell_angle_beta   90.00000000
_cell_angle_gamma   90.00000000
_symmetry_Int_Tables_number   1
_chemical_formula_structural   BaAl4O7
_chemical_formula_sum   'Ba4 Al16 O28'
_cell_volume   681.79567190
_cell_formula_units_Z   4
loop_
 _symmetry_equiv_pos_site_id
 _symmetry_equiv_pos_as_xyz
  1  'x, y, z'
loop_
 _atom_site_type_symbol
 _atom_site_label
 _atom_site_symmetry_multiplicity
 _atom_site_fract_x
 _atom_site_fract_y
 _atom_site_fract_z
 _atom_site_occupancy
  Ba  Ba0  1  0.79254600  0.82345400  0.75000000  1
  Ba  Ba1  1  0.70745400  0.32345400  0.75000000  1
  Ba  Ba2  1  0.20745400  0.17654600  0.25000000  1
  Ba  Ba3  1  0.29254600  0.67654600  0.25000000  1
  Al  Al4  1  0.70536400  0.65876600  0.49824800  1
  Al  Al5  1  0.70536400  0.65876600  0.00175200  1
  Al  Al6  1  0.79463600  0.15876600  0.00175200  1
  Al  Al7  1  0.79463600  0.15876600  0.49824800  1
  Al  Al8  1  0.20536400  0.84123400  0.50175200  1
  Al  Al9  1  0.20536400  0.84123400  0.99824800  1
  Al  Al10  1  0.29463600  0.34123400  0.99824800  1
  Al  Al11  1  0.29463600  0.34123400  0.50175200  1
  Al  Al12  1  0.71375100  0.90912300  0.36861900  1
  Al  Al13  1  0.71375100  0.90912300  0.13138100  1
  Al  Al14  1  0.78624900  0.40912300  0.13138100  1
  Al  Al15  1  0.78624900  0.40912300  0.36861900  1
  Al  Al16  1  0.21375100  0.59087700  0.63138100  1
  Al  Al17  1  0.21375100  0.59087700  0.86861900  1
  Al  Al18  1  0.28624900  0.09087700  0.86861900  1
  Al  Al19  1  0.28624900  0.09087700  0.63138100  1
  O  O20  1  0.28957600  0.65922100  0.75000000  1
  O  O21  1  0.21042400  0.15922100  0.75000000  1
  O  O22  1  0.78957600  0.84077900  0.25000000  1
  O  O23  1  0.71042400  0.34077900  0.25000000  1
  O  O24  1  0.86484900  0.61378600  0.61123700  1
  O  O25  1  0.86484900  0.61378600  0.88876300  1
  O  O26  1  0.63515100  0.11378600  0.88876300  1
  O  O27  1  0.63515100  0.11378600  0.61123700  1
  O  O28  1  0.36676400  0.69422500  0.53561300  1
  O  O29  1  0.36676400  0.69422500  0.96438700  1
  O  O30  1  0.13323600  0.19422500  0.96438700  1
  O  O31  1  0.13323600  0.19422500  0.53561300  1
  O  O32  1  0.36484900  0.88621400  0.38876300  1
  O  O33  1  0.36484900  0.88621400  0.11123700  1
  O  O34  1  0.13515100  0.38621400  0.11123700  1
  O  O35  1  0.13515100  0.38621400  0.38876300  1
  O  O36  1  0.68856800  0.56925200  0.38608100  1
  O  O37  1  0.68856800  0.56925200  0.11391900  1
  O  O38  1  0.81143200  0.06925200  0.11391900  1
  O  O39  1  0.81143200  0.06925200  0.38608100  1
  O  O40  1  0.18856800  0.93074800  0.61391900  1
  O  O41  1  0.18856800  0.93074800  0.88608100  1
  O  O42  1  0.31143200  0.43074800  0.88608100  1
  O  O43  1  0.31143200  0.43074800  0.61391900  1
  O  O44  1  0.86676400  0.80577500  0.46438700  1
  O  O45  1  0.86676400  0.80577500  0.03561300  1
  O  O46  1  0.63323600  0.30577500  0.03561300  1
  O  O47  1  0.63323600  0.30577500  0.46438700  1
