# generated using pymatgen
data_K2SrCu(NO2)6
_symmetry_space_group_name_H-M   'P 1'
_cell_length_a   10.56629000
_cell_length_b   10.58811600
_cell_length_c   11.02919000
_cell_angle_alpha   90.00000000
_cell_angle_beta   90.00000000
_cell_angle_gamma   90.00000000
_symmetry_Int_Tables_number   1
_chemical_formula_structural   K2SrCu(NO2)6
_chemical_formula_sum   'K8 Sr4 Cu4 N24 O48'
_cell_volume   1233.91383898
_cell_formula_units_Z   4
loop_
 _symmetry_equiv_pos_site_id
 _symmetry_equiv_pos_as_xyz
  1  'x, y, z'
loop_
 _atom_site_type_symbol
 _atom_site_label
 _atom_site_symmetry_multiplicity
 _atom_site_fract_x
 _atom_site_fract_y
 _atom_site_fract_z
 _atom_site_occupancy
  K  K0  1  0.75000000  0.75000000  0.25000000  1
  K  K1  1  0.75000000  0.25000000  0.25000000  1
  K  K2  1  0.75000000  0.25000000  0.75000000  1
  K  K3  1  0.75000000  0.75000000  0.75000000  1
  K  K4  1  0.25000000  0.75000000  0.75000000  1
  K  K5  1  0.25000000  0.25000000  0.75000000  1
  K  K6  1  0.25000000  0.25000000  0.25000000  1
  K  K7  1  0.25000000  0.75000000  0.25000000  1
  Sr  Sr8  1  0.50000000  0.00000000  0.00000000  1
  Sr  Sr9  1  0.50000000  0.50000000  0.50000000  1
  Sr  Sr10  1  0.00000000  0.00000000  0.50000000  1
  Sr  Sr11  1  0.00000000  0.50000000  0.00000000  1
  Cu  Cu12  1  0.00000000  0.00000000  0.00000000  1
  Cu  Cu13  1  0.00000000  0.50000000  0.50000000  1
  Cu  Cu14  1  0.50000000  0.00000000  0.50000000  1
  Cu  Cu15  1  0.50000000  0.50000000  0.00000000  1
  N  N16  1  0.80220100  0.00000000  0.00000000  1
  N  N17  1  0.50000000  0.00000000  0.28827500  1
  N  N18  1  0.50000000  0.30221000  0.00000000  1
  N  N19  1  0.50000000  0.69779000  0.00000000  1
  N  N20  1  0.00000000  0.00000000  0.21172500  1
  N  N21  1  0.19779900  0.00000000  0.00000000  1
  N  N22  1  0.80220100  0.50000000  0.50000000  1
  N  N23  1  0.50000000  0.50000000  0.78827500  1
  N  N24  1  0.50000000  0.80221000  0.50000000  1
  N  N25  1  0.50000000  0.19779000  0.50000000  1
  N  N26  1  0.00000000  0.50000000  0.71172500  1
  N  N27  1  0.19779900  0.50000000  0.50000000  1
  N  N28  1  0.30220100  0.00000000  0.50000000  1
  N  N29  1  0.00000000  0.00000000  0.78827500  1
  N  N30  1  0.00000000  0.30221000  0.50000000  1
  N  N31  1  0.00000000  0.69779000  0.50000000  1
  N  N32  1  0.50000000  0.00000000  0.71172500  1
  N  N33  1  0.69779900  0.00000000  0.50000000  1
  N  N34  1  0.30220100  0.50000000  0.00000000  1
  N  N35  1  0.00000000  0.50000000  0.28827500  1
  N  N36  1  0.00000000  0.80221000  0.00000000  1
  N  N37  1  0.00000000  0.19779000  0.00000000  1
  N  N38  1  0.50000000  0.50000000  0.21172500  1
  N  N39  1  0.69779900  0.50000000  0.00000000  1
  O  O40  1  0.25948450  0.00000000  0.09797550  1
  O  O41  1  0.75948450  0.00000000  0.40202450  1
  O  O42  1  0.39783900  0.24073300  0.00000000  1
  O  O43  1  0.24051550  0.00000000  0.40202450  1
  O  O44  1  0.50000000  0.10169600  0.22741400  1
  O  O45  1  0.00000000  0.89830400  0.27258600  1
  O  O46  1  0.39783900  0.75926700  0.00000000  1
  O  O47  1  0.74051550  0.00000000  0.09797550  1
  O  O48  1  0.50000000  0.89830400  0.22741400  1
  O  O49  1  0.60216100  0.24073300  0.00000000  1
  O  O50  1  0.00000000  0.10169600  0.27258600  1
  O  O51  1  0.60216100  0.75926700  0.00000000  1
  O  O52  1  0.25948450  0.50000000  0.59797550  1
  O  O53  1  0.75948450  0.50000000  0.90202450  1
  O  O54  1  0.39783900  0.74073300  0.50000000  1
  O  O55  1  0.24051550  0.50000000  0.90202450  1
  O  O56  1  0.50000000  0.60169600  0.72741400  1
  O  O57  1  0.00000000  0.39830400  0.77258600  1
  O  O58  1  0.39783900  0.25926700  0.50000000  1
  O  O59  1  0.74051550  0.50000000  0.59797550  1
  O  O60  1  0.50000000  0.39830400  0.72741400  1
  O  O61  1  0.60216100  0.74073300  0.50000000  1
  O  O62  1  0.00000000  0.60169600  0.77258600  1
  O  O63  1  0.60216100  0.25926700  0.50000000  1
  O  O64  1  0.75948450  0.00000000  0.59797550  1
  O  O65  1  0.25948450  0.00000000  0.90202450  1
  O  O66  1  0.89783900  0.24073300  0.50000000  1
  O  O67  1  0.74051550  0.00000000  0.90202450  1
  O  O68  1  0.00000000  0.10169600  0.72741400  1
  O  O69  1  0.50000000  0.89830400  0.77258600  1
  O  O70  1  0.89783900  0.75926700  0.50000000  1
  O  O71  1  0.24051550  0.00000000  0.59797550  1
  O  O72  1  0.00000000  0.89830400  0.72741400  1
  O  O73  1  0.10216100  0.24073300  0.50000000  1
  O  O74  1  0.50000000  0.10169600  0.77258600  1
  O  O75  1  0.10216100  0.75926700  0.50000000  1
  O  O76  1  0.75948450  0.50000000  0.09797550  1
  O  O77  1  0.25948450  0.50000000  0.40202450  1
  O  O78  1  0.89783900  0.74073300  0.00000000  1
  O  O79  1  0.74051550  0.50000000  0.40202450  1
  O  O80  1  0.00000000  0.60169600  0.22741400  1
  O  O81  1  0.50000000  0.39830400  0.27258600  1
  O  O82  1  0.89783900  0.25926700  0.00000000  1
  O  O83  1  0.24051550  0.50000000  0.09797550  1
  O  O84  1  0.00000000  0.39830400  0.22741400  1
  O  O85  1  0.10216100  0.74073300  0.00000000  1
  O  O86  1  0.50000000  0.60169600  0.27258600  1
  O  O87  1  0.10216100  0.25926700  0.00000000  1
