# generated using pymatgen
data_KBe2B3O7
_symmetry_space_group_name_H-M   'P 1'
_cell_length_a   4.41722000
_cell_length_b   7.72051800
_cell_length_c   17.69876500
_cell_angle_alpha   90.00000000
_cell_angle_beta   90.00000000
_cell_angle_gamma   90.00000000
_symmetry_Int_Tables_number   1
_chemical_formula_structural   KBe2B3O7
_chemical_formula_sum   'K4 Be8 B12 O28'
_cell_volume   603.58499192
_cell_formula_units_Z   4
loop_
 _symmetry_equiv_pos_site_id
 _symmetry_equiv_pos_as_xyz
  1  'x, y, z'
loop_
 _atom_site_type_symbol
 _atom_site_label
 _atom_site_symmetry_multiplicity
 _atom_site_fract_x
 _atom_site_fract_y
 _atom_site_fract_z
 _atom_site_occupancy
  K  K0  1  0.10582100  0.00000000  0.36271100  1
  K  K1  1  0.60582100  0.50000000  0.63728900  1
  K  K2  1  0.17724400  0.50000000  0.14710600  1
  K  K3  1  0.67724400  0.00000000  0.85289400  1
  Be  Be4  1  0.62605900  0.31189600  0.45848700  1
  Be  Be5  1  0.62605900  0.68810400  0.45848700  1
  Be  Be6  1  0.12605900  0.18810400  0.54151300  1
  Be  Be7  1  0.12605900  0.81189600  0.54151300  1
  Be  Be8  1  0.77094300  0.17593400  0.03735900  1
  Be  Be9  1  0.77094300  0.82406600  0.03735900  1
  Be  Be10  1  0.27094300  0.32406600  0.96264100  1
  Be  Be11  1  0.27094300  0.67593400  0.96264100  1
  B  B12  1  0.12428800  0.50000000  0.48023800  1
  B  B13  1  0.62428800  0.00000000  0.51976200  1
  B  B14  1  0.26559900  0.00000000  0.00903400  1
  B  B15  1  0.76559900  0.50000000  0.99096600  1
  B  B16  1  0.54538400  0.33999100  0.31543300  1
  B  B17  1  0.54538400  0.66000900  0.31543300  1
  B  B18  1  0.04538400  0.16000900  0.68456700  1
  B  B19  1  0.04538400  0.83999100  0.68456700  1
  B  B20  1  0.67126700  0.16491800  0.19270400  1
  B  B21  1  0.67126700  0.83508200  0.19270400  1
  B  B22  1  0.17126700  0.33508200  0.80729600  1
  B  B23  1  0.17126700  0.66491800  0.80729600  1
  O  O24  1  0.81191400  0.50000000  0.47275000  1
  O  O25  1  0.31191400  0.00000000  0.52725000  1
  O  O26  1  0.27527700  0.34306600  0.48713700  1
  O  O27  1  0.27527700  0.65693400  0.48713700  1
  O  O28  1  0.77527700  0.15693400  0.51286300  1
  O  O29  1  0.77527700  0.84306600  0.51286300  1
  O  O30  1  0.95387200  0.00000000  0.00972600  1
  O  O31  1  0.45387200  0.50000000  0.99027400  1
  O  O32  1  0.42009000  0.15527100  0.00706100  1
  O  O33  1  0.42009000  0.84472900  0.00706100  1
  O  O34  1  0.92009000  0.34472900  0.99293900  1
  O  O35  1  0.92009000  0.65527100  0.99293900  1
  O  O36  1  0.63738500  0.23872200  0.37273900  1
  O  O37  1  0.63738500  0.76127800  0.37273900  1
  O  O38  1  0.13738500  0.26127800  0.62726100  1
  O  O39  1  0.13738500  0.73872200  0.62726100  1
  O  O40  1  0.40796500  0.50000000  0.33072900  1
  O  O41  1  0.90796500  0.00000000  0.66927100  1
  O  O42  1  0.57326500  0.30202700  0.23886900  1
  O  O43  1  0.57326500  0.69797300  0.23886900  1
  O  O44  1  0.07326500  0.19797300  0.76113100  1
  O  O45  1  0.07326500  0.80202700  0.76113100  1
  O  O46  1  0.63168700  0.00000000  0.22411500  1
  O  O47  1  0.13168700  0.50000000  0.77588500  1
  O  O48  1  0.78388100  0.20641600  0.12546600  1
  O  O49  1  0.78388100  0.79358400  0.12546600  1
  O  O50  1  0.28388100  0.29358400  0.87453400  1
  O  O51  1  0.28388100  0.70641600  0.87453400  1
