# generated using pymatgen
data_Tm2O3
_symmetry_space_group_name_H-M   'P 1'
_cell_length_a   10.47532400
_cell_length_b   10.47532400
_cell_length_c   10.47532400
_cell_angle_alpha   90.00000000
_cell_angle_beta   90.00000000
_cell_angle_gamma   90.00000000
_symmetry_Int_Tables_number   1
_chemical_formula_structural   Tm2O3
_chemical_formula_sum   'Tm32 O48'
_cell_volume   1149.48257848
_cell_formula_units_Z   16
loop_
 _symmetry_equiv_pos_site_id
 _symmetry_equiv_pos_as_xyz
  1  'x, y, z'
loop_
 _atom_site_type_symbol
 _atom_site_label
 _atom_site_symmetry_multiplicity
 _atom_site_fract_x
 _atom_site_fract_y
 _atom_site_fract_z
 _atom_site_occupancy
  Tm  Tm0  1  0.00000000  0.50000000  0.00000000  1
  Tm  Tm1  1  0.50000000  0.00000000  0.00000000  1
  Tm  Tm2  1  0.00000000  0.00000000  0.00000000  1
  Tm  Tm3  1  0.00000000  0.00000000  0.50000000  1
  Tm  Tm4  1  0.75000000  0.21677800  0.00000000  1
  Tm  Tm5  1  0.00000000  0.75000000  0.21677800  1
  Tm  Tm6  1  0.28322200  0.00000000  0.25000000  1
  Tm  Tm7  1  0.00000000  0.25000000  0.28322200  1
  Tm  Tm8  1  0.21677800  0.00000000  0.75000000  1
  Tm  Tm9  1  0.25000000  0.28322200  0.00000000  1
  Tm  Tm10  1  0.75000000  0.28322200  0.50000000  1
  Tm  Tm11  1  0.50000000  0.75000000  0.28322200  1
  Tm  Tm12  1  0.21677800  0.50000000  0.25000000  1
  Tm  Tm13  1  0.50000000  0.25000000  0.21677800  1
  Tm  Tm14  1  0.28322200  0.50000000  0.75000000  1
  Tm  Tm15  1  0.25000000  0.21677800  0.50000000  1
  Tm  Tm16  1  0.50000000  0.00000000  0.50000000  1
  Tm  Tm17  1  0.00000000  0.50000000  0.50000000  1
  Tm  Tm18  1  0.50000000  0.50000000  0.50000000  1
  Tm  Tm19  1  0.50000000  0.50000000  0.00000000  1
  Tm  Tm20  1  0.25000000  0.71677800  0.50000000  1
  Tm  Tm21  1  0.50000000  0.25000000  0.71677800  1
  Tm  Tm22  1  0.78322200  0.50000000  0.75000000  1
  Tm  Tm23  1  0.50000000  0.75000000  0.78322200  1
  Tm  Tm24  1  0.71677800  0.50000000  0.25000000  1
  Tm  Tm25  1  0.75000000  0.78322200  0.50000000  1
  Tm  Tm26  1  0.25000000  0.78322200  0.00000000  1
  Tm  Tm27  1  0.00000000  0.25000000  0.78322200  1
  Tm  Tm28  1  0.71677800  0.00000000  0.75000000  1
  Tm  Tm29  1  0.00000000  0.75000000  0.71677800  1
  Tm  Tm30  1  0.78322200  0.00000000  0.25000000  1
  Tm  Tm31  1  0.75000000  0.71677800  0.00000000  1
  O  O32  1  0.40208800  0.14113300  0.37004500  1
  O  O33  1  0.62995500  0.09791200  0.14113300  1
  O  O34  1  0.35886700  0.37004500  0.59791200  1
  O  O35  1  0.37004500  0.59791200  0.35886700  1
  O  O36  1  0.35886700  0.62995500  0.90208800  1
  O  O37  1  0.37004500  0.40208800  0.14113300  1
  O  O38  1  0.14113300  0.37004500  0.40208800  1
  O  O39  1  0.14113300  0.62995500  0.09791200  1
  O  O40  1  0.62995500  0.90208800  0.35886700  1
  O  O41  1  0.59791200  0.35886700  0.37004500  1
  O  O42  1  0.90208800  0.35886700  0.62995500  1
  O  O43  1  0.09791200  0.14113300  0.62995500  1
  O  O44  1  0.09791200  0.35886700  0.12995500  1
  O  O45  1  0.87004500  0.40208800  0.35886700  1
  O  O46  1  0.14113300  0.12995500  0.90208800  1
  O  O47  1  0.12995500  0.90208800  0.14113300  1
  O  O48  1  0.14113300  0.87004500  0.59791200  1
  O  O49  1  0.12995500  0.09791200  0.35886700  1
  O  O50  1  0.35886700  0.12995500  0.09791200  1
  O  O51  1  0.35886700  0.87004500  0.40208800  1
  O  O52  1  0.87004500  0.59791200  0.14113300  1
  O  O53  1  0.90208800  0.14113300  0.12995500  1
  O  O54  1  0.59791200  0.14113300  0.87004500  1
  O  O55  1  0.40208800  0.35886700  0.87004500  1
  O  O56  1  0.90208800  0.64113300  0.87004500  1
  O  O57  1  0.12995500  0.59791200  0.64113300  1
  O  O58  1  0.85886700  0.87004500  0.09791200  1
  O  O59  1  0.87004500  0.09791200  0.85886700  1
  O  O60  1  0.85886700  0.12995500  0.40208800  1
  O  O61  1  0.87004500  0.90208800  0.64113300  1
  O  O62  1  0.64113300  0.87004500  0.90208800  1
  O  O63  1  0.64113300  0.12995500  0.59791200  1
  O  O64  1  0.12995500  0.40208800  0.85886700  1
  O  O65  1  0.09791200  0.85886700  0.87004500  1
  O  O66  1  0.40208800  0.85886700  0.12995500  1
  O  O67  1  0.59791200  0.64113300  0.12995500  1
  O  O68  1  0.59791200  0.85886700  0.62995500  1
  O  O69  1  0.37004500  0.90208800  0.85886700  1
  O  O70  1  0.64113300  0.62995500  0.40208800  1
  O  O71  1  0.62995500  0.40208800  0.64113300  1
  O  O72  1  0.64113300  0.37004500  0.09791200  1
  O  O73  1  0.62995500  0.59791200  0.85886700  1
  O  O74  1  0.85886700  0.62995500  0.59791200  1
  O  O75  1  0.85886700  0.37004500  0.90208800  1
  O  O76  1  0.37004500  0.09791200  0.64113300  1
  O  O77  1  0.40208800  0.64113300  0.62995500  1
  O  O78  1  0.09791200  0.64113300  0.37004500  1
  O  O79  1  0.90208800  0.85886700  0.37004500  1
