# generated using pymatgen
data_BaErCuS3
_symmetry_space_group_name_H-M   'P 1'
_cell_length_a   4.00443600
_cell_length_b   13.58779600
_cell_length_c   10.17968200
_cell_angle_alpha   90.00000000
_cell_angle_beta   90.00000000
_cell_angle_gamma   90.00000000
_symmetry_Int_Tables_number   1
_chemical_formula_structural   BaErCuS3
_chemical_formula_sum   'Ba4 Er4 Cu4 S12'
_cell_volume   553.89135449
_cell_formula_units_Z   4
loop_
 _symmetry_equiv_pos_site_id
 _symmetry_equiv_pos_as_xyz
  1  'x, y, z'
loop_
 _atom_site_type_symbol
 _atom_site_label
 _atom_site_symmetry_multiplicity
 _atom_site_fract_x
 _atom_site_fract_y
 _atom_site_fract_z
 _atom_site_occupancy
  Ba  Ba0  1  0.50000000  0.24461400  0.75000000  1
  Ba  Ba1  1  0.00000000  0.25538600  0.25000000  1
  Ba  Ba2  1  0.00000000  0.74461400  0.75000000  1
  Ba  Ba3  1  0.50000000  0.75538600  0.25000000  1
  Er  Er4  1  0.00000000  0.00000000  0.00000000  1
  Er  Er5  1  0.00000000  0.00000000  0.50000000  1
  Er  Er6  1  0.50000000  0.50000000  0.00000000  1
  Er  Er7  1  0.50000000  0.50000000  0.50000000  1
  Cu  Cu8  1  0.50000000  0.03158200  0.25000000  1
  Cu  Cu9  1  0.00000000  0.46841800  0.75000000  1
  Cu  Cu10  1  0.00000000  0.53158200  0.25000000  1
  Cu  Cu11  1  0.50000000  0.96841800  0.75000000  1
  S  S12  1  0.50000000  0.43417300  0.25000000  1
  S  S13  1  0.00000000  0.06582700  0.75000000  1
  S  S14  1  0.50000000  0.13024800  0.06199200  1
  S  S15  1  0.50000000  0.13024800  0.43800800  1
  S  S16  1  0.00000000  0.36975200  0.56199200  1
  S  S17  1  0.00000000  0.36975200  0.93800800  1
  S  S18  1  0.00000000  0.93417300  0.25000000  1
  S  S19  1  0.50000000  0.56582700  0.75000000  1
  S  S20  1  0.00000000  0.63024800  0.06199200  1
  S  S21  1  0.00000000  0.63024800  0.43800800  1
  S  S22  1  0.50000000  0.86975200  0.56199200  1
  S  S23  1  0.50000000  0.86975200  0.93800800  1
