# generated using pymatgen
data_ErBO3
_symmetry_space_group_name_H-M   'P 1'
_cell_length_a   7.18248700
_cell_length_b   8.98394060
_cell_length_c   9.83816739
_cell_angle_alpha   81.33542328
_cell_angle_beta   85.65877983
_cell_angle_gamma   77.35866253
_symmetry_Int_Tables_number   1
_chemical_formula_structural   ErBO3
_chemical_formula_sum   'Er12 B12 O36'
_cell_volume   611.76846851
_cell_formula_units_Z   12
loop_
 _symmetry_equiv_pos_site_id
 _symmetry_equiv_pos_as_xyz
  1  'x, y, z'
loop_
 _atom_site_type_symbol
 _atom_site_label
 _atom_site_symmetry_multiplicity
 _atom_site_fract_x
 _atom_site_fract_y
 _atom_site_fract_z
 _atom_site_occupancy
  Er  Er0  1  0.26314700  0.55848700  0.97259800  1
  Er  Er1  1  0.73685300  0.44151300  0.02740200  1
  Er  Er2  1  0.75068200  0.95765100  0.51903500  1
  Er  Er3  1  0.24931800  0.04234900  0.48096500  1
  Er  Er4  1  0.90216500  0.06738200  0.83709700  1
  Er  Er5  1  0.09783500  0.93261800  0.16290300  1
  Er  Er6  1  0.09731000  0.43587600  0.67099700  1
  Er  Er7  1  0.90269000  0.56412400  0.32900300  1
  Er  Er8  1  0.56426100  0.55847800  0.65679000  1
  Er  Er9  1  0.43573900  0.44152200  0.34321000  1
  Er  Er10  1  0.42727200  0.94301400  0.84503300  1
  Er  Er11  1  0.57272800  0.05698600  0.15496700  1
  B  B12  1  0.47784100  0.28488400  0.92186700  1
  B  B13  1  0.52215900  0.71511600  0.07813300  1
  B  B14  1  0.46645800  0.77979000  0.38660100  1
  B  B15  1  0.53354200  0.22021000  0.61339900  1
  B  B16  1  0.83142600  0.72802800  0.79404700  1
  B  B17  1  0.16857400  0.27197200  0.20595300  1
  B  B18  1  0.21951900  0.78275200  0.69191400  1
  B  B19  1  0.78048100  0.21724800  0.30808600  1
  B  B20  1  0.88510100  0.74377400  0.05144000  1
  B  B21  1  0.11489900  0.25622600  0.94856000  1
  B  B22  1  0.10670000  0.75225500  0.44774600  1
  B  B23  1  0.89330000  0.24774500  0.55225400  1
  O  O24  1  0.06495700  0.18590800  0.62990300  1
  O  O25  1  0.93504300  0.81409200  0.37009700  1
  O  O26  1  0.94119800  0.31831600  0.87325700  1
  O  O27  1  0.05880200  0.68168400  0.12674300  1
  O  O28  1  0.92010600  0.16107300  0.42775500  1
  O  O29  1  0.07989400  0.83892700  0.57224500  1
  O  O30  1  0.08147500  0.33456600  0.08066800  1
  O  O31  1  0.91852500  0.66543400  0.91933200  1
  O  O32  1  0.85024700  0.41272000  0.53441600  1
  O  O33  1  0.14975300  0.58728000  0.46558400  1
  O  O34  1  0.15282200  0.08999500  0.96447500  1
  O  O35  1  0.84717800  0.91000500  0.03552500  1
  O  O36  1  0.26810900  0.81767400  0.36363300  1
  O  O37  1  0.73189100  0.18232600  0.63636700  1
  O  O38  1  0.27143200  0.32350900  0.87237100  1
  O  O39  1  0.72856800  0.67649100  0.12762900  1
  O  O40  1  0.84318900  0.12466600  0.19756000  1
  O  O41  1  0.15681100  0.87533400  0.80244000  1
  O  O42  1  0.16850300  0.37009100  0.30076000  1
  O  O43  1  0.83149700  0.62990900  0.69924000  1
  O  O44  1  0.75518300  0.38356900  0.26301300  1
  O  O45  1  0.24481700  0.61643100  0.73698700  1
  O  O46  1  0.24594800  0.11666700  0.23978800  1
  O  O47  1  0.75405200  0.88333300  0.76021200  1
  O  O48  1  0.45361900  0.09303600  0.62561900  1
  O  O49  1  0.54638100  0.90696400  0.37438100  1
  O  O50  1  0.43511400  0.59268700  0.14930500  1
  O  O51  1  0.56488600  0.40731300  0.85069500  1
  O  O52  1  0.56612700  0.63172600  0.41609900  1
  O  O53  1  0.43387300  0.36827400  0.58390100  1
  O  O54  1  0.42848000  0.87283700  0.08818500  1
  O  O55  1  0.57152000  0.12716300  0.91181500  1
  O  O56  1  0.59146300  0.18705200  0.36797400  1
  O  O57  1  0.40853700  0.81294800  0.63202600  1
  O  O58  1  0.47375600  0.31072800  0.07123600  1
  O  O59  1  0.52624400  0.68927200  0.92876400  1
