# generated using pymatgen
data_NaSe2
_symmetry_space_group_name_H-M   'P 1'
_cell_length_a   10.29616600
_cell_length_b   10.29616600
_cell_length_c   12.40953000
_cell_angle_alpha   90.00000000
_cell_angle_beta   90.00000000
_cell_angle_gamma   90.00000000
_symmetry_Int_Tables_number   1
_chemical_formula_structural   NaSe2
_chemical_formula_sum   'Na16 Se32'
_cell_volume   1315.54711047
_cell_formula_units_Z   16
loop_
 _symmetry_equiv_pos_site_id
 _symmetry_equiv_pos_as_xyz
  1  'x, y, z'
loop_
 _atom_site_type_symbol
 _atom_site_label
 _atom_site_symmetry_multiplicity
 _atom_site_fract_x
 _atom_site_fract_y
 _atom_site_fract_z
 _atom_site_occupancy
  Na  Na0  1  0.24728600  0.25000000  0.62500000  1
  Na  Na1  1  0.25000000  0.75271400  0.37500000  1
  Na  Na2  1  0.25000000  0.74728600  0.87500000  1
  Na  Na3  1  0.25271400  0.25000000  0.12500000  1
  Na  Na4  1  0.00000000  0.50000000  0.43964200  1
  Na  Na5  1  0.00000000  0.50000000  0.06035800  1
  Na  Na6  1  0.00000000  0.00000000  0.81035800  1
  Na  Na7  1  0.00000000  0.00000000  0.18964200  1
  Na  Na8  1  0.74728600  0.75000000  0.12500000  1
  Na  Na9  1  0.75000000  0.25271400  0.87500000  1
  Na  Na10  1  0.75000000  0.24728600  0.37500000  1
  Na  Na11  1  0.75271400  0.75000000  0.62500000  1
  Na  Na12  1  0.50000000  0.00000000  0.93964200  1
  Na  Na13  1  0.50000000  0.00000000  0.56035800  1
  Na  Na14  1  0.50000000  0.50000000  0.31035800  1
  Na  Na15  1  0.50000000  0.50000000  0.68964200  1
  Se  Se16  1  0.13925600  0.12124800  0.40407700  1
  Se  Se17  1  0.62124800  0.36074400  0.09592300  1
  Se  Se18  1  0.87875200  0.13925600  0.59592300  1
  Se  Se19  1  0.36074400  0.12124800  0.34592300  1
  Se  Se20  1  0.63925600  0.87875200  0.34592300  1
  Se  Se21  1  0.36074400  0.37875200  0.90407700  1
  Se  Se22  1  0.62124800  0.13925600  0.15407700  1
  Se  Se23  1  0.37875200  0.86074400  0.15407700  1
  Se  Se24  1  0.22833700  0.98106100  0.04369700  1
  Se  Se25  1  0.77166300  0.01893900  0.04369700  1
  Se  Se26  1  0.48106100  0.22833700  0.79369700  1
  Se  Se27  1  0.51893900  0.72833700  0.45630300  1
  Se  Se28  1  0.48106100  0.27166300  0.45630300  1
  Se  Se29  1  0.22833700  0.51893900  0.20630300  1
  Se  Se30  1  0.27166300  0.98106100  0.70630300  1
  Se  Se31  1  0.01893900  0.27166300  0.29369700  1
  Se  Se32  1  0.63925600  0.62124800  0.90407700  1
  Se  Se33  1  0.12124800  0.86074400  0.59592300  1
  Se  Se34  1  0.37875200  0.63925600  0.09592300  1
  Se  Se35  1  0.86074400  0.62124800  0.84592300  1
  Se  Se36  1  0.13925600  0.37875200  0.84592300  1
  Se  Se37  1  0.86074400  0.87875200  0.40407700  1
  Se  Se38  1  0.12124800  0.63925600  0.65407700  1
  Se  Se39  1  0.87875200  0.36074400  0.65407700  1
  Se  Se40  1  0.72833700  0.48106100  0.54369700  1
  Se  Se41  1  0.27166300  0.51893900  0.54369700  1
  Se  Se42  1  0.98106100  0.72833700  0.29369700  1
  Se  Se43  1  0.01893900  0.22833700  0.95630300  1
  Se  Se44  1  0.98106100  0.77166300  0.95630300  1
  Se  Se45  1  0.72833700  0.01893900  0.70630300  1
  Se  Se46  1  0.77166300  0.48106100  0.20630300  1
  Se  Se47  1  0.51893900  0.77166300  0.79369700  1
