# generated using pymatgen
data_Ba2ThCu2Se5
_symmetry_space_group_name_H-M   'P 1'
_cell_length_a   14.28431600
_cell_length_b   4.30277800
_cell_length_c   9.85832859
_cell_angle_alpha   90.00000000
_cell_angle_beta   115.79172325
_cell_angle_gamma   90.00000000
_symmetry_Int_Tables_number   1
_chemical_formula_structural   Ba2ThCu2Se5
_chemical_formula_sum   'Ba4 Th2 Cu4 Se10'
_cell_volume   545.55470509
_cell_formula_units_Z   2
loop_
 _symmetry_equiv_pos_site_id
 _symmetry_equiv_pos_as_xyz
  1  'x, y, z'
loop_
 _atom_site_type_symbol
 _atom_site_label
 _atom_site_symmetry_multiplicity
 _atom_site_fract_x
 _atom_site_fract_y
 _atom_site_fract_z
 _atom_site_occupancy
  Ba  Ba0  1  0.82556900  0.00000000  0.30643200  1
  Ba  Ba1  1  0.17443100  0.00000000  0.69356800  1
  Ba  Ba2  1  0.32556900  0.50000000  0.30643200  1
  Ba  Ba3  1  0.67443100  0.50000000  0.69356800  1
  Th  Th4  1  0.00000000  0.00000000  0.00000000  1
  Th  Th5  1  0.50000000  0.50000000  0.00000000  1
  Cu  Cu6  1  0.94690100  0.50000000  0.70875800  1
  Cu  Cu7  1  0.05309900  0.50000000  0.29124200  1
  Cu  Cu8  1  0.44690100  0.00000000  0.70875800  1
  Cu  Cu9  1  0.55309900  0.00000000  0.29124200  1
  Se  Se10  1  0.85077600  0.00000000  0.68572400  1
  Se  Se11  1  0.14922400  0.00000000  0.31427600  1
  Se  Se12  1  0.11709400  0.50000000  0.93573300  1
  Se  Se13  1  0.88290600  0.50000000  0.06426700  1
  Se  Se14  1  0.00000000  0.50000000  0.50000000  1
  Se  Se15  1  0.35077600  0.50000000  0.68572400  1
  Se  Se16  1  0.64922400  0.50000000  0.31427600  1
  Se  Se17  1  0.61709400  0.00000000  0.93573300  1
  Se  Se18  1  0.38290600  0.00000000  0.06426700  1
  Se  Se19  1  0.50000000  0.00000000  0.50000000  1
