# generated using pymatgen
data_BaWO4
_symmetry_space_group_name_H-M   'P 1'
_cell_length_a   5.74342800
_cell_length_b   5.74342800
_cell_length_c   12.87571000
_cell_angle_alpha   90.00000000
_cell_angle_beta   90.00000000
_cell_angle_gamma   90.00000000
_symmetry_Int_Tables_number   1
_chemical_formula_structural   BaWO4
_chemical_formula_sum   'Ba4 W4 O16'
_cell_volume   424.73059758
_cell_formula_units_Z   4
loop_
 _symmetry_equiv_pos_site_id
 _symmetry_equiv_pos_as_xyz
  1  'x, y, z'
loop_
 _atom_site_type_symbol
 _atom_site_label
 _atom_site_symmetry_multiplicity
 _atom_site_fract_x
 _atom_site_fract_y
 _atom_site_fract_z
 _atom_site_occupancy
  Ba  Ba0  1  0.00000000  0.00000000  0.50000000  1
  Ba  Ba1  1  0.50000000  0.00000000  0.25000000  1
  Ba  Ba2  1  0.50000000  0.50000000  0.00000000  1
  Ba  Ba3  1  0.00000000  0.50000000  0.75000000  1
  W  W4  1  0.50000000  0.50000000  0.50000000  1
  W  W5  1  0.00000000  0.50000000  0.25000000  1
  W  W6  1  0.00000000  0.00000000  0.00000000  1
  W  W7  1  0.50000000  0.00000000  0.75000000  1
  O  O8  1  0.12604550  0.73173750  0.32874250  1
  O  O9  1  0.26826250  0.62604550  0.57874250  1
  O  O10  1  0.73173750  0.37395450  0.57874250  1
  O  O11  1  0.87395450  0.26826250  0.32874250  1
  O  O12  1  0.62604550  0.73173750  0.42125750  1
  O  O13  1  0.76826250  0.62604550  0.17125750  1
  O  O14  1  0.23173750  0.37395450  0.17125750  1
  O  O15  1  0.37395450  0.26826250  0.42125750  1
  O  O16  1  0.62604550  0.23173750  0.82874250  1
  O  O17  1  0.76826250  0.12604550  0.07874250  1
  O  O18  1  0.23173750  0.87395450  0.07874250  1
  O  O19  1  0.37395450  0.76826250  0.82874250  1
  O  O20  1  0.12604550  0.23173750  0.92125750  1
  O  O21  1  0.26826250  0.12604550  0.67125750  1
  O  O22  1  0.73173750  0.87395450  0.67125750  1
  O  O23  1  0.87395450  0.76826250  0.92125750  1
