# generated using pymatgen
data_RbEr2Cu3S5
_symmetry_space_group_name_H-M   'P 1'
_cell_length_a   3.93311600
_cell_length_b   13.91361800
_cell_length_c   16.43336000
_cell_angle_alpha   90.00000000
_cell_angle_beta   90.00000000
_cell_angle_gamma   90.00000000
_symmetry_Int_Tables_number   1
_chemical_formula_structural   RbEr2Cu3S5
_chemical_formula_sum   'Rb4 Er8 Cu12 S20'
_cell_volume   899.29711503
_cell_formula_units_Z   4
loop_
 _symmetry_equiv_pos_site_id
 _symmetry_equiv_pos_as_xyz
  1  'x, y, z'
loop_
 _atom_site_type_symbol
 _atom_site_label
 _atom_site_symmetry_multiplicity
 _atom_site_fract_x
 _atom_site_fract_y
 _atom_site_fract_z
 _atom_site_occupancy
  Rb  Rb0  1  0.00000000  0.43452300  0.25000000  1
  Rb  Rb1  1  0.50000000  0.06547700  0.75000000  1
  Rb  Rb2  1  0.50000000  0.93452300  0.25000000  1
  Rb  Rb3  1  0.00000000  0.56547700  0.75000000  1
  Er  Er4  1  0.50000000  0.19208200  0.09285700  1
  Er  Er5  1  0.00000000  0.30791800  0.90714300  1
  Er  Er6  1  0.50000000  0.19208200  0.40714300  1
  Er  Er7  1  0.00000000  0.30791800  0.59285700  1
  Er  Er8  1  0.00000000  0.69208200  0.09285700  1
  Er  Er9  1  0.50000000  0.80791800  0.90714300  1
  Er  Er10  1  0.00000000  0.69208200  0.40714300  1
  Er  Er11  1  0.50000000  0.80791800  0.59285700  1
  Cu  Cu12  1  0.50000000  0.41601200  0.46344400  1
  Cu  Cu13  1  0.00000000  0.08398800  0.53655600  1
  Cu  Cu14  1  0.00000000  0.08398800  0.96344400  1
  Cu  Cu15  1  0.00000000  0.15471700  0.25000000  1
  Cu  Cu16  1  0.50000000  0.34528300  0.75000000  1
  Cu  Cu17  1  0.50000000  0.41601200  0.03655600  1
  Cu  Cu18  1  0.00000000  0.91601200  0.46344400  1
  Cu  Cu19  1  0.50000000  0.58398800  0.53655600  1
  Cu  Cu20  1  0.50000000  0.58398800  0.96344400  1
  Cu  Cu21  1  0.50000000  0.65471700  0.25000000  1
  Cu  Cu22  1  0.00000000  0.84528300  0.75000000  1
  Cu  Cu23  1  0.00000000  0.91601200  0.03655600  1
  S  S24  1  0.00000000  0.33166100  0.06939900  1
  S  S25  1  0.50000000  0.16833900  0.93060100  1
  S  S26  1  0.50000000  0.16833900  0.56939900  1
  S  S27  1  0.00000000  0.33166100  0.43060100  1
  S  S28  1  0.00000000  0.26182500  0.75000000  1
  S  S29  1  0.50000000  0.23817500  0.25000000  1
  S  S30  1  0.50000000  0.43809900  0.61330200  1
  S  S31  1  0.50000000  0.43809900  0.88669800  1
  S  S32  1  0.00000000  0.06190100  0.38669800  1
  S  S33  1  0.00000000  0.06190100  0.11330200  1
  S  S34  1  0.50000000  0.83166100  0.06939900  1
  S  S35  1  0.00000000  0.66833900  0.93060100  1
  S  S36  1  0.00000000  0.66833900  0.56939900  1
  S  S37  1  0.50000000  0.83166100  0.43060100  1
  S  S38  1  0.50000000  0.76182500  0.75000000  1
  S  S39  1  0.00000000  0.73817500  0.25000000  1
  S  S40  1  0.00000000  0.93809900  0.61330200  1
  S  S41  1  0.00000000  0.93809900  0.88669800  1
  S  S42  1  0.50000000  0.56190100  0.38669800  1
  S  S43  1  0.50000000  0.56190100  0.11330200  1
