# generated using pymatgen
data_Na2Ge2S5
_symmetry_space_group_name_H-M   'P 1'
_cell_length_a   12.96298400
_cell_length_b   13.18540200
_cell_length_c   10.71704200
_cell_angle_alpha   90.00000000
_cell_angle_beta   90.00000000
_cell_angle_gamma   90.00000000
_symmetry_Int_Tables_number   1
_chemical_formula_structural   Na2Ge2S5
_chemical_formula_sum   'Na16 Ge16 S40'
_cell_volume   1831.77991558
_cell_formula_units_Z   8
loop_
 _symmetry_equiv_pos_site_id
 _symmetry_equiv_pos_as_xyz
  1  'x, y, z'
loop_
 _atom_site_type_symbol
 _atom_site_label
 _atom_site_symmetry_multiplicity
 _atom_site_fract_x
 _atom_site_fract_y
 _atom_site_fract_z
 _atom_site_occupancy
  Na  Na0  1  0.66452500  0.75612400  0.75000000  1
  Na  Na1  1  0.33547500  0.24387600  0.25000000  1
  Na  Na2  1  0.66452500  0.24387600  0.25000000  1
  Na  Na3  1  0.33547500  0.75612400  0.75000000  1
  Na  Na4  1  0.14710900  0.00000000  0.50000000  1
  Na  Na5  1  0.85289100  0.00000000  0.00000000  1
  Na  Na6  1  0.85289100  0.00000000  0.50000000  1
  Na  Na7  1  0.14710900  0.00000000  0.00000000  1
  Na  Na8  1  0.16452500  0.25612400  0.75000000  1
  Na  Na9  1  0.83547500  0.74387600  0.25000000  1
  Na  Na10  1  0.16452500  0.74387600  0.25000000  1
  Na  Na11  1  0.83547500  0.25612400  0.75000000  1
  Na  Na12  1  0.64710900  0.50000000  0.50000000  1
  Na  Na13  1  0.35289100  0.50000000  0.00000000  1
  Na  Na14  1  0.35289100  0.50000000  0.50000000  1
  Na  Na15  1  0.64710900  0.50000000  0.00000000  1
  Ge  Ge16  1  0.36098600  0.04805900  0.75000000  1
  Ge  Ge17  1  0.63901400  0.95194100  0.25000000  1
  Ge  Ge18  1  0.36098600  0.95194100  0.25000000  1
  Ge  Ge19  1  0.63901400  0.04805900  0.75000000  1
  Ge  Ge20  1  0.50000000  0.24484400  0.58148500  1
  Ge  Ge21  1  0.50000000  0.75515600  0.08148500  1
  Ge  Ge22  1  0.50000000  0.75515600  0.41851500  1
  Ge  Ge23  1  0.50000000  0.24484400  0.91851500  1
  Ge  Ge24  1  0.86098600  0.54805900  0.75000000  1
  Ge  Ge25  1  0.13901400  0.45194100  0.25000000  1
  Ge  Ge26  1  0.86098600  0.45194100  0.25000000  1
  Ge  Ge27  1  0.13901400  0.54805900  0.75000000  1
  Ge  Ge28  1  0.00000000  0.74484400  0.58148500  1
  Ge  Ge29  1  0.00000000  0.25515600  0.08148500  1
  Ge  Ge30  1  0.00000000  0.25515600  0.41851500  1
  Ge  Ge31  1  0.00000000  0.74484400  0.91851500  1
  S  S32  1  0.50000000  0.94702550  0.75000000  1
  S  S33  1  0.50000000  0.05297450  0.25000000  1
  S  S34  1  0.64549550  0.14930250  0.92103300  1
  S  S35  1  0.35450450  0.85069750  0.42103300  1
  S  S36  1  0.64549550  0.85069750  0.07896700  1
  S  S37  1  0.35450450  0.14930250  0.57896700  1
  S  S38  1  0.35450450  0.85069750  0.07896700  1
  S  S39  1  0.64549550  0.14930250  0.57896700  1
  S  S40  1  0.35450450  0.14930250  0.92103300  1
  S  S41  1  0.64549550  0.85069750  0.42103300  1
  S  S42  1  0.50000000  0.34620200  0.75000000  1
  S  S43  1  0.50000000  0.65379800  0.25000000  1
  S  S44  1  0.50000000  0.34119500  0.08254700  1
  S  S45  1  0.50000000  0.65880500  0.58254700  1
  S  S46  1  0.50000000  0.65880500  0.91745300  1
  S  S47  1  0.50000000  0.34119500  0.41745300  1
  S  S48  1  0.77504150  0.95413750  0.75000000  1
  S  S49  1  0.22495850  0.04586250  0.25000000  1
  S  S50  1  0.77504150  0.04586250  0.25000000  1
  S  S51  1  0.22495850  0.95413750  0.75000000  1
  S  S52  1  0.00000000  0.44702550  0.75000000  1
  S  S53  1  0.00000000  0.55297450  0.25000000  1
  S  S54  1  0.14549550  0.64930250  0.92103300  1
  S  S55  1  0.85450450  0.35069750  0.42103300  1
  S  S56  1  0.14549550  0.35069750  0.07896700  1
  S  S57  1  0.85450450  0.64930250  0.57896700  1
  S  S58  1  0.85450450  0.35069750  0.07896700  1
  S  S59  1  0.14549550  0.64930250  0.57896700  1
  S  S60  1  0.85450450  0.64930250  0.92103300  1
  S  S61  1  0.14549550  0.35069750  0.42103300  1
  S  S62  1  0.00000000  0.84620200  0.75000000  1
  S  S63  1  0.00000000  0.15379800  0.25000000  1
  S  S64  1  0.00000000  0.84119500  0.08254700  1
  S  S65  1  0.00000000  0.15880500  0.58254700  1
  S  S66  1  0.00000000  0.15880500  0.91745300  1
  S  S67  1  0.00000000  0.84119500  0.41745300  1
  S  S68  1  0.27504150  0.45413750  0.75000000  1
  S  S69  1  0.72495850  0.54586250  0.25000000  1
  S  S70  1  0.27504150  0.54586250  0.25000000  1
  S  S71  1  0.72495850  0.45413750  0.75000000  1
