# generated using pymatgen
data_Ba2HgS3
_symmetry_space_group_name_H-M   'P 1'
_cell_length_a   4.40863700
_cell_length_b   9.06836900
_cell_length_c   17.53796700
_cell_angle_alpha   90.00000000
_cell_angle_beta   90.00000000
_cell_angle_gamma   90.00000000
_symmetry_Int_Tables_number   1
_chemical_formula_structural   Ba2HgS3
_chemical_formula_sum   'Ba8 Hg4 S12'
_cell_volume   701.15296258
_cell_formula_units_Z   4
loop_
 _symmetry_equiv_pos_site_id
 _symmetry_equiv_pos_as_xyz
  1  'x, y, z'
loop_
 _atom_site_type_symbol
 _atom_site_label
 _atom_site_symmetry_multiplicity
 _atom_site_fract_x
 _atom_site_fract_y
 _atom_site_fract_z
 _atom_site_occupancy
  Ba  Ba0  1  0.25000000  0.25994300  0.03934000  1
  Ba  Ba1  1  0.25000000  0.42215500  0.78384900  1
  Ba  Ba2  1  0.75000000  0.07784500  0.28384900  1
  Ba  Ba3  1  0.25000000  0.92215500  0.71615100  1
  Ba  Ba4  1  0.25000000  0.75994300  0.46066000  1
  Ba  Ba5  1  0.75000000  0.24005700  0.53934000  1
  Ba  Ba6  1  0.75000000  0.74005700  0.96066000  1
  Ba  Ba7  1  0.75000000  0.57784500  0.21615100  1
  Hg  Hg8  1  0.75000000  0.62380000  0.63302700  1
  Hg  Hg9  1  0.25000000  0.37620000  0.36697300  1
  Hg  Hg10  1  0.75000000  0.12380000  0.86697300  1
  Hg  Hg11  1  0.25000000  0.87620000  0.13302700  1
  S  S12  1  0.25000000  0.81452900  0.27771200  1
  S  S13  1  0.75000000  0.18547100  0.72228800  1
  S  S14  1  0.25000000  0.31452900  0.22228800  1
  S  S15  1  0.75000000  0.68547100  0.77771200  1
  S  S16  1  0.25000000  0.98348500  0.90375800  1
  S  S17  1  0.75000000  0.01651500  0.09624200  1
  S  S18  1  0.25000000  0.48348500  0.59624200  1
  S  S19  1  0.75000000  0.51651500  0.40375800  1
  S  S20  1  0.25000000  0.61756300  0.07175000  1
  S  S21  1  0.75000000  0.88243700  0.57175000  1
  S  S22  1  0.25000000  0.11756300  0.42825000  1
  S  S23  1  0.75000000  0.38243700  0.92825000  1
