# generated using pymatgen
data_Cs2AgBiBr6
_symmetry_space_group_name_H-M   'P 1'
_cell_length_a   11.48829600
_cell_length_b   11.48829600
_cell_length_c   11.48829600
_cell_angle_alpha   90.00000000
_cell_angle_beta   90.00000000
_cell_angle_gamma   90.00000000
_symmetry_Int_Tables_number   1
_chemical_formula_structural   Cs2AgBiBr6
_chemical_formula_sum   'Cs8 Ag4 Bi4 Br24'
_cell_volume   1516.23616233
_cell_formula_units_Z   4
loop_
 _symmetry_equiv_pos_site_id
 _symmetry_equiv_pos_as_xyz
  1  'x, y, z'
loop_
 _atom_site_type_symbol
 _atom_site_label
 _atom_site_symmetry_multiplicity
 _atom_site_fract_x
 _atom_site_fract_y
 _atom_site_fract_z
 _atom_site_occupancy
  Cs  Cs0  1  0.25000000  0.25000000  0.75000000  1
  Cs  Cs1  1  0.25000000  0.75000000  0.75000000  1
  Cs  Cs2  1  0.25000000  0.75000000  0.25000000  1
  Cs  Cs3  1  0.25000000  0.25000000  0.25000000  1
  Cs  Cs4  1  0.75000000  0.25000000  0.25000000  1
  Cs  Cs5  1  0.75000000  0.75000000  0.25000000  1
  Cs  Cs6  1  0.75000000  0.75000000  0.75000000  1
  Cs  Cs7  1  0.75000000  0.25000000  0.75000000  1
  Ag  Ag8  1  0.50000000  0.00000000  0.00000000  1
  Ag  Ag9  1  0.50000000  0.50000000  0.50000000  1
  Ag  Ag10  1  0.00000000  0.00000000  0.50000000  1
  Ag  Ag11  1  0.00000000  0.50000000  0.00000000  1
  Bi  Bi12  1  0.00000000  0.00000000  0.00000000  1
  Bi  Bi13  1  0.00000000  0.50000000  0.50000000  1
  Bi  Bi14  1  0.50000000  0.00000000  0.50000000  1
  Bi  Bi15  1  0.50000000  0.50000000  0.00000000  1
  Br  Br16  1  0.25080600  0.00000000  0.00000000  1
  Br  Br17  1  0.50000000  0.00000000  0.75080600  1
  Br  Br18  1  0.74919400  0.00000000  0.00000000  1
  Br  Br19  1  0.50000000  0.75080600  0.00000000  1
  Br  Br20  1  0.50000000  0.24919400  0.00000000  1
  Br  Br21  1  0.00000000  0.00000000  0.74919400  1
  Br  Br22  1  0.25080600  0.50000000  0.50000000  1
  Br  Br23  1  0.50000000  0.50000000  0.25080600  1
  Br  Br24  1  0.74919400  0.50000000  0.50000000  1
  Br  Br25  1  0.50000000  0.25080600  0.50000000  1
  Br  Br26  1  0.50000000  0.74919400  0.50000000  1
  Br  Br27  1  0.00000000  0.50000000  0.24919400  1
  Br  Br28  1  0.75080600  0.00000000  0.50000000  1
  Br  Br29  1  0.00000000  0.00000000  0.25080600  1
  Br  Br30  1  0.24919400  0.00000000  0.50000000  1
  Br  Br31  1  0.00000000  0.75080600  0.50000000  1
  Br  Br32  1  0.00000000  0.24919400  0.50000000  1
  Br  Br33  1  0.50000000  0.00000000  0.24919400  1
  Br  Br34  1  0.75080600  0.50000000  0.00000000  1
  Br  Br35  1  0.00000000  0.50000000  0.75080600  1
  Br  Br36  1  0.24919400  0.50000000  0.00000000  1
  Br  Br37  1  0.00000000  0.25080600  0.00000000  1
  Br  Br38  1  0.00000000  0.74919400  0.00000000  1
  Br  Br39  1  0.50000000  0.50000000  0.74919400  1
