# generated using pymatgen
data_ZnCu2GeSe4
_symmetry_space_group_name_H-M   'P 1'
_cell_length_a   5.65282800
_cell_length_b   5.65282800
_cell_length_c   11.29085200
_cell_angle_alpha   90.00000000
_cell_angle_beta   90.00000000
_cell_angle_gamma   90.00000000
_symmetry_Int_Tables_number   1
_chemical_formula_structural   ZnCu2GeSe4
_chemical_formula_sum   'Zn2 Cu4 Ge2 Se8'
_cell_volume   360.79312825
_cell_formula_units_Z   2
loop_
 _symmetry_equiv_pos_site_id
 _symmetry_equiv_pos_as_xyz
  1  'x, y, z'
loop_
 _atom_site_type_symbol
 _atom_site_label
 _atom_site_symmetry_multiplicity
 _atom_site_fract_x
 _atom_site_fract_y
 _atom_site_fract_z
 _atom_site_occupancy
  Zn  Zn0  1  0.00000000  0.00000000  0.00000000  1
  Zn  Zn1  1  0.50000000  0.50000000  0.50000000  1
  Cu  Cu2  1  0.00000000  0.50000000  0.25000000  1
  Cu  Cu3  1  0.50000000  0.00000000  0.25000000  1
  Cu  Cu4  1  0.50000000  0.00000000  0.75000000  1
  Cu  Cu5  1  0.00000000  0.50000000  0.75000000  1
  Ge  Ge6  1  0.50000000  0.50000000  0.00000000  1
  Ge  Ge7  1  0.00000000  0.00000000  0.50000000  1
  Se  Se8  1  0.74557750  0.25442250  0.13006350  1
  Se  Se9  1  0.75442250  0.75442250  0.36993650  1
  Se  Se10  1  0.24557750  0.24557750  0.36993650  1
  Se  Se11  1  0.25442250  0.74557750  0.13006350  1
  Se  Se12  1  0.24557750  0.75442250  0.63006350  1
  Se  Se13  1  0.25442250  0.25442250  0.86993650  1
  Se  Se14  1  0.74557750  0.74557750  0.86993650  1
  Se  Se15  1  0.75442250  0.24557750  0.63006350  1
