# generated using pymatgen
data_Na2Sn2Se5
_symmetry_space_group_name_H-M   'P 1'
_cell_length_a   11.87059500
_cell_length_b   12.70977000
_cell_length_c   14.30867400
_cell_angle_alpha   90.00000000
_cell_angle_beta   90.00000000
_cell_angle_gamma   90.00000000
_symmetry_Int_Tables_number   1
_chemical_formula_structural   Na2Sn2Se5
_chemical_formula_sum   'Na16 Sn16 Se40'
_cell_volume   2158.78587899
_cell_formula_units_Z   8
loop_
 _symmetry_equiv_pos_site_id
 _symmetry_equiv_pos_as_xyz
  1  'x, y, z'
loop_
 _atom_site_type_symbol
 _atom_site_label
 _atom_site_symmetry_multiplicity
 _atom_site_fract_x
 _atom_site_fract_y
 _atom_site_fract_z
 _atom_site_occupancy
  Na  Na0  1  0.75016300  0.75436800  0.71280500  1
  Na  Na1  1  0.25016300  0.24563200  0.78719500  1
  Na  Na2  1  0.74983700  0.25436800  0.28719500  1
  Na  Na3  1  0.24983700  0.74563200  0.21280500  1
  Na  Na4  1  0.24983700  0.24563200  0.28719500  1
  Na  Na5  1  0.74983700  0.75436800  0.21280500  1
  Na  Na6  1  0.25016300  0.74563200  0.71280500  1
  Na  Na7  1  0.75016300  0.25436800  0.78719500  1
  Na  Na8  1  0.00533600  0.50120100  0.76141000  1
  Na  Na9  1  0.50533600  0.49879900  0.73859000  1
  Na  Na10  1  0.49466400  0.00120100  0.23859000  1
  Na  Na11  1  0.99466400  0.99879900  0.26141000  1
  Na  Na12  1  0.99466400  0.49879900  0.23859000  1
  Na  Na13  1  0.49466400  0.50120100  0.26141000  1
  Na  Na14  1  0.50533600  0.99879900  0.76141000  1
  Na  Na15  1  0.00533600  0.00120100  0.73859000  1
  Sn  Sn16  1  0.55637300  0.71887000  0.94562700  1
  Sn  Sn17  1  0.76526100  0.46819800  0.52793700  1
  Sn  Sn18  1  0.26526100  0.53180200  0.97206300  1
  Sn  Sn19  1  0.73473900  0.96819800  0.47206300  1
  Sn  Sn20  1  0.23473900  0.03180200  0.02793700  1
  Sn  Sn21  1  0.23473900  0.53180200  0.47206300  1
  Sn  Sn22  1  0.73473900  0.46819800  0.02793700  1
  Sn  Sn23  1  0.26526100  0.03180200  0.52793700  1
  Sn  Sn24  1  0.76526100  0.96819800  0.97206300  1
  Sn  Sn25  1  0.55637300  0.21887000  0.55437300  1
  Sn  Sn26  1  0.05637300  0.78113000  0.94562700  1
  Sn  Sn27  1  0.94362700  0.71887000  0.44562700  1
  Sn  Sn28  1  0.44362700  0.28113000  0.05437300  1
  Sn  Sn29  1  0.44362700  0.78113000  0.44562700  1
  Sn  Sn30  1  0.94362700  0.21887000  0.05437300  1
  Sn  Sn31  1  0.05637300  0.28113000  0.55437300  1
  Se  Se32  1  0.07072800  0.62065800  0.56453200  1
  Se  Se33  1  0.00216400  0.25192400  0.72062400  1
  Se  Se34  1  0.50216400  0.74807600  0.77937600  1
  Se  Se35  1  0.49783600  0.75192400  0.27937600  1
  Se  Se36  1  0.99783600  0.24807600  0.22062400  1
  Se  Se37  1  0.99783600  0.74807600  0.27937600  1
  Se  Se38  1  0.49783600  0.25192400  0.22062400  1
  Se  Se39  1  0.50216400  0.24807600  0.72062400  1
  Se  Se40  1  0.00216400  0.75192400  0.77937600  1
  Se  Se41  1  0.75921000  0.99903900  0.79960500  1
  Se  Se42  1  0.25921000  0.00096100  0.70039500  1
  Se  Se43  1  0.74079000  0.49903900  0.20039500  1
  Se  Se44  1  0.24079000  0.50096100  0.29960500  1
  Se  Se45  1  0.24079000  0.00096100  0.20039500  1
  Se  Se46  1  0.74079000  0.99903900  0.29960500  1
  Se  Se47  1  0.25921000  0.50096100  0.79960500  1
  Se  Se48  1  0.75704000  0.63789000  0.93016600  1
  Se  Se49  1  0.25704000  0.36211000  0.56983400  1
  Se  Se50  1  0.74296000  0.13789000  0.06983400  1
  Se  Se51  1  0.24296000  0.86211000  0.43016600  1
  Se  Se52  1  0.24296000  0.36211000  0.06983400  1
  Se  Se53  1  0.74296000  0.63789000  0.43016600  1
  Se  Se54  1  0.25704000  0.86211000  0.93016600  1
  Se  Se55  1  0.75704000  0.13789000  0.56983400  1
  Se  Se56  1  0.90620700  0.87882300  0.55414700  1
  Se  Se57  1  0.40620700  0.12117700  0.94585300  1
  Se  Se58  1  0.59379300  0.37882300  0.44585300  1
  Se  Se59  1  0.09379300  0.62117700  0.05414700  1
  Se  Se60  1  0.57072800  0.37934200  0.93546800  1
  Se  Se61  1  0.59379300  0.87882300  0.05414700  1
  Se  Se62  1  0.40620700  0.62117700  0.55414700  1
  Se  Se63  1  0.90620700  0.37882300  0.94585300  1
  Se  Se64  1  0.57072800  0.87934200  0.56453200  1
  Se  Se65  1  0.07072800  0.12065800  0.93546800  1
  Se  Se66  1  0.92927200  0.37934200  0.43546800  1
  Se  Se67  1  0.42927200  0.62065800  0.06453200  1
  Se  Se68  1  0.42927200  0.12065800  0.43546800  1
  Se  Se69  1  0.92927200  0.87934200  0.06453200  1
  Se  Se70  1  0.75921000  0.49903900  0.70039500  1
  Se  Se71  1  0.09379300  0.12117700  0.44585300  1
