# generated using pymatgen
data_K2SrBe2F8
_symmetry_space_group_name_H-M   'P 1'
_cell_length_a   5.49422582
_cell_length_b   5.49422582
_cell_length_c   20.74363934
_cell_angle_alpha   90.00000000
_cell_angle_beta   90.00000000
_cell_angle_gamma   120.00000000
_symmetry_Int_Tables_number   1
_chemical_formula_structural   K2SrBe2F8
_chemical_formula_sum   'K6 Sr3 Be6 F24'
_cell_volume   542.28625335
_cell_formula_units_Z   3
loop_
 _symmetry_equiv_pos_site_id
 _symmetry_equiv_pos_as_xyz
  1  'x, y, z'
loop_
 _atom_site_type_symbol
 _atom_site_label
 _atom_site_symmetry_multiplicity
 _atom_site_fract_x
 _atom_site_fract_y
 _atom_site_fract_z
 _atom_site_occupancy
  K  K0  1  0.00000000  0.00000000  0.20226300  1
  K  K1  1  0.66666667  0.33333333  0.13107033  1
  K  K2  1  0.66666667  0.33333333  0.53559633  1
  K  K3  1  0.33333333  0.66666667  0.46440367  1
  K  K4  1  0.33333333  0.66666667  0.86892967  1
  K  K5  1  0.00000000  0.00000000  0.79773700  1
  Sr  Sr6  1  0.00000000  0.00000000  0.00000000  1
  Sr  Sr7  1  0.66666667  0.33333333  0.33333333  1
  Sr  Sr8  1  0.33333333  0.66666667  0.66666667  1
  Be  Be9  1  0.33333333  0.66666667  0.26528267  1
  Be  Be10  1  0.33333333  0.66666667  0.06805067  1
  Be  Be11  1  0.00000000  0.00000000  0.59861600  1
  Be  Be12  1  0.00000000  0.00000000  0.40138400  1
  Be  Be13  1  0.66666667  0.33333333  0.93194933  1
  Be  Be14  1  0.66666667  0.33333333  0.73471733  1
  F  F15  1  0.48968233  0.51031767  0.24090467  1
  F  F16  1  0.02063533  0.51031767  0.24090467  1
  F  F17  1  0.48968233  0.97936467  0.24090467  1
  F  F18  1  0.00000000  0.00000000  0.32662100  1
  F  F19  1  0.66666667  0.33333333  0.00671233  1
  F  F20  1  0.64603133  0.82301567  0.09242867  1
  F  F21  1  0.17698433  0.35396867  0.09242867  1
  F  F22  1  0.17698433  0.82301567  0.09242867  1
  F  F23  1  0.15634900  0.84365100  0.57423800  1
  F  F24  1  0.68730200  0.84365100  0.57423800  1
  F  F25  1  0.15634900  0.31269800  0.57423800  1
  F  F26  1  0.66666667  0.33333333  0.65995433  1
  F  F27  1  0.33333333  0.66666667  0.34004567  1
  F  F28  1  0.31269800  0.15634900  0.42576200  1
  F  F29  1  0.84365100  0.68730200  0.42576200  1
  F  F30  1  0.84365100  0.15634900  0.42576200  1
  F  F31  1  0.82301567  0.17698433  0.90757133  1
  F  F32  1  0.35396867  0.17698433  0.90757133  1
  F  F33  1  0.82301567  0.64603133  0.90757133  1
  F  F34  1  0.33333333  0.66666667  0.99328767  1
  F  F35  1  0.00000000  0.00000000  0.67337900  1
  F  F36  1  0.97936467  0.48968233  0.75909533  1
  F  F37  1  0.51031767  0.02063533  0.75909533  1
  F  F38  1  0.51031767  0.48968233  0.75909533  1
