# generated using pymatgen
data_Na5Tb(WO4)4
_symmetry_space_group_name_H-M   'P 1'
_cell_length_a   11.73048000
_cell_length_b   11.73048000
_cell_length_c   11.61780200
_cell_angle_alpha   90.00000000
_cell_angle_beta   90.00000000
_cell_angle_gamma   90.00000000
_symmetry_Int_Tables_number   1
_chemical_formula_structural   Na5Tb(WO4)4
_chemical_formula_sum   'Na20 Tb4 W16 O64'
_cell_volume   1598.65789723
_cell_formula_units_Z   4
loop_
 _symmetry_equiv_pos_site_id
 _symmetry_equiv_pos_as_xyz
  1  'x, y, z'
loop_
 _atom_site_type_symbol
 _atom_site_label
 _atom_site_symmetry_multiplicity
 _atom_site_fract_x
 _atom_site_fract_y
 _atom_site_fract_z
 _atom_site_occupancy
  Na  Na0  1  0.79542900  0.12193800  0.28321200  1
  Na  Na1  1  0.12193800  0.70457100  0.03321200  1
  Na  Na2  1  0.87806200  0.29542900  0.03321200  1
  Na  Na3  1  0.20457100  0.87806200  0.28321200  1
  Na  Na4  1  0.70457100  0.87806200  0.96678800  1
  Na  Na5  1  0.37806200  0.29542900  0.21678800  1
  Na  Na6  1  0.62193800  0.70457100  0.21678800  1
  Na  Na7  1  0.29542900  0.12193800  0.96678800  1
  Na  Na8  1  0.00000000  0.00000000  0.00000000  1
  Na  Na9  1  0.50000000  0.00000000  0.25000000  1
  Na  Na10  1  0.29542900  0.62193800  0.78321200  1
  Na  Na11  1  0.62193800  0.20457100  0.53321200  1
  Na  Na12  1  0.37806200  0.79542900  0.53321200  1
  Na  Na13  1  0.70457100  0.37806200  0.78321200  1
  Na  Na14  1  0.20457100  0.37806200  0.46678800  1
  Na  Na15  1  0.87806200  0.79542900  0.71678800  1
  Na  Na16  1  0.12193800  0.20457100  0.71678800  1
  Na  Na17  1  0.79542900  0.62193800  0.46678800  1
  Na  Na18  1  0.50000000  0.50000000  0.50000000  1
  Na  Na19  1  0.00000000  0.50000000  0.75000000  1
  Tb  Tb20  1  0.00000000  0.00000000  0.50000000  1
  Tb  Tb21  1  0.50000000  0.00000000  0.75000000  1
  Tb  Tb22  1  0.50000000  0.50000000  0.00000000  1
  Tb  Tb23  1  0.00000000  0.50000000  0.25000000  1
  W  W24  1  0.09590850  0.18116550  0.23370150  1
  W  W25  1  0.18116550  0.40409150  0.98370150  1
  W  W26  1  0.31883450  0.09590850  0.48370150  1
  W  W27  1  0.40409150  0.31883450  0.73370150  1
  W  W28  1  0.40409150  0.81883450  0.01629850  1
  W  W29  1  0.31883450  0.59590850  0.26629850  1
  W  W30  1  0.18116550  0.90409150  0.76629850  1
  W  W31  1  0.09590850  0.68116550  0.51629850  1
  W  W32  1  0.59590850  0.68116550  0.73370150  1
  W  W33  1  0.68116550  0.90409150  0.48370150  1
  W  W34  1  0.81883450  0.59590850  0.98370150  1
  W  W35  1  0.90409150  0.81883450  0.23370150  1
  W  W36  1  0.90409150  0.31883450  0.51629850  1
  W  W37  1  0.81883450  0.09590850  0.76629850  1
  W  W38  1  0.68116550  0.40409150  0.26629850  1
  W  W39  1  0.59590850  0.18116550  0.01629850  1
  O  O40  1  0.58474000  0.81714900  0.81023700  1
  O  O41  1  0.31714900  0.41526000  0.06023700  1
  O  O42  1  0.68285100  0.58474000  0.06023700  1
  O  O43  1  0.41526000  0.18285100  0.81023700  1
  O  O44  1  0.91526000  0.18285100  0.43976300  1
  O  O45  1  0.18285100  0.58474000  0.18976300  1
  O  O46  1  0.81714900  0.41526000  0.18976300  1
  O  O47  1  0.08474000  0.81714900  0.43976300  1
  O  O48  1  0.11300200  0.06164900  0.33113100  1
  O  O49  1  0.06164900  0.38699800  0.08113100  1
  O  O50  1  0.43835100  0.11300200  0.58113100  1
  O  O51  1  0.88699800  0.93835100  0.33113100  1
  O  O52  1  0.38699800  0.93835100  0.91886900  1
  O  O53  1  0.43835100  0.61300200  0.16886900  1
  O  O54  1  0.06164900  0.88699800  0.66886900  1
  O  O55  1  0.61300200  0.06164900  0.91886900  1
  O  O56  1  0.97310150  0.14935150  0.14660750  1
  O  O57  1  0.14935150  0.52689850  0.89660750  1
  O  O58  1  0.35064850  0.97310150  0.39660750  1
  O  O59  1  0.02689850  0.85064850  0.14660750  1
  O  O60  1  0.21709350  0.67981550  0.60881350  1
  O  O61  1  0.17981550  0.78290650  0.85881350  1
  O  O62  1  0.32018450  0.71709350  0.35881350  1
  O  O63  1  0.28290650  0.82018450  0.10881350  1
  O  O64  1  0.28290650  0.32018450  0.64118650  1
  O  O65  1  0.32018450  0.21709350  0.39118650  1
  O  O66  1  0.17981550  0.28290650  0.89118650  1
  O  O67  1  0.21709350  0.17981550  0.14118650  1
  O  O68  1  0.47310150  0.14935150  0.10339250  1
  O  O69  1  0.14935150  0.02689850  0.85339250  1
  O  O70  1  0.35064850  0.47310150  0.35339250  1
  O  O71  1  0.52689850  0.85064850  0.10339250  1
  O  O72  1  0.08474000  0.31714900  0.31023700  1
  O  O73  1  0.81714900  0.91526000  0.56023700  1
  O  O74  1  0.18285100  0.08474000  0.56023700  1
  O  O75  1  0.91526000  0.68285100  0.31023700  1
  O  O76  1  0.41526000  0.68285100  0.93976300  1
  O  O77  1  0.68285100  0.08474000  0.68976300  1
  O  O78  1  0.31714900  0.91526000  0.68976300  1
  O  O79  1  0.58474000  0.31714900  0.93976300  1
  O  O80  1  0.61300200  0.56164900  0.83113100  1
  O  O81  1  0.56164900  0.88699800  0.58113100  1
  O  O82  1  0.93835100  0.61300200  0.08113100  1
  O  O83  1  0.38699800  0.43835100  0.83113100  1
  O  O84  1  0.88699800  0.43835100  0.41886900  1
  O  O85  1  0.93835100  0.11300200  0.66886900  1
  O  O86  1  0.56164900  0.38699800  0.16886900  1
  O  O87  1  0.11300200  0.56164900  0.41886900  1
  O  O88  1  0.47310150  0.64935150  0.64660750  1
  O  O89  1  0.64935150  0.02689850  0.39660750  1
  O  O90  1  0.85064850  0.47310150  0.89660750  1
  O  O91  1  0.52689850  0.35064850  0.64660750  1
  O  O92  1  0.71709350  0.17981550  0.10881350  1
  O  O93  1  0.67981550  0.28290650  0.35881350  1
  O  O94  1  0.82018450  0.21709350  0.85881350  1
  O  O95  1  0.78290650  0.32018450  0.60881350  1
  O  O96  1  0.78290650  0.82018450  0.14118650  1
  O  O97  1  0.82018450  0.71709350  0.89118650  1
  O  O98  1  0.67981550  0.78290650  0.39118650  1
  O  O99  1  0.71709350  0.67981550  0.64118650  1
  O  O100  1  0.97310150  0.64935150  0.60339250  1
  O  O101  1  0.64935150  0.52689850  0.35339250  1
  O  O102  1  0.85064850  0.97310150  0.85339250  1
  O  O103  1  0.02689850  0.35064850  0.60339250  1
