# generated using pymatgen
data_SrPdF4
_symmetry_space_group_name_H-M   'P 1'
_cell_length_a   5.92983800
_cell_length_b   5.92983800
_cell_length_c   10.81571800
_cell_angle_alpha   90.00000000
_cell_angle_beta   90.00000000
_cell_angle_gamma   90.00000000
_symmetry_Int_Tables_number   1
_chemical_formula_structural   SrPdF4
_chemical_formula_sum   'Sr4 Pd4 F16'
_cell_volume   380.31286173
_cell_formula_units_Z   4
loop_
 _symmetry_equiv_pos_site_id
 _symmetry_equiv_pos_as_xyz
  1  'x, y, z'
loop_
 _atom_site_type_symbol
 _atom_site_label
 _atom_site_symmetry_multiplicity
 _atom_site_fract_x
 _atom_site_fract_y
 _atom_site_fract_z
 _atom_site_occupancy
  Sr  Sr0  1  0.00000000  0.00000000  0.25000000  1
  Sr  Sr1  1  0.50000000  0.50000000  0.25000000  1
  Sr  Sr2  1  0.50000000  0.50000000  0.75000000  1
  Sr  Sr3  1  0.00000000  0.00000000  0.75000000  1
  Pd  Pd4  1  0.00000000  0.50000000  0.00000000  1
  Pd  Pd5  1  0.50000000  0.00000000  0.00000000  1
  Pd  Pd6  1  0.50000000  0.00000000  0.50000000  1
  Pd  Pd7  1  0.00000000  0.50000000  0.50000000  1
  F  F8  1  0.83068200  0.33068200  0.13218100  1
  F  F9  1  0.33068200  0.83068200  0.36781900  1
  F  F10  1  0.66931800  0.16931800  0.36781900  1
  F  F11  1  0.83068200  0.66931800  0.36781900  1
  F  F12  1  0.16931800  0.66931800  0.13218100  1
  F  F13  1  0.33068200  0.16931800  0.13218100  1
  F  F14  1  0.66931800  0.83068200  0.13218100  1
  F  F15  1  0.16931800  0.33068200  0.36781900  1
  F  F16  1  0.33068200  0.83068200  0.63218100  1
  F  F17  1  0.83068200  0.33068200  0.86781900  1
  F  F18  1  0.16931800  0.66931800  0.86781900  1
  F  F19  1  0.33068200  0.16931800  0.86781900  1
  F  F20  1  0.66931800  0.16931800  0.63218100  1
  F  F21  1  0.83068200  0.66931800  0.63218100  1
  F  F22  1  0.16931800  0.33068200  0.63218100  1
  F  F23  1  0.66931800  0.83068200  0.86781900  1
