# generated using pymatgen
data_CsNdZnTe3
_symmetry_space_group_name_H-M   'P 1'
_cell_length_a   4.52753600
_cell_length_b   17.34031600
_cell_length_c   12.04062500
_cell_angle_alpha   90.00000000
_cell_angle_beta   90.00000000
_cell_angle_gamma   90.00000000
_symmetry_Int_Tables_number   1
_chemical_formula_structural   CsNdZnTe3
_chemical_formula_sum   'Cs4 Nd4 Zn4 Te12'
_cell_volume   945.29628356
_cell_formula_units_Z   4
loop_
 _symmetry_equiv_pos_site_id
 _symmetry_equiv_pos_as_xyz
  1  'x, y, z'
loop_
 _atom_site_type_symbol
 _atom_site_label
 _atom_site_symmetry_multiplicity
 _atom_site_fract_x
 _atom_site_fract_y
 _atom_site_fract_z
 _atom_site_occupancy
  Cs  Cs0  1  0.50000000  0.24643400  0.25000000  1
  Cs  Cs1  1  0.00000000  0.25356600  0.75000000  1
  Cs  Cs2  1  0.00000000  0.74643400  0.25000000  1
  Cs  Cs3  1  0.50000000  0.75356600  0.75000000  1
  Nd  Nd4  1  0.00000000  0.00000000  0.50000000  1
  Nd  Nd5  1  0.00000000  0.00000000  0.00000000  1
  Nd  Nd6  1  0.50000000  0.50000000  0.50000000  1
  Nd  Nd7  1  0.50000000  0.50000000  0.00000000  1
  Zn  Zn8  1  0.00000000  0.46472100  0.25000000  1
  Zn  Zn9  1  0.50000000  0.03527900  0.75000000  1
  Zn  Zn10  1  0.50000000  0.96472100  0.25000000  1
  Zn  Zn11  1  0.00000000  0.53527900  0.75000000  1
  Te  Te12  1  0.00000000  0.37919400  0.06539800  1
  Te  Te13  1  0.50000000  0.12080600  0.93460200  1
  Te  Te14  1  0.50000000  0.43945500  0.75000000  1
  Te  Te15  1  0.00000000  0.06054500  0.25000000  1
  Te  Te16  1  0.00000000  0.37919400  0.43460200  1
  Te  Te17  1  0.50000000  0.12080600  0.56539800  1
  Te  Te18  1  0.50000000  0.87919400  0.06539800  1
  Te  Te19  1  0.00000000  0.62080600  0.93460200  1
  Te  Te20  1  0.00000000  0.93945500  0.75000000  1
  Te  Te21  1  0.50000000  0.56054500  0.25000000  1
  Te  Te22  1  0.50000000  0.87919400  0.43460200  1
  Te  Te23  1  0.00000000  0.62080600  0.56539800  1
