# generated using pymatgen
data_Rb2Ti(Si2O5)3
_symmetry_space_group_name_H-M   'P 1'
_cell_length_a   12.94580200
_cell_length_b   7.49267000
_cell_length_c   15.37896474
_cell_angle_alpha   90.00000000
_cell_angle_beta   105.29109587
_cell_angle_gamma   90.00000000
_symmetry_Int_Tables_number   1
_chemical_formula_structural   Rb2Ti(Si2O5)3
_chemical_formula_sum   'Rb8 Ti4 Si24 O60'
_cell_volume   1438.92848705
_cell_formula_units_Z   4
loop_
 _symmetry_equiv_pos_site_id
 _symmetry_equiv_pos_as_xyz
  1  'x, y, z'
loop_
 _atom_site_type_symbol
 _atom_site_label
 _atom_site_symmetry_multiplicity
 _atom_site_fract_x
 _atom_site_fract_y
 _atom_site_fract_z
 _atom_site_occupancy
  Rb  Rb0  1  0.72223900  0.86422000  0.68911300  1
  Rb  Rb1  1  0.72223900  0.13578000  0.18911300  1
  Rb  Rb2  1  0.24185000  0.12371600  0.02104500  1
  Rb  Rb3  1  0.24185000  0.87628400  0.52104500  1
  Rb  Rb4  1  0.22223900  0.36422000  0.68911300  1
  Rb  Rb5  1  0.22223900  0.63578000  0.18911300  1
  Rb  Rb6  1  0.74185000  0.62371600  0.02104500  1
  Rb  Rb7  1  0.74185000  0.37628400  0.52104500  1
  Ti  Ti8  1  0.45783500  0.76020500  0.09645100  1
  Ti  Ti9  1  0.45783500  0.23979500  0.59645100  1
  Ti  Ti10  1  0.95783500  0.26020500  0.09645100  1
  Ti  Ti11  1  0.95783500  0.73979500  0.59645100  1
  Si  Si12  1  0.51790500  0.93458000  0.45836800  1
  Si  Si13  1  0.51790500  0.06542000  0.95836800  1
  Si  Si14  1  0.18198400  0.17781500  0.25616000  1
  Si  Si15  1  0.18198400  0.82218500  0.75616000  1
  Si  Si16  1  0.74503800  0.89477200  0.44500200  1
  Si  Si17  1  0.74503800  0.10522800  0.94500200  1
  Si  Si18  1  0.41521400  0.05611700  0.25413200  1
  Si  Si19  1  0.41521400  0.94388300  0.75413200  1
  Si  Si20  1  0.95322800  0.96973200  0.93457200  1
  Si  Si21  1  0.95322800  0.03026800  0.43457200  1
  Si  Si22  1  0.50374550  0.42983750  0.24712800  1
  Si  Si23  1  0.50374550  0.57016250  0.74712800  1
  Si  Si24  1  0.01790500  0.43458000  0.45836800  1
  Si  Si25  1  0.01790500  0.56542000  0.95836800  1
  Si  Si26  1  0.68198400  0.67781500  0.25616000  1
  Si  Si27  1  0.68198400  0.32218500  0.75616000  1
  Si  Si28  1  0.24503800  0.39477200  0.44500200  1
  Si  Si29  1  0.24503800  0.60522800  0.94500200  1
  Si  Si30  1  0.91521400  0.55611700  0.25413200  1
  Si  Si31  1  0.91521400  0.44388300  0.75413200  1
  Si  Si32  1  0.45322800  0.46973200  0.93457200  1
  Si  Si33  1  0.45322800  0.53026800  0.43457200  1
  Si  Si34  1  0.00374550  0.92983750  0.24712800  1
  Si  Si35  1  0.00374550  0.07016250  0.74712800  1
  O  O36  1  0.30462050  0.73851750  0.02428900  1
  O  O37  1  0.30462050  0.26148250  0.52428900  1
  O  O38  1  0.40416250  0.89202750  0.18547400  1
  O  O39  1  0.40416250  0.10797250  0.68547400  1
  O  O40  1  0.93978000  0.02953400  0.15640600  1
  O  O41  1  0.93978000  0.97046600  0.65640600  1
  O  O42  1  0.47222350  0.98395550  0.03715100  1
  O  O43  1  0.47222350  0.01604450  0.53715100  1
  O  O44  1  0.51887550  0.71565850  0.46615500  1
  O  O45  1  0.51887550  0.28434150  0.96615500  1
  O  O46  1  0.60501200  0.77863200  0.17103100  1
  O  O47  1  0.60501200  0.22136800  0.67103100  1
  O  O48  1  0.13396650  0.97925850  0.27288400  1
  O  O49  1  0.13396650  0.02074150  0.77288400  1
  O  O50  1  0.64377350  0.99584450  0.47073200  1
  O  O51  1  0.64377350  0.00415550  0.97073200  1
  O  O52  1  0.69816700  0.79510100  0.34805300  1
  O  O53  1  0.69816700  0.20489900  0.84805300  1
  O  O54  1  0.50516300  0.62902200  0.00201300  1
  O  O55  1  0.50516300  0.37097800  0.50201300  1
  O  O56  1  0.50071700  0.79009200  0.73987900  1
  O  O57  1  0.50071700  0.20990800  0.23987900  1
  O  O58  1  0.44527000  0.00890000  0.85877300  1
  O  O59  1  0.44527000  0.99110000  0.35877300  1
  O  O60  1  0.95423400  0.01083600  0.83026500  1
  O  O61  1  0.95423400  0.98916400  0.33026500  1
  O  O62  1  0.82462700  0.05966800  0.43064100  1
  O  O63  1  0.82462700  0.94033200  0.93064100  1
  O  O64  1  0.29736950  0.84580550  0.73318500  1
  O  O65  1  0.29736950  0.15419450  0.23318500  1
  O  O66  1  0.80462050  0.23851750  0.02428900  1
  O  O67  1  0.80462050  0.76148250  0.52428900  1
  O  O68  1  0.90416250  0.39202750  0.18547400  1
  O  O69  1  0.90416250  0.60797250  0.68547400  1
  O  O70  1  0.43978000  0.52953400  0.15640600  1
  O  O71  1  0.43978000  0.47046600  0.65640600  1
  O  O72  1  0.97222350  0.48395550  0.03715100  1
  O  O73  1  0.97222350  0.51604450  0.53715100  1
  O  O74  1  0.01887550  0.21565850  0.46615500  1
  O  O75  1  0.01887550  0.78434150  0.96615500  1
  O  O76  1  0.10501200  0.27863200  0.17103100  1
  O  O77  1  0.10501200  0.72136800  0.67103100  1
  O  O78  1  0.63396650  0.47925850  0.27288400  1
  O  O79  1  0.63396650  0.52074150  0.77288400  1
  O  O80  1  0.14377350  0.49584450  0.47073200  1
  O  O81  1  0.14377350  0.50415550  0.97073200  1
  O  O82  1  0.19816700  0.29510100  0.34805300  1
  O  O83  1  0.19816700  0.70489900  0.84805300  1
  O  O84  1  0.00516300  0.12902200  0.00201300  1
  O  O85  1  0.00516300  0.87097800  0.50201300  1
  O  O86  1  0.00071700  0.29009200  0.73987900  1
  O  O87  1  0.00071700  0.70990800  0.23987900  1
  O  O88  1  0.94527000  0.50890000  0.85877300  1
  O  O89  1  0.94527000  0.49110000  0.35877300  1
  O  O90  1  0.45423400  0.51083600  0.83026500  1
  O  O91  1  0.45423400  0.48916400  0.33026500  1
  O  O92  1  0.32462700  0.55966800  0.43064100  1
  O  O93  1  0.32462700  0.44033200  0.93064100  1
  O  O94  1  0.79736950  0.34580550  0.73318500  1
  O  O95  1  0.79736950  0.65419450  0.23318500  1
