# generated using pymatgen
data_CrPO4
_symmetry_space_group_name_H-M   'P 1'
_cell_length_a   5.22303292
_cell_length_b   7.91277737
_cell_length_c   6.31542400
_cell_angle_alpha   90.00000000
_cell_angle_beta   90.00000000
_cell_angle_gamma   90.00000000
_symmetry_Int_Tables_number   1
_chemical_formula_structural   CrPO4
_chemical_formula_sum   'Cr4 P4 O16'
_cell_volume   261.00824312
_cell_formula_units_Z   4
loop_
 _symmetry_equiv_pos_site_id
 _symmetry_equiv_pos_as_xyz
  1  'x, y, z'
loop_
 _atom_site_type_symbol
 _atom_site_label
 _atom_site_symmetry_multiplicity
 _atom_site_fract_x
 _atom_site_fract_y
 _atom_site_fract_z
 _atom_site_occupancy
  Cr  Cr0  1  0.00000000  0.00000000  0.00000000  1
  Cr  Cr1  1  0.00000000  0.00000000  0.50000000  1
  Cr  Cr2  1  0.50000000  0.50000000  0.00000000  1
  Cr  Cr3  1  0.50000000  0.50000000  0.50000000  1
  P  P4  1  0.00000000  0.34779400  0.75000000  1
  P  P5  1  0.00000000  0.65220600  0.25000000  1
  P  P6  1  0.50000000  0.84779400  0.75000000  1
  P  P7  1  0.50000000  0.15220600  0.25000000  1
  O  O8  1  0.75437500  0.53264100  0.25000000  1
  O  O9  1  0.24562500  0.46735900  0.75000000  1
  O  O10  1  0.75437500  0.46735900  0.75000000  1
  O  O11  1  0.24562500  0.53264100  0.25000000  1
  O  O12  1  0.00000000  0.75443750  0.45320200  1
  O  O13  1  0.00000000  0.24556250  0.95320200  1
  O  O14  1  0.00000000  0.24556250  0.54679800  1
  O  O15  1  0.00000000  0.75443750  0.04679800  1
  O  O16  1  0.25437500  0.03264100  0.25000000  1
  O  O17  1  0.74562500  0.96735900  0.75000000  1
  O  O18  1  0.25437500  0.96735900  0.75000000  1
  O  O19  1  0.74562500  0.03264100  0.25000000  1
  O  O20  1  0.50000000  0.25443750  0.45320200  1
  O  O21  1  0.50000000  0.74556250  0.95320200  1
  O  O22  1  0.50000000  0.74556250  0.54679800  1
  O  O23  1  0.50000000  0.25443750  0.04679800  1
