# generated using pymatgen
data_Y2HfS5
_symmetry_space_group_name_H-M   'P 1'
_cell_length_a   7.26882500
_cell_length_b   7.74733800
_cell_length_c   11.57074100
_cell_angle_alpha   90.00000000
_cell_angle_beta   90.00000000
_cell_angle_gamma   90.00000000
_symmetry_Int_Tables_number   1
_chemical_formula_structural   Y2HfS5
_chemical_formula_sum   'Y8 Hf4 S20'
_cell_volume   651.59521938
_cell_formula_units_Z   4
loop_
 _symmetry_equiv_pos_site_id
 _symmetry_equiv_pos_as_xyz
  1  'x, y, z'
loop_
 _atom_site_type_symbol
 _atom_site_label
 _atom_site_symmetry_multiplicity
 _atom_site_fract_x
 _atom_site_fract_y
 _atom_site_fract_z
 _atom_site_occupancy
  Y  Y0  1  0.97831100  0.00279700  0.82106500  1
  Y  Y1  1  0.47831100  0.99720300  0.67893500  1
  Y  Y2  1  0.02168900  0.50279700  0.17893500  1
  Y  Y3  1  0.52168900  0.49720300  0.32106500  1
  Y  Y4  1  0.47831100  0.50279700  0.67893500  1
  Y  Y5  1  0.97831100  0.49720300  0.82106500  1
  Y  Y6  1  0.52168900  0.00279700  0.32106500  1
  Y  Y7  1  0.02168900  0.99720300  0.17893500  1
  Hf  Hf8  1  0.42430500  0.75000000  0.99407900  1
  Hf  Hf9  1  0.92430500  0.25000000  0.50592100  1
  Hf  Hf10  1  0.57569500  0.25000000  0.00592100  1
  Hf  Hf11  1  0.07569500  0.75000000  0.49407900  1
  S  S12  1  0.31049700  0.75000000  0.20666700  1
  S  S13  1  0.81049700  0.25000000  0.29333300  1
  S  S14  1  0.68950300  0.25000000  0.79333300  1
  S  S15  1  0.18950300  0.75000000  0.70666700  1
  S  S16  1  0.05433100  0.75000000  0.99631300  1
  S  S17  1  0.55433100  0.25000000  0.50368700  1
  S  S18  1  0.94566900  0.25000000  0.00368700  1
  S  S19  1  0.44566900  0.75000000  0.49631300  1
  S  S20  1  0.83222900  0.75000000  0.31946200  1
  S  S21  1  0.33222900  0.25000000  0.18053800  1
  S  S22  1  0.16777100  0.25000000  0.68053800  1
  S  S23  1  0.66777100  0.75000000  0.81946200  1
  S  S24  1  0.83993500  0.96362600  0.59343200  1
  S  S25  1  0.33993500  0.03637400  0.90656800  1
  S  S26  1  0.16006500  0.46362600  0.40656800  1
  S  S27  1  0.66006500  0.53637400  0.09343200  1
  S  S28  1  0.16006500  0.03637400  0.40656800  1
  S  S29  1  0.66006500  0.96362600  0.09343200  1
  S  S30  1  0.83993500  0.53637400  0.59343200  1
  S  S31  1  0.33993500  0.46362600  0.90656800  1
