# generated using pymatgen
data_Na2Si2S5
_symmetry_space_group_name_H-M   'P 1'
_cell_length_a   12.84065800
_cell_length_b   12.91618200
_cell_length_c   10.53948500
_cell_angle_alpha   90.00000000
_cell_angle_beta   90.00000000
_cell_angle_gamma   90.00000000
_symmetry_Int_Tables_number   1
_chemical_formula_structural   Na2Si2S5
_chemical_formula_sum   'Na16 Si16 S40'
_cell_volume   1747.99757225
_cell_formula_units_Z   8
loop_
 _symmetry_equiv_pos_site_id
 _symmetry_equiv_pos_as_xyz
  1  'x, y, z'
loop_
 _atom_site_type_symbol
 _atom_site_label
 _atom_site_symmetry_multiplicity
 _atom_site_fract_x
 _atom_site_fract_y
 _atom_site_fract_z
 _atom_site_occupancy
  Na  Na0  1  0.66155450  0.75873250  0.25000000  1
  Na  Na1  1  0.84937800  0.00000000  0.00000000  1
  Na  Na2  1  0.84937800  0.00000000  0.50000000  1
  Na  Na3  1  0.15062200  0.00000000  0.00000000  1
  Na  Na4  1  0.33844550  0.75873250  0.25000000  1
  Na  Na5  1  0.66155450  0.24126750  0.75000000  1
  Na  Na6  1  0.33844550  0.24126750  0.75000000  1
  Na  Na7  1  0.15062200  0.00000000  0.50000000  1
  Na  Na8  1  0.16155450  0.25873250  0.25000000  1
  Na  Na9  1  0.34937800  0.50000000  0.00000000  1
  Na  Na10  1  0.34937800  0.50000000  0.50000000  1
  Na  Na11  1  0.65062200  0.50000000  0.00000000  1
  Na  Na12  1  0.83844550  0.25873250  0.25000000  1
  Na  Na13  1  0.16155450  0.74126750  0.75000000  1
  Na  Na14  1  0.83844550  0.74126750  0.75000000  1
  Na  Na15  1  0.65062200  0.50000000  0.50000000  1
  Si  Si16  1  0.63498850  0.94552950  0.75000000  1
  Si  Si17  1  0.36501150  0.94552950  0.75000000  1
  Si  Si18  1  0.63498850  0.05447050  0.25000000  1
  Si  Si19  1  0.50000000  0.24681000  0.08546600  1
  Si  Si20  1  0.50000000  0.75319000  0.58546600  1
  Si  Si21  1  0.50000000  0.75319000  0.91453400  1
  Si  Si22  1  0.36501150  0.05447050  0.25000000  1
  Si  Si23  1  0.50000000  0.24681000  0.41453400  1
  Si  Si24  1  0.13498850  0.44552950  0.75000000  1
  Si  Si25  1  0.86501150  0.44552950  0.75000000  1
  Si  Si26  1  0.13498850  0.55447050  0.25000000  1
  Si  Si27  1  0.00000000  0.74681000  0.08546600  1
  Si  Si28  1  0.00000000  0.25319000  0.58546600  1
  Si  Si29  1  0.00000000  0.25319000  0.91453400  1
  Si  Si30  1  0.86501150  0.55447050  0.25000000  1
  Si  Si31  1  0.00000000  0.74681000  0.41453400  1
  S  S32  1  0.63962550  0.15231550  0.08295700  1
  S  S33  1  0.63962550  0.84768450  0.91704300  1
  S  S34  1  0.36037450  0.15231550  0.41704300  1
  S  S35  1  0.50000000  0.65472500  0.75000000  1
  S  S36  1  0.50000000  0.33917600  0.57562200  1
  S  S37  1  0.50000000  0.66082400  0.07562200  1
  S  S38  1  0.50000000  0.66082400  0.42437800  1
  S  S39  1  0.50000000  0.33917600  0.92437800  1
  S  S40  1  0.76619300  0.96256400  0.25000000  1
  S  S41  1  0.23380700  0.03743600  0.75000000  1
  S  S42  1  0.76619300  0.03743600  0.75000000  1
  S  S43  1  0.23380700  0.96256400  0.25000000  1
  S  S44  1  0.36037450  0.84768450  0.58295700  1
  S  S45  1  0.36037450  0.15231550  0.08295700  1
  S  S46  1  0.63962550  0.84768450  0.58295700  1
  S  S47  1  0.36037450  0.84768450  0.91704300  1
  S  S48  1  0.63962550  0.15231550  0.41704300  1
  S  S49  1  0.50000000  0.04358100  0.75000000  1
  S  S50  1  0.50000000  0.95641900  0.25000000  1
  S  S51  1  0.50000000  0.34527500  0.25000000  1
  S  S52  1  0.13962550  0.65231550  0.08295700  1
  S  S53  1  0.13962550  0.34768450  0.91704300  1
  S  S54  1  0.86037450  0.65231550  0.41704300  1
  S  S55  1  0.00000000  0.15472500  0.75000000  1
  S  S56  1  0.00000000  0.83917600  0.57562200  1
  S  S57  1  0.00000000  0.16082400  0.07562200  1
  S  S58  1  0.00000000  0.16082400  0.42437800  1
  S  S59  1  0.00000000  0.83917600  0.92437800  1
  S  S60  1  0.26619300  0.46256400  0.25000000  1
  S  S61  1  0.73380700  0.53743600  0.75000000  1
  S  S62  1  0.26619300  0.53743600  0.75000000  1
  S  S63  1  0.73380700  0.46256400  0.25000000  1
  S  S64  1  0.86037450  0.34768450  0.58295700  1
  S  S65  1  0.86037450  0.65231550  0.08295700  1
  S  S66  1  0.13962550  0.34768450  0.58295700  1
  S  S67  1  0.86037450  0.34768450  0.91704300  1
  S  S68  1  0.13962550  0.65231550  0.41704300  1
  S  S69  1  0.00000000  0.54358100  0.75000000  1
  S  S70  1  0.00000000  0.45641900  0.25000000  1
  S  S71  1  0.00000000  0.84527500  0.25000000  1
