# generated using pymatgen
data_SrLi2Ti6O14
_symmetry_space_group_name_H-M   'P 1'
_cell_length_a   11.28570600
_cell_length_b   16.73560600
_cell_length_c   11.56144200
_cell_angle_alpha   90.00000000
_cell_angle_beta   90.00000000
_cell_angle_gamma   90.00000000
_symmetry_Int_Tables_number   1
_chemical_formula_structural   SrLi2Ti6O14
_chemical_formula_sum   'Sr8 Li16 Ti48 O112'
_cell_volume   2183.64572685
_cell_formula_units_Z   8
loop_
 _symmetry_equiv_pos_site_id
 _symmetry_equiv_pos_as_xyz
  1  'x, y, z'
loop_
 _atom_site_type_symbol
 _atom_site_label
 _atom_site_symmetry_multiplicity
 _atom_site_fract_x
 _atom_site_fract_y
 _atom_site_fract_z
 _atom_site_occupancy
  Sr  Sr0  1  0.35336000  0.00000000  0.12105900  1
  Sr  Sr1  1  0.64664000  0.00000000  0.87894100  1
  Sr  Sr2  1  0.85336000  0.00000000  0.37894100  1
  Sr  Sr3  1  0.14664000  0.00000000  0.62105900  1
  Sr  Sr4  1  0.85336000  0.50000000  0.12105900  1
  Sr  Sr5  1  0.14664000  0.50000000  0.87894100  1
  Sr  Sr6  1  0.35336000  0.50000000  0.37894100  1
  Sr  Sr7  1  0.64664000  0.50000000  0.62105900  1
  Li  Li8  1  0.24477300  0.81378400  0.12167100  1
  Li  Li9  1  0.25522700  0.18621600  0.62167100  1
  Li  Li10  1  0.74477300  0.18621600  0.37832900  1
  Li  Li11  1  0.75522700  0.81378400  0.87832900  1
  Li  Li12  1  0.75522700  0.18621600  0.87832900  1
  Li  Li13  1  0.74477300  0.81378400  0.37832900  1
  Li  Li14  1  0.25522700  0.81378400  0.62167100  1
  Li  Li15  1  0.24477300  0.18621600  0.12167100  1
  Li  Li16  1  0.74477300  0.31378400  0.12167100  1
  Li  Li17  1  0.75522700  0.68621600  0.62167100  1
  Li  Li18  1  0.24477300  0.68621600  0.37832900  1
  Li  Li19  1  0.25522700  0.31378400  0.87832900  1
  Li  Li20  1  0.25522700  0.68621600  0.87832900  1
  Li  Li21  1  0.24477300  0.31378400  0.37832900  1
  Li  Li22  1  0.75522700  0.31378400  0.62167100  1
  Li  Li23  1  0.74477300  0.68621600  0.12167100  1
  Ti  Ti24  1  0.38344100  0.10756400  0.38505200  1
  Ti  Ti25  1  0.11655900  0.89243600  0.88505200  1
  Ti  Ti26  1  0.88344100  0.89243600  0.11494800  1
  Ti  Ti27  1  0.61655900  0.10756400  0.61494800  1
  Ti  Ti28  1  0.61655900  0.89243600  0.61494800  1
  Ti  Ti29  1  0.49303200  0.75000000  0.25000000  1
  Ti  Ti30  1  0.88344100  0.10756400  0.11494800  1
  Ti  Ti31  1  0.11655900  0.10756400  0.88505200  1
  Ti  Ti32  1  0.38344100  0.89243600  0.38505200  1
  Ti  Ti33  1  0.12631250  0.10867850  0.35955900  1
  Ti  Ti34  1  0.37368750  0.89132150  0.85955900  1
  Ti  Ti35  1  0.62631250  0.89132150  0.14044100  1
  Ti  Ti36  1  0.87368750  0.10867850  0.64044100  1
  Ti  Ti37  1  0.87368750  0.89132150  0.64044100  1
  Ti  Ti38  1  0.50696800  0.75000000  0.75000000  1
  Ti  Ti39  1  0.37368750  0.10867850  0.85955900  1
  Ti  Ti40  1  0.12631250  0.89132150  0.35955900  1
  Ti  Ti41  1  0.50000000  0.26059300  0.50000000  1
  Ti  Ti42  1  0.50000000  0.23940700  0.00000000  1
  Ti  Ti43  1  0.50000000  0.73940700  0.50000000  1
  Ti  Ti44  1  0.50000000  0.76059300  0.00000000  1
  Ti  Ti45  1  0.49303200  0.25000000  0.25000000  1
  Ti  Ti46  1  0.50696800  0.25000000  0.75000000  1
  Ti  Ti47  1  0.62631250  0.10867850  0.14044100  1
  Ti  Ti48  1  0.88344100  0.60756400  0.38505200  1
  Ti  Ti49  1  0.61655900  0.39243600  0.88505200  1
  Ti  Ti50  1  0.38344100  0.39243600  0.11494800  1
  Ti  Ti51  1  0.11655900  0.60756400  0.61494800  1
  Ti  Ti52  1  0.11655900  0.39243600  0.61494800  1
  Ti  Ti53  1  0.99303200  0.25000000  0.25000000  1
  Ti  Ti54  1  0.38344100  0.60756400  0.11494800  1
  Ti  Ti55  1  0.61655900  0.60756400  0.88505200  1
  Ti  Ti56  1  0.88344100  0.39243600  0.38505200  1
  Ti  Ti57  1  0.62631250  0.60867850  0.35955900  1
  Ti  Ti58  1  0.87368750  0.39132150  0.85955900  1
  Ti  Ti59  1  0.12631250  0.39132150  0.14044100  1
  Ti  Ti60  1  0.37368750  0.60867850  0.64044100  1
  Ti  Ti61  1  0.37368750  0.39132150  0.64044100  1
  Ti  Ti62  1  0.00696800  0.25000000  0.75000000  1
  Ti  Ti63  1  0.87368750  0.60867850  0.85955900  1
  Ti  Ti64  1  0.62631250  0.39132150  0.35955900  1
  Ti  Ti65  1  0.00000000  0.76059300  0.50000000  1
  Ti  Ti66  1  0.00000000  0.73940700  0.00000000  1
  Ti  Ti67  1  0.00000000  0.23940700  0.50000000  1
  Ti  Ti68  1  0.00000000  0.26059300  0.00000000  1
  Ti  Ti69  1  0.99303200  0.75000000  0.25000000  1
  Ti  Ti70  1  0.00696800  0.75000000  0.75000000  1
  Ti  Ti71  1  0.12631250  0.60867850  0.14044100  1
  O  O72  1  0.24717800  0.10778300  0.75892300  1
  O  O73  1  0.59011200  0.00000000  0.63377500  1
  O  O74  1  0.90988800  0.00000000  0.13377500  1
  O  O75  1  0.09011200  0.00000000  0.86622500  1
  O  O76  1  0.40988800  0.00000000  0.36622500  1
  O  O77  1  0.24763900  0.10776800  0.48284300  1
  O  O78  1  0.25236100  0.89223200  0.98284300  1
  O  O79  1  0.74763900  0.89223200  0.01715700  1
  O  O80  1  0.75236100  0.10776800  0.51715700  1
  O  O81  1  0.75236100  0.89223200  0.51715700  1
  O  O82  1  0.74763900  0.10776800  0.01715700  1
  O  O83  1  0.25236100  0.10776800  0.98284300  1
  O  O84  1  0.24763900  0.89223200  0.48284300  1
  O  O85  1  0.91639000  0.00000000  0.62286500  1
  O  O86  1  0.58361000  0.00000000  0.12286500  1
  O  O87  1  0.41639000  0.00000000  0.87713500  1
  O  O88  1  0.08361000  0.00000000  0.37713500  1
  O  O89  1  0.25282200  0.10778300  0.25892300  1
  O  O90  1  0.24717800  0.89221700  0.75892300  1
  O  O91  1  0.75282200  0.89221700  0.24107700  1
  O  O92  1  0.74717800  0.10778300  0.74107700  1
  O  O93  1  0.74717800  0.89221700  0.74107700  1
  O  O94  1  0.50000000  0.87116400  0.00000000  1
  O  O95  1  0.25282200  0.89221700  0.25892300  1
  O  O96  1  0.50000000  0.86736800  0.50000000  1
  O  O97  1  0.50000000  0.63263200  0.00000000  1
  O  O98  1  0.50000000  0.13263200  0.50000000  1
  O  O99  1  0.50000000  0.36736800  0.00000000  1
  O  O100  1  0.38339350  0.76267150  0.37823200  1
  O  O101  1  0.61660650  0.73732850  0.87823200  1
  O  O102  1  0.38339350  0.73732850  0.12176800  1
  O  O103  1  0.61660650  0.76267150  0.62176800  1
  O  O104  1  0.61660650  0.23732850  0.62176800  1
  O  O105  1  0.38339350  0.26267150  0.12176800  1
  O  O106  1  0.61660650  0.26267150  0.87823200  1
  O  O107  1  0.38339350  0.23732850  0.37823200  1
  O  O108  1  0.49562300  0.86775500  0.25000000  1
  O  O109  1  0.50437700  0.63224500  0.75000000  1
  O  O110  1  0.49562300  0.63224500  0.25000000  1
  O  O111  1  0.50437700  0.86775500  0.75000000  1
  O  O112  1  0.50437700  0.13224500  0.75000000  1
  O  O113  1  0.49562300  0.36775500  0.25000000  1
  O  O114  1  0.50437700  0.36775500  0.75000000  1
  O  O115  1  0.49562300  0.13224500  0.25000000  1
  O  O116  1  0.61428500  0.26617800  0.37186100  1
  O  O117  1  0.38571500  0.23382200  0.87186100  1
  O  O118  1  0.61428500  0.23382200  0.12813900  1
  O  O119  1  0.38571500  0.26617800  0.62813900  1
  O  O120  1  0.38571500  0.73382200  0.62813900  1
  O  O121  1  0.61428500  0.76617800  0.12813900  1
  O  O122  1  0.38571500  0.76617800  0.87186100  1
  O  O123  1  0.61428500  0.73382200  0.37186100  1
  O  O124  1  0.50000000  0.37116400  0.50000000  1
  O  O125  1  0.50000000  0.12883600  0.00000000  1
  O  O126  1  0.50000000  0.62883600  0.50000000  1
  O  O127  1  0.75282200  0.10778300  0.24107700  1
  O  O128  1  0.74717800  0.60778300  0.75892300  1
  O  O129  1  0.09011200  0.50000000  0.63377500  1
  O  O130  1  0.40988800  0.50000000  0.13377500  1
  O  O131  1  0.59011200  0.50000000  0.86622500  1
  O  O132  1  0.90988800  0.50000000  0.36622500  1
  O  O133  1  0.74763900  0.60776800  0.48284300  1
  O  O134  1  0.75236100  0.39223200  0.98284300  1
  O  O135  1  0.24763900  0.39223200  0.01715700  1
  O  O136  1  0.25236100  0.60776800  0.51715700  1
  O  O137  1  0.25236100  0.39223200  0.51715700  1
  O  O138  1  0.24763900  0.60776800  0.01715700  1
  O  O139  1  0.75236100  0.60776800  0.98284300  1
  O  O140  1  0.74763900  0.39223200  0.48284300  1
  O  O141  1  0.41639000  0.50000000  0.62286500  1
  O  O142  1  0.08361000  0.50000000  0.12286500  1
  O  O143  1  0.91639000  0.50000000  0.87713500  1
  O  O144  1  0.58361000  0.50000000  0.37713500  1
  O  O145  1  0.75282200  0.60778300  0.25892300  1
  O  O146  1  0.74717800  0.39221700  0.75892300  1
  O  O147  1  0.25282200  0.39221700  0.24107700  1
  O  O148  1  0.24717800  0.60778300  0.74107700  1
  O  O149  1  0.24717800  0.39221700  0.74107700  1
  O  O150  1  0.00000000  0.37116400  0.00000000  1
  O  O151  1  0.75282200  0.39221700  0.25892300  1
  O  O152  1  0.00000000  0.36736800  0.50000000  1
  O  O153  1  0.00000000  0.13263200  0.00000000  1
  O  O154  1  0.00000000  0.63263200  0.50000000  1
  O  O155  1  0.00000000  0.86736800  0.00000000  1
  O  O156  1  0.88339350  0.26267150  0.37823200  1
  O  O157  1  0.11660650  0.23732850  0.87823200  1
  O  O158  1  0.88339350  0.23732850  0.12176800  1
  O  O159  1  0.11660650  0.26267150  0.62176800  1
  O  O160  1  0.11660650  0.73732850  0.62176800  1
  O  O161  1  0.88339350  0.76267150  0.12176800  1
  O  O162  1  0.11660650  0.76267150  0.87823200  1
  O  O163  1  0.88339350  0.73732850  0.37823200  1
  O  O164  1  0.99562300  0.36775500  0.25000000  1
  O  O165  1  0.00437700  0.13224500  0.75000000  1
  O  O166  1  0.99562300  0.13224500  0.25000000  1
  O  O167  1  0.00437700  0.36775500  0.75000000  1
  O  O168  1  0.00437700  0.63224500  0.75000000  1
  O  O169  1  0.99562300  0.86775500  0.25000000  1
  O  O170  1  0.00437700  0.86775500  0.75000000  1
  O  O171  1  0.99562300  0.63224500  0.25000000  1
  O  O172  1  0.11428500  0.76617800  0.37186100  1
  O  O173  1  0.88571500  0.73382200  0.87186100  1
  O  O174  1  0.11428500  0.73382200  0.12813900  1
  O  O175  1  0.88571500  0.76617800  0.62813900  1
  O  O176  1  0.88571500  0.23382200  0.62813900  1
  O  O177  1  0.11428500  0.26617800  0.12813900  1
  O  O178  1  0.88571500  0.26617800  0.87186100  1
  O  O179  1  0.11428500  0.23382200  0.37186100  1
  O  O180  1  0.00000000  0.87116400  0.50000000  1
  O  O181  1  0.00000000  0.62883600  0.00000000  1
  O  O182  1  0.00000000  0.12883600  0.50000000  1
  O  O183  1  0.25282200  0.60778300  0.24107700  1
