# generated using pymatgen
data_CeZr7O16
_symmetry_space_group_name_H-M   'P 1'
_cell_length_a   7.35295900
_cell_length_b   7.35295900
_cell_length_c   5.33225600
_cell_angle_alpha   90.00000000
_cell_angle_beta   90.00000000
_cell_angle_gamma   90.00000000
_symmetry_Int_Tables_number   1
_chemical_formula_structural   CeZr7O16
_chemical_formula_sum   'Ce1 Zr7 O16'
_cell_volume   288.29378519
_cell_formula_units_Z   1
loop_
 _symmetry_equiv_pos_site_id
 _symmetry_equiv_pos_as_xyz
  1  'x, y, z'
loop_
 _atom_site_type_symbol
 _atom_site_label
 _atom_site_symmetry_multiplicity
 _atom_site_fract_x
 _atom_site_fract_y
 _atom_site_fract_z
 _atom_site_occupancy
  Ce  Ce0  1  0.00000000  0.00000000  0.00000000  1
  Zr  Zr1  1  0.25202200  0.74797800  0.50000000  1
  Zr  Zr2  1  0.00000000  0.50000000  0.99935000  1
  Zr  Zr3  1  0.25202200  0.25202200  0.50000000  1
  Zr  Zr4  1  0.50000000  0.00000000  0.00065000  1
  Zr  Zr5  1  0.74797800  0.74797800  0.50000000  1
  Zr  Zr6  1  0.50000000  0.50000000  0.00000000  1
  Zr  Zr7  1  0.74797800  0.25202200  0.50000000  1
  O  O8  1  0.26534600  0.00000000  0.78555700  1
  O  O9  1  0.00000000  0.75153900  0.69894800  1
  O  O10  1  0.00000000  0.73465400  0.21444300  1
  O  O11  1  0.24846100  0.00000000  0.30105200  1
  O  O12  1  0.24486800  0.50000000  0.80887700  1
  O  O13  1  0.00000000  0.24846100  0.69894800  1
  O  O14  1  0.00000000  0.26534600  0.21444300  1
  O  O15  1  0.26750200  0.50000000  0.30848800  1
  O  O16  1  0.73465400  0.00000000  0.78555700  1
  O  O17  1  0.50000000  0.73249800  0.69151200  1
  O  O18  1  0.50000000  0.75513200  0.19112300  1
  O  O19  1  0.75153900  0.00000000  0.30105200  1
  O  O20  1  0.75513200  0.50000000  0.80887700  1
  O  O21  1  0.50000000  0.26750200  0.69151200  1
  O  O22  1  0.50000000  0.24486800  0.19112300  1
  O  O23  1  0.73249800  0.50000000  0.30848800  1
