# generated using pymatgen
data_Sr2MgWO6
_symmetry_space_group_name_H-M   'P 1'
_cell_length_a   5.64890200
_cell_length_b   5.64890200
_cell_length_c   8.08992200
_cell_angle_alpha   90.00000000
_cell_angle_beta   90.00000000
_cell_angle_gamma   90.00000000
_symmetry_Int_Tables_number   1
_chemical_formula_structural   Sr2MgWO6
_chemical_formula_sum   'Sr4 Mg2 W2 O12'
_cell_volume   258.15016990
_cell_formula_units_Z   2
loop_
 _symmetry_equiv_pos_site_id
 _symmetry_equiv_pos_as_xyz
  1  'x, y, z'
loop_
 _atom_site_type_symbol
 _atom_site_label
 _atom_site_symmetry_multiplicity
 _atom_site_fract_x
 _atom_site_fract_y
 _atom_site_fract_z
 _atom_site_occupancy
  Sr  Sr0  1  0.00000000  0.50000000  0.25000000  1
  Sr  Sr1  1  0.50000000  0.00000000  0.25000000  1
  Sr  Sr2  1  0.50000000  0.00000000  0.75000000  1
  Sr  Sr3  1  0.00000000  0.50000000  0.75000000  1
  Mg  Mg4  1  0.00000000  0.00000000  0.00000000  1
  Mg  Mg5  1  0.50000000  0.50000000  0.50000000  1
  W  W6  1  0.50000000  0.50000000  0.00000000  1
  W  W7  1  0.00000000  0.00000000  0.50000000  1
  O  O8  1  0.50000000  0.50000000  0.24170400  1
  O  O9  1  0.00000000  0.00000000  0.25829600  1
  O  O10  1  0.78129050  0.70109450  0.00000000  1
  O  O11  1  0.29890550  0.78129050  0.00000000  1
  O  O12  1  0.71870950  0.79890550  0.50000000  1
  O  O13  1  0.70109450  0.21870950  0.00000000  1
  O  O14  1  0.00000000  0.00000000  0.74170400  1
  O  O15  1  0.50000000  0.50000000  0.75829600  1
  O  O16  1  0.28129050  0.20109450  0.50000000  1
  O  O17  1  0.79890550  0.28129050  0.50000000  1
  O  O18  1  0.21870950  0.29890550  0.00000000  1
  O  O19  1  0.20109450  0.71870950  0.50000000  1
