# generated using pymatgen
data_Er2Cu(B2O5)2
_symmetry_space_group_name_H-M   'P 1'
_cell_length_a   4.59348300
_cell_length_b   7.26863400
_cell_length_c   9.34457750
_cell_angle_alpha   90.00000000
_cell_angle_beta   90.38821552
_cell_angle_gamma   90.00000000
_symmetry_Int_Tables_number   1
_chemical_formula_structural   Er2Cu(B2O5)2
_chemical_formula_sum   'Er4 Cu2 B8 O20'
_cell_volume   311.99283165
_cell_formula_units_Z   2
loop_
 _symmetry_equiv_pos_site_id
 _symmetry_equiv_pos_as_xyz
  1  'x, y, z'
loop_
 _atom_site_type_symbol
 _atom_site_label
 _atom_site_symmetry_multiplicity
 _atom_site_fract_x
 _atom_site_fract_y
 _atom_site_fract_z
 _atom_site_occupancy
  Er  Er0  1  0.00371600  0.60398600  0.16504600  1
  Er  Er1  1  0.99628400  0.10398600  0.33495400  1
  Er  Er2  1  0.00371600  0.89601400  0.66504600  1
  Er  Er3  1  0.99628400  0.39601400  0.83495400  1
  Cu  Cu4  1  0.00000000  0.00000000  0.00000000  1
  Cu  Cu5  1  0.00000000  0.50000000  0.50000000  1
  B  B6  1  0.53941300  0.73166300  0.91963900  1
  B  B7  1  0.46058700  0.23166300  0.58036100  1
  B  B8  1  0.46058700  0.26833700  0.08036100  1
  B  B9  1  0.53941300  0.76833700  0.41963900  1
  B  B10  1  0.52820800  0.40162100  0.33762900  1
  B  B11  1  0.47179200  0.90162100  0.16237100  1
  B  B12  1  0.52820800  0.09837900  0.83762900  1
  B  B13  1  0.47179200  0.59837900  0.66237100  1
  O  O14  1  0.35853200  0.77734800  0.04777300  1
  O  O15  1  0.64146800  0.27734800  0.45222700  1
  O  O16  1  0.65799400  0.16483100  0.69924000  1
  O  O17  1  0.34200600  0.66483100  0.80076000  1
  O  O18  1  0.34200600  0.83516900  0.30076000  1
  O  O19  1  0.65799400  0.33516900  0.19924000  1
  O  O20  1  0.67736800  0.91214100  0.86177600  1
  O  O21  1  0.32263200  0.41214100  0.63822400  1
  O  O22  1  0.32263200  0.08785900  0.13822400  1
  O  O23  1  0.67736800  0.58785900  0.36177600  1
  O  O24  1  0.21423700  0.08944400  0.83355400  1
  O  O25  1  0.78576300  0.58944400  0.66644600  1
  O  O26  1  0.78576300  0.91055600  0.16644600  1
  O  O27  1  0.21423700  0.41055600  0.33355400  1
  O  O28  1  0.77127700  0.88913800  0.45823200  1
  O  O29  1  0.22872300  0.38913800  0.04176800  1
  O  O30  1  0.22872300  0.11086200  0.54176800  1
  O  O31  1  0.77127700  0.61086200  0.95823200  1
  O  O32  1  0.64146800  0.22265200  0.95222700  1
  O  O33  1  0.35853200  0.72265200  0.54777300  1
