# generated using pymatgen
data_Ba3Ga3N5
_symmetry_space_group_name_H-M   'P 1'
_cell_length_a   16.99164600
_cell_length_b   8.41473800
_cell_length_c   11.78328422
_cell_angle_alpha   90.00000000
_cell_angle_beta   109.85204919
_cell_angle_gamma   90.00000000
_symmetry_Int_Tables_number   1
_chemical_formula_structural   Ba3Ga3N5
_chemical_formula_sum   'Ba24 Ga24 N40'
_cell_volume   1584.65510707
_cell_formula_units_Z   8
loop_
 _symmetry_equiv_pos_site_id
 _symmetry_equiv_pos_as_xyz
  1  'x, y, z'
loop_
 _atom_site_type_symbol
 _atom_site_label
 _atom_site_symmetry_multiplicity
 _atom_site_fract_x
 _atom_site_fract_y
 _atom_site_fract_z
 _atom_site_occupancy
  Ba  Ba0  1  0.00000000  0.34527300  0.75000000  1
  Ba  Ba1  1  0.00000000  0.65472700  0.25000000  1
  Ba  Ba2  1  0.00000000  0.83840600  0.75000000  1
  Ba  Ba3  1  0.00000000  0.16159400  0.25000000  1
  Ba  Ba4  1  0.68885700  0.59006200  0.88462300  1
  Ba  Ba5  1  0.81114300  0.09006200  0.61537700  1
  Ba  Ba6  1  0.81114300  0.90993800  0.11537700  1
  Ba  Ba7  1  0.68885700  0.40993800  0.38462300  1
  Ba  Ba8  1  0.70562950  0.12442650  0.83693500  1
  Ba  Ba9  1  0.79437050  0.62442650  0.66306500  1
  Ba  Ba10  1  0.79437050  0.37557350  0.16306500  1
  Ba  Ba11  1  0.70562950  0.87557350  0.33693500  1
  Ba  Ba12  1  0.50000000  0.84527300  0.75000000  1
  Ba  Ba13  1  0.50000000  0.15472700  0.25000000  1
  Ba  Ba14  1  0.50000000  0.33840600  0.75000000  1
  Ba  Ba15  1  0.50000000  0.66159400  0.25000000  1
  Ba  Ba16  1  0.18885700  0.09006200  0.88462300  1
  Ba  Ba17  1  0.31114300  0.59006200  0.61537700  1
  Ba  Ba18  1  0.31114300  0.40993800  0.11537700  1
  Ba  Ba19  1  0.18885700  0.90993800  0.38462300  1
  Ba  Ba20  1  0.20562950  0.62442650  0.83693500  1
  Ba  Ba21  1  0.29437050  0.12442650  0.66306500  1
  Ba  Ba22  1  0.29437050  0.87557350  0.16306500  1
  Ba  Ba23  1  0.20562950  0.37557350  0.33693500  1
  Ga  Ga24  1  0.92024700  0.06466200  0.94294700  1
  Ga  Ga25  1  0.57975300  0.56466200  0.55705300  1
  Ga  Ga26  1  0.57975300  0.43533800  0.05705300  1
  Ga  Ga27  1  0.92024700  0.93533800  0.44294700  1
  Ga  Ga28  1  0.59769700  0.75506400  0.04954600  1
  Ga  Ga29  1  0.90230300  0.25506400  0.45045400  1
  Ga  Ga30  1  0.90230300  0.74493600  0.95045400  1
  Ga  Ga31  1  0.59769700  0.24493600  0.54954600  1
  Ga  Ga32  1  0.92065500  0.43200400  0.00181800  1
  Ga  Ga33  1  0.57934500  0.93200400  0.49818200  1
  Ga  Ga34  1  0.57934500  0.06799600  0.99818200  1
  Ga  Ga35  1  0.92065500  0.56799600  0.50181800  1
  Ga  Ga36  1  0.42024700  0.56466200  0.94294700  1
  Ga  Ga37  1  0.07975300  0.06466200  0.55705300  1
  Ga  Ga38  1  0.07975300  0.93533800  0.05705300  1
  Ga  Ga39  1  0.42024700  0.43533800  0.44294700  1
  Ga  Ga40  1  0.09769700  0.25506400  0.04954600  1
  Ga  Ga41  1  0.40230300  0.75506400  0.45045400  1
  Ga  Ga42  1  0.40230300  0.24493600  0.95045400  1
  Ga  Ga43  1  0.09769700  0.74493600  0.54954600  1
  Ga  Ga44  1  0.42065500  0.93200400  0.00181800  1
  Ga  Ga45  1  0.07934500  0.43200400  0.49818200  1
  Ga  Ga46  1  0.07934500  0.56799600  0.99818200  1
  Ga  Ga47  1  0.42065500  0.06799600  0.50181800  1
  N  N48  1  0.54527250  0.92607450  0.11739400  1
  N  N49  1  0.95472750  0.42607450  0.38260600  1
  N  N50  1  0.95472750  0.57392550  0.88260600  1
  N  N51  1  0.54527250  0.07392550  0.61739400  1
  N  N52  1  0.53002000  0.60116200  0.92071400  1
  N  N53  1  0.96998000  0.10116200  0.57928600  1
  N  N54  1  0.96998000  0.89883800  0.07928600  1
  N  N55  1  0.53002000  0.39883800  0.42071400  1
  N  N56  1  0.65718100  0.59215900  0.17381100  1
  N  N57  1  0.84281900  0.09215900  0.32618900  1
  N  N58  1  0.84281900  0.90784100  0.82618900  1
  N  N59  1  0.65718100  0.40784100  0.67381100  1
  N  N60  1  0.65129350  0.89655050  0.96031800  1
  N  N61  1  0.84870650  0.39655050  0.53968200  1
  N  N62  1  0.84870650  0.60344950  0.03968200  1
  N  N63  1  0.65129350  0.10344950  0.46031800  1
  N  N64  1  0.86312250  0.23133950  0.99779300  1
  N  N65  1  0.63687750  0.73133950  0.50220700  1
  N  N66  1  0.63687750  0.26866050  0.00220700  1
  N  N67  1  0.86312250  0.76866050  0.49779300  1
  N  N68  1  0.04527250  0.42607450  0.11739400  1
  N  N69  1  0.45472750  0.92607450  0.38260600  1
  N  N70  1  0.45472750  0.07392550  0.88260600  1
  N  N71  1  0.04527250  0.57392550  0.61739400  1
  N  N72  1  0.03002000  0.10116200  0.92071400  1
  N  N73  1  0.46998000  0.60116200  0.57928600  1
  N  N74  1  0.46998000  0.39883800  0.07928600  1
  N  N75  1  0.03002000  0.89883800  0.42071400  1
  N  N76  1  0.15718100  0.09215900  0.17381100  1
  N  N77  1  0.34281900  0.59215900  0.32618900  1
  N  N78  1  0.34281900  0.40784100  0.82618900  1
  N  N79  1  0.15718100  0.90784100  0.67381100  1
  N  N80  1  0.15129350  0.39655050  0.96031800  1
  N  N81  1  0.34870650  0.89655050  0.53968200  1
  N  N82  1  0.34870650  0.10344950  0.03968200  1
  N  N83  1  0.15129350  0.60344950  0.46031800  1
  N  N84  1  0.36312250  0.73133950  0.99779300  1
  N  N85  1  0.13687750  0.23133950  0.50220700  1
  N  N86  1  0.13687750  0.76866050  0.00220700  1
  N  N87  1  0.36312250  0.26866050  0.49779300  1
