# generated using pymatgen
data_LiO3
_symmetry_space_group_name_H-M   'P 1'
_cell_length_a   3.16313800
_cell_length_b   4.98532800
_cell_length_c   5.43178000
_cell_angle_alpha   90.00000000
_cell_angle_beta   90.00000000
_cell_angle_gamma   90.00000000
_symmetry_Int_Tables_number   1
_chemical_formula_structural   LiO3
_chemical_formula_sum   'Li2 O6'
_cell_volume   85.65526210
_cell_formula_units_Z   2
loop_
 _symmetry_equiv_pos_site_id
 _symmetry_equiv_pos_as_xyz
  1  'x, y, z'
loop_
 _atom_site_type_symbol
 _atom_site_label
 _atom_site_symmetry_multiplicity
 _atom_site_fract_x
 _atom_site_fract_y
 _atom_site_fract_z
 _atom_site_occupancy
  Li  Li0  1  0.00000000  0.00000000  0.48337000  1
  Li  Li1  1  0.50000000  0.50000000  0.98337000  1
  O  O2  1  0.00000000  0.00000000  0.98518100  1
  O  O3  1  0.50000000  0.72625600  0.62562400  1
  O  O4  1  0.50000000  0.27374400  0.62562400  1
  O  O5  1  0.50000000  0.50000000  0.48518100  1
  O  O6  1  0.00000000  0.22625600  0.12562400  1
  O  O7  1  0.00000000  0.77374400  0.12562400  1
