# generated using pymatgen
data_NaNbO3
_symmetry_space_group_name_H-M   'P 1'
_cell_length_a   5.42517366
_cell_length_b   5.42517366
_cell_length_c   15.92327045
_cell_angle_alpha   90.00000000
_cell_angle_beta   90.00000000
_cell_angle_gamma   120.00000000
_symmetry_Int_Tables_number   1
_chemical_formula_structural   NaNbO3
_chemical_formula_sum   'Na6 Nb6 O18'
_cell_volume   405.87302814
_cell_formula_units_Z   6
loop_
 _symmetry_equiv_pos_site_id
 _symmetry_equiv_pos_as_xyz
  1  'x, y, z'
loop_
 _atom_site_type_symbol
 _atom_site_label
 _atom_site_symmetry_multiplicity
 _atom_site_fract_x
 _atom_site_fract_y
 _atom_site_fract_z
 _atom_site_occupancy
  Na  Na0  1  0.33333333  0.66666667  0.30841067  1
  Na  Na1  1  0.33333333  0.66666667  0.02492267  1
  Na  Na2  1  0.00000000  0.00000000  0.64174400  1
  Na  Na3  1  0.00000000  0.00000000  0.35825600  1
  Na  Na4  1  0.66666667  0.33333333  0.97507733  1
  Na  Na5  1  0.66666667  0.33333333  0.69158933  1
  Nb  Nb6  1  0.66666667  0.33333333  0.18509533  1
  Nb  Nb7  1  0.00000000  0.00000000  0.14823800  1
  Nb  Nb8  1  0.33333333  0.66666667  0.51842867  1
  Nb  Nb9  1  0.66666667  0.33333333  0.48157133  1
  Nb  Nb10  1  0.00000000  0.00000000  0.85176200  1
  Nb  Nb11  1  0.33333333  0.66666667  0.81490467  1
  O  O12  1  0.93615400  0.28052500  0.09463100  1
  O  O13  1  0.71947500  0.65562900  0.09463100  1
  O  O14  1  0.34437100  0.06384600  0.09463100  1
  O  O15  1  0.73051267  0.05280833  0.23870233  1
  O  O16  1  0.94719167  0.67770433  0.23870233  1
  O  O17  1  0.32229567  0.26948733  0.23870233  1
  O  O18  1  0.60282067  0.61385833  0.42796433  1
  O  O19  1  0.38614167  0.98896233  0.42796433  1
  O  O20  1  0.01103767  0.39717933  0.42796433  1
  O  O21  1  0.39717933  0.38614167  0.57203567  1
  O  O22  1  0.61385833  0.01103767  0.57203567  1
  O  O23  1  0.98896233  0.60282067  0.57203567  1
  O  O24  1  0.26948733  0.94719167  0.76129767  1
  O  O25  1  0.05280833  0.32229567  0.76129767  1
  O  O26  1  0.67770433  0.73051267  0.76129767  1
  O  O27  1  0.06384600  0.71947500  0.90536900  1
  O  O28  1  0.28052500  0.34437100  0.90536900  1
  O  O29  1  0.65562900  0.93615400  0.90536900  1
