# generated using pymatgen
data_Al7Te10
_symmetry_space_group_name_H-M   'P 1'
_cell_length_a   14.81683805
_cell_length_b   14.81683805
_cell_length_c   18.21627850
_cell_angle_alpha   90.00000000
_cell_angle_beta   90.00000000
_cell_angle_gamma   120.00000000
_symmetry_Int_Tables_number   1
_chemical_formula_structural   Al7Te10
_chemical_formula_sum   'Al42 Te60'
_cell_volume   3463.38966707
_cell_formula_units_Z   6
loop_
 _symmetry_equiv_pos_site_id
 _symmetry_equiv_pos_as_xyz
  1  'x, y, z'
loop_
 _atom_site_type_symbol
 _atom_site_label
 _atom_site_symmetry_multiplicity
 _atom_site_fract_x
 _atom_site_fract_y
 _atom_site_fract_z
 _atom_site_occupancy
  Al  Al0  1  0.45146633  0.59232867  0.43821967  1
  Al  Al1  1  0.40767133  0.85913767  0.43821967  1
  Al  Al2  1  0.14086233  0.54853367  0.43821967  1
  Al  Al3  1  0.52580433  0.74100467  0.89511367  1
  Al  Al4  1  0.25899533  0.78479967  0.89511367  1
  Al  Al5  1  0.21520033  0.47419567  0.89511367  1
  Al  Al6  1  0.07927467  0.34212333  0.08396733  1
  Al  Al7  1  0.65787667  0.73715133  0.08396733  1
  Al  Al8  1  0.26284867  0.92072533  0.08396733  1
  Al  Al9  1  0.40381800  0.99121000  0.24936600  1
  Al  Al10  1  0.00879000  0.41260800  0.24936600  1
  Al  Al11  1  0.58739200  0.59618200  0.24936600  1
  Al  Al12  1  0.33333333  0.66666667  0.23850867  1
  Al  Al13  1  0.33333333  0.66666667  0.09482467  1
  Al  Al14  1  0.11813300  0.92566200  0.77155300  1
  Al  Al15  1  0.07433800  0.19247100  0.77155300  1
  Al  Al16  1  0.80752900  0.88186700  0.77155300  1
  Al  Al17  1  0.19247100  0.07433800  0.22844700  1
  Al  Al18  1  0.92566200  0.11813300  0.22844700  1
  Al  Al19  1  0.88186700  0.80752900  0.22844700  1
  Al  Al20  1  0.74594133  0.67545667  0.41730067  1
  Al  Al21  1  0.32454333  0.07048467  0.41730067  1
  Al  Al22  1  0.92951533  0.25405867  0.41730067  1
  Al  Al23  1  0.07048467  0.32454333  0.58269933  1
  Al  Al24  1  0.67545667  0.74594133  0.58269933  1
  Al  Al25  1  0.25405867  0.92951533  0.58269933  1
  Al  Al26  1  0.00000000  0.00000000  0.57184200  1
  Al  Al27  1  1.00000000  0.00000000  0.42815800  1
  Al  Al28  1  0.78479967  0.25899533  0.10488633  1
  Al  Al29  1  0.74100467  0.52580433  0.10488633  1
  Al  Al30  1  0.47419567  0.21520033  0.10488633  1
  Al  Al31  1  0.85913767  0.40767133  0.56178033  1
  Al  Al32  1  0.59232867  0.45146633  0.56178033  1
  Al  Al33  1  0.54853367  0.14086233  0.56178033  1
  Al  Al34  1  0.41260800  0.00879000  0.75063400  1
  Al  Al35  1  0.99121000  0.40381800  0.75063400  1
  Al  Al36  1  0.59618200  0.58739200  0.75063400  1
  Al  Al37  1  0.73715133  0.65787667  0.91603267  1
  Al  Al38  1  0.34212333  0.07927467  0.91603267  1
  Al  Al39  1  0.92072533  0.26284867  0.91603267  1
  Al  Al40  1  0.66666667  0.33333333  0.90517533  1
  Al  Al41  1  0.66666667  0.33333333  0.76149133  1
  Te  Te42  1  0.69833967  0.80255033  0.22461433  1
  Te  Te43  1  0.10421067  0.30166033  0.22461433  1
  Te  Te44  1  0.19744967  0.89578933  0.22461433  1
  Te  Te45  1  0.46921700  0.03167300  0.10871900  1
  Te  Te46  1  0.56245600  0.53078300  0.10871900  1
  Te  Te47  1  0.96832700  0.43754400  0.10871900  1
  Te  Te48  1  0.39530600  0.53871000  0.29689800  1
  Te  Te49  1  0.46129000  0.85659600  0.29689800  1
  Te  Te50  1  0.14340400  0.60469400  0.29689800  1
  Te  Te51  1  0.52326267  0.79462333  0.03643533  1
  Te  Te52  1  0.20537667  0.72863933  0.03643533  1
  Te  Te53  1  0.27136067  0.47673733  0.03643533  1
  Te  Te54  1  0.91268333  0.66666667  0.16666667  1
  Te  Te55  1  0.33333333  0.24601667  0.16666667  1
  Te  Te56  1  0.75398333  0.08731667  0.16666667  1
  Te  Te57  1  0.18073200  0.00000000  0.00000000  1
  Te  Te58  1  0.00000000  0.18073200  0.00000000  1
  Te  Te59  1  0.48593467  0.15260133  0.33333333  1
  Te  Te60  1  0.33333333  0.66666667  0.49707967  1
  Te  Te61  1  0.33333333  0.66666667  0.83625367  1
  Te  Te62  1  0.36500633  0.13588367  0.55794767  1
  Te  Te63  1  0.77087733  0.63499367  0.55794767  1
  Te  Te64  1  0.86411633  0.22912267  0.55794767  1
  Te  Te65  1  0.13588367  0.36500633  0.44205233  1
  Te  Te66  1  0.22912267  0.86411633  0.44205233  1
  Te  Te67  1  0.63499367  0.77087733  0.44205233  1
  Te  Te68  1  0.06197267  0.87204333  0.63023133  1
  Te  Te69  1  0.12795667  0.18992933  0.63023133  1
  Te  Te70  1  0.81007067  0.93802733  0.63023133  1
  Te  Te71  1  0.18992933  0.12795667  0.36976867  1
  Te  Te72  1  0.87204333  0.06197267  0.36976867  1
  Te  Te73  1  0.93802733  0.81007067  0.36976867  1
  Te  Te74  1  0.57935000  0.00000000  0.50000000  1
  Te  Te75  1  0.00000000  0.57935000  0.50000000  1
  Te  Te76  1  0.42065000  0.42065000  0.50000000  1
  Te  Te77  1  0.84739867  0.33333333  0.33333333  1
  Te  Te78  1  0.66666667  0.51406533  0.33333333  1
  Te  Te79  1  0.15260133  0.48593467  0.66666667  1
  Te  Te80  1  0.00000000  0.00000000  0.83041300  1
  Te  Te81  1  1.00000000  0.00000000  0.16958700  1
  Te  Te82  1  0.03167300  0.46921700  0.89128100  1
  Te  Te83  1  0.43754400  0.96832700  0.89128100  1
  Te  Te84  1  0.53078300  0.56245600  0.89128100  1
  Te  Te85  1  0.80255033  0.69833967  0.77538567  1
  Te  Te86  1  0.89578933  0.19744967  0.77538567  1
  Te  Te87  1  0.30166033  0.10421067  0.77538567  1
  Te  Te88  1  0.72863933  0.20537667  0.96356467  1
  Te  Te89  1  0.79462333  0.52326267  0.96356467  1
  Te  Te90  1  0.47673733  0.27136067  0.96356467  1
  Te  Te91  1  0.85659600  0.46129000  0.70310200  1
  Te  Te92  1  0.53871000  0.39530600  0.70310200  1
  Te  Te93  1  0.60469400  0.14340400  0.70310200  1
  Te  Te94  1  0.24601667  0.33333333  0.83333333  1
  Te  Te95  1  0.66666667  0.91268333  0.83333333  1
  Te  Te96  1  0.08731667  0.75398333  0.83333333  1
  Te  Te97  1  0.51406533  0.66666667  0.66666667  1
  Te  Te98  1  0.33333333  0.84739867  0.66666667  1
  Te  Te99  1  0.81926800  0.81926800  0.00000000  1
  Te  Te100  1  0.66666667  0.33333333  0.16374633  1
  Te  Te101  1  0.66666667  0.33333333  0.50292033  1
