# generated using pymatgen
data_NdNi(BO2)5
_symmetry_space_group_name_H-M   'P 1'
_cell_length_a   8.71285107
_cell_length_b   7.65157815
_cell_length_c   12.57152523
_cell_angle_alpha   90.00000000
_cell_angle_beta   130.53873663
_cell_angle_gamma   90.00000000
_symmetry_Int_Tables_number   1
_chemical_formula_structural   NdNi(BO2)5
_chemical_formula_sum   'Nd4 Ni4 B20 O40'
_cell_volume   636.93314586
_cell_formula_units_Z   4
loop_
 _symmetry_equiv_pos_site_id
 _symmetry_equiv_pos_as_xyz
  1  'x, y, z'
loop_
 _atom_site_type_symbol
 _atom_site_label
 _atom_site_symmetry_multiplicity
 _atom_site_fract_x
 _atom_site_fract_y
 _atom_site_fract_z
 _atom_site_occupancy
  Nd  Nd0  1  0.44498508  0.31885705  0.76388833  1
  Nd  Nd1  1  0.55501492  0.81885705  0.73611167  1
  Nd  Nd2  1  0.55501492  0.68114295  0.23611167  1
  Nd  Nd3  1  0.44498508  0.18114295  0.26388833  1
  Ni  Ni4  1  0.97548636  0.08932692  0.87279264  1
  Ni  Ni5  1  0.02451364  0.58932692  0.62720736  1
  Ni  Ni6  1  0.02451364  0.91067308  0.12720736  1
  Ni  Ni7  1  0.97548636  0.41067308  0.37279264  1
  B  B8  1  0.01817694  0.18643847  0.58750170  1
  B  B9  1  0.98182306  0.68643847  0.91249830  1
  B  B10  1  0.98182306  0.81356153  0.41249830  1
  B  B11  1  0.01817694  0.31356153  0.08750170  1
  B  B12  1  0.34303195  0.90053148  0.00103990  1
  B  B13  1  0.65696805  0.40053148  0.49896010  1
  B  B14  1  0.65696805  0.09946852  0.99896010  1
  B  B15  1  0.34303195  0.59946852  0.50103990  1
  B  B16  1  0.77566608  0.96573662  0.55541629  1
  B  B17  1  0.22433392  0.46573662  0.94458371  1
  B  B18  1  0.22433392  0.03426338  0.44458371  1
  B  B19  1  0.77566608  0.53426338  0.05541629  1
  B  B20  1  0.59062274  0.17530039  0.60684518  1
  B  B21  1  0.40937726  0.67530039  0.89315482  1
  B  B22  1  0.40937726  0.82469961  0.39315482  1
  B  B23  1  0.59062274  0.32469961  0.10684518  1
  B  B24  1  0.15281737  0.92224228  0.74108888  1
  B  B25  1  0.84718263  0.42224228  0.75891112  1
  B  B26  1  0.84718263  0.07775772  0.25891112  1
  B  B27  1  0.15281737  0.57775772  0.24108888  1
  O  O28  1  0.61892398  0.05056890  0.88088042  1
  O  O29  1  0.38107602  0.55056890  0.61911958  1
  O  O30  1  0.38107602  0.94943110  0.11911958  1
  O  O31  1  0.61892398  0.44943110  0.38088042  1
  O  O32  1  0.92832201  0.84739401  0.93076175  1
  O  O33  1  0.07167799  0.34739401  0.56923825  1
  O  O34  1  0.07167799  0.15260599  0.06923825  1
  O  O35  1  0.92832201  0.65260599  0.43076175  1
  O  O36  1  0.82538488  0.12307682  0.50975519  1
  O  O37  1  0.17461512  0.62307682  0.99024481  1
  O  O38  1  0.17461512  0.87692318  0.49024481  1
  O  O39  1  0.82538488  0.37692318  0.00975519  1
  O  O40  1  0.52944368  0.27447867  0.48558831  1
  O  O41  1  0.47055632  0.77447867  0.01441169  1
  O  O42  1  0.47055632  0.72552133  0.51441169  1
  O  O43  1  0.52944368  0.22552133  0.98558831  1
  O  O44  1  0.40881203  0.10778809  0.58087164  1
  O  O45  1  0.59118797  0.60778809  0.91912836  1
  O  O46  1  0.59118797  0.89221191  0.41912836  1
  O  O47  1  0.40881203  0.39221191  0.08087164  1
  O  O48  1  0.73400428  0.02722918  0.64836756  1
  O  O49  1  0.26599572  0.52722918  0.85163244  1
  O  O50  1  0.26599572  0.97277082  0.35163244  1
  O  O51  1  0.73400428  0.47277082  0.14836756  1
  O  O52  1  0.95014187  0.84718433  0.63511548  1
  O  O53  1  0.04985813  0.34718433  0.86488452  1
  O  O54  1  0.04985813  0.15281567  0.36488452  1
  O  O55  1  0.95014187  0.65281567  0.13511548  1
  O  O56  1  0.18012575  0.08866656  0.69605749  1
  O  O57  1  0.81987425  0.58866656  0.80394251  1
  O  O58  1  0.81987425  0.91133344  0.30394251  1
  O  O59  1  0.18012575  0.41133344  0.19605749  1
  O  O60  1  0.18293569  0.96410992  0.87086727  1
  O  O61  1  0.81706431  0.46410992  0.62913273  1
  O  O62  1  0.81706431  0.03589008  0.12913273  1
  O  O63  1  0.18293569  0.53589008  0.37086727  1
  O  O64  1  0.29962808  0.79035671  0.76802269  1
  O  O65  1  0.70037192  0.29035671  0.73197731  1
  O  O66  1  0.70037192  0.20964329  0.23197731  1
  O  O67  1  0.29962808  0.70964329  0.26802269  1
