# generated using pymatgen
data_CaSiO3
_symmetry_space_group_name_H-M   'P 1'
_cell_length_a   11.95219400
_cell_length_b   6.93593200
_cell_length_c   10.61770469
_cell_angle_alpha   90.00000000
_cell_angle_beta   111.28000029
_cell_angle_gamma   90.00000000
_symmetry_Int_Tables_number   1
_chemical_formula_structural   CaSiO3
_chemical_formula_sum   'Ca12 Si12 O36'
_cell_volume   820.18945753
_cell_formula_units_Z   12
loop_
 _symmetry_equiv_pos_site_id
 _symmetry_equiv_pos_as_xyz
  1  'x, y, z'
loop_
 _atom_site_type_symbol
 _atom_site_label
 _atom_site_symmetry_multiplicity
 _atom_site_fract_x
 _atom_site_fract_y
 _atom_site_fract_z
 _atom_site_occupancy
  Ca  Ca0  1  0.75000000  0.25000000  0.50000000  1
  Ca  Ca1  1  0.75000000  0.75000000  0.00000000  1
  Ca  Ca2  1  0.58777650  0.26150350  0.99900100  1
  Ca  Ca3  1  0.41222350  0.26150350  0.50099900  1
  Ca  Ca4  1  0.41222350  0.73849650  0.00099900  1
  Ca  Ca5  1  0.58777650  0.73849650  0.49900100  1
  Ca  Ca6  1  0.25000000  0.75000000  0.50000000  1
  Ca  Ca7  1  0.25000000  0.25000000  0.00000000  1
  Ca  Ca8  1  0.08777650  0.76150350  0.99900100  1
  Ca  Ca9  1  0.91222350  0.76150350  0.50099900  1
  Ca  Ca10  1  0.91222350  0.23849650  0.00099900  1
  Ca  Ca11  1  0.08777650  0.23849650  0.49900100  1
  Si  Si12  1  0.50000000  0.66040100  0.75000000  1
  Si  Si13  1  0.50000000  0.33959900  0.25000000  1
  Si  Si14  1  0.62783250  0.04705150  0.74467700  1
  Si  Si15  1  0.37216750  0.04705150  0.75532300  1
  Si  Si16  1  0.37216750  0.95294850  0.25532300  1
  Si  Si17  1  0.62783250  0.95294850  0.24467700  1
  Si  Si18  1  0.00000000  0.16040100  0.75000000  1
  Si  Si19  1  0.00000000  0.83959900  0.25000000  1
  Si  Si20  1  0.12783250  0.54705150  0.74467700  1
  Si  Si21  1  0.87216750  0.54705150  0.75532300  1
  Si  Si22  1  0.87216750  0.45294850  0.25532300  1
  Si  Si23  1  0.12783250  0.45294850  0.24467700  1
  O  O24  1  0.50000000  0.14206400  0.75000000  1
  O  O25  1  0.50000000  0.85793600  0.25000000  1
  O  O26  1  0.54987850  0.55674250  0.89473100  1
  O  O27  1  0.45012150  0.55674250  0.60526900  1
  O  O28  1  0.45012150  0.44325750  0.10526900  1
  O  O29  1  0.54987850  0.44325750  0.39473100  1
  O  O30  1  0.61149350  0.80639150  0.74751300  1
  O  O31  1  0.38850650  0.80639150  0.75248700  1
  O  O32  1  0.38850650  0.19360850  0.25248700  1
  O  O33  1  0.61149350  0.19360850  0.24751300  1
  O  O34  1  0.72867600  0.10058400  0.88796800  1
  O  O35  1  0.27132400  0.10058400  0.61203200  1
  O  O36  1  0.62827750  0.90393950  0.09661700  1
  O  O37  1  0.37172250  0.90393950  0.40338300  1
  O  O38  1  0.37172250  0.09606050  0.90338300  1
  O  O39  1  0.62827750  0.09606050  0.59661700  1
  O  O40  1  0.72867600  0.89941600  0.38796800  1
  O  O41  1  0.27132400  0.89941600  0.11203200  1
  O  O42  1  0.00000000  0.64206400  0.75000000  1
  O  O43  1  0.00000000  0.35793600  0.25000000  1
  O  O44  1  0.04987850  0.05674250  0.89473100  1
  O  O45  1  0.95012150  0.05674250  0.60526900  1
  O  O46  1  0.95012150  0.94325750  0.10526900  1
  O  O47  1  0.04987850  0.94325750  0.39473100  1
  O  O48  1  0.11149350  0.30639150  0.74751300  1
  O  O49  1  0.88850650  0.30639150  0.75248700  1
  O  O50  1  0.88850650  0.69360850  0.25248700  1
  O  O51  1  0.11149350  0.69360850  0.24751300  1
  O  O52  1  0.22867600  0.60058400  0.88796800  1
  O  O53  1  0.77132400  0.60058400  0.61203200  1
  O  O54  1  0.12827750  0.40393950  0.09661700  1
  O  O55  1  0.87172250  0.40393950  0.40338300  1
  O  O56  1  0.87172250  0.59606050  0.90338300  1
  O  O57  1  0.12827750  0.59606050  0.59661700  1
  O  O58  1  0.22867600  0.39941600  0.38796800  1
  O  O59  1  0.77132400  0.39941600  0.11203200  1
