# generated using pymatgen
data_Ba2LiSi3
_symmetry_space_group_name_H-M   'P 1'
_cell_length_a   8.75974800
_cell_length_b   15.23122400
_cell_length_c   19.55690800
_cell_angle_alpha   90.00000000
_cell_angle_beta   90.00000000
_cell_angle_gamma   90.00000000
_symmetry_Int_Tables_number   1
_chemical_formula_structural   Ba2LiSi3
_chemical_formula_sum   'Ba32 Li16 Si48'
_cell_volume   2609.31559864
_cell_formula_units_Z   16
loop_
 _symmetry_equiv_pos_site_id
 _symmetry_equiv_pos_as_xyz
  1  'x, y, z'
loop_
 _atom_site_type_symbol
 _atom_site_label
 _atom_site_symmetry_multiplicity
 _atom_site_fract_x
 _atom_site_fract_y
 _atom_site_fract_z
 _atom_site_occupancy
  Ba  Ba0  1  0.00000000  0.00000000  0.87572800  1
  Ba  Ba1  1  0.50000000  0.00000000  0.62427200  1
  Ba  Ba2  1  0.25000000  0.75000000  0.87427200  1
  Ba  Ba3  1  0.25000000  0.75000000  0.62572800  1
  Ba  Ba4  1  0.00000000  0.00000000  0.62517000  1
  Ba  Ba5  1  0.50000000  0.00000000  0.87483000  1
  Ba  Ba6  1  0.75000000  0.75000000  0.62483000  1
  Ba  Ba7  1  0.75000000  0.75000000  0.87517000  1
  Ba  Ba8  1  0.00000000  0.50000000  0.37572800  1
  Ba  Ba9  1  0.50000000  0.50000000  0.12427200  1
  Ba  Ba10  1  0.25000000  0.25000000  0.37427200  1
  Ba  Ba11  1  0.25000000  0.25000000  0.12572800  1
  Ba  Ba12  1  0.00000000  0.50000000  0.12517000  1
  Ba  Ba13  1  0.50000000  0.50000000  0.37483000  1
  Ba  Ba14  1  0.75000000  0.25000000  0.12483000  1
  Ba  Ba15  1  0.75000000  0.25000000  0.37517000  1
  Ba  Ba16  1  0.50000000  0.00000000  0.37572800  1
  Ba  Ba17  1  0.00000000  0.00000000  0.12427200  1
  Ba  Ba18  1  0.75000000  0.75000000  0.37427200  1
  Ba  Ba19  1  0.75000000  0.75000000  0.12572800  1
  Ba  Ba20  1  0.50000000  0.00000000  0.12517000  1
  Ba  Ba21  1  0.00000000  0.00000000  0.37483000  1
  Ba  Ba22  1  0.25000000  0.75000000  0.12483000  1
  Ba  Ba23  1  0.25000000  0.75000000  0.37517000  1
  Ba  Ba24  1  0.50000000  0.50000000  0.87572800  1
  Ba  Ba25  1  0.00000000  0.50000000  0.62427200  1
  Ba  Ba26  1  0.75000000  0.25000000  0.87427200  1
  Ba  Ba27  1  0.75000000  0.25000000  0.62572800  1
  Ba  Ba28  1  0.50000000  0.50000000  0.62517000  1
  Ba  Ba29  1  0.00000000  0.50000000  0.87483000  1
  Ba  Ba30  1  0.25000000  0.25000000  0.62483000  1
  Ba  Ba31  1  0.25000000  0.25000000  0.87517000  1
  Li  Li32  1  0.50000000  0.66764300  0.00000000  1
  Li  Li33  1  0.00000000  0.83235700  0.00000000  1
  Li  Li34  1  0.25000000  0.58235700  0.75000000  1
  Li  Li35  1  0.25000000  0.91764300  0.75000000  1
  Li  Li36  1  0.50000000  0.16764300  0.50000000  1
  Li  Li37  1  0.00000000  0.33235700  0.50000000  1
  Li  Li38  1  0.25000000  0.08235700  0.25000000  1
  Li  Li39  1  0.25000000  0.41764300  0.25000000  1
  Li  Li40  1  0.00000000  0.66764300  0.50000000  1
  Li  Li41  1  0.50000000  0.83235700  0.50000000  1
  Li  Li42  1  0.75000000  0.58235700  0.25000000  1
  Li  Li43  1  0.75000000  0.91764300  0.25000000  1
  Li  Li44  1  0.00000000  0.16764300  0.00000000  1
  Li  Li45  1  0.50000000  0.33235700  0.00000000  1
  Li  Li46  1  0.75000000  0.08235700  0.75000000  1
  Li  Li47  1  0.75000000  0.41764300  0.75000000  1
  Si  Si48  1  0.26311500  0.92127100  0.99636000  1
  Si  Si49  1  0.26311500  0.57872900  0.50364000  1
  Si  Si50  1  0.23688500  0.92127100  0.50364000  1
  Si  Si51  1  0.23688500  0.57872900  0.99636000  1
  Si  Si52  1  0.75000000  0.59216200  0.75000000  1
  Si  Si53  1  0.75000000  0.90783800  0.75000000  1
  Si  Si54  1  0.00000000  0.65783800  0.00000000  1
  Si  Si55  1  0.50000000  0.84216200  0.00000000  1
  Si  Si56  1  0.51311500  0.67127100  0.75364000  1
  Si  Si57  1  0.51311500  0.82872900  0.74636000  1
  Si  Si58  1  0.98688500  0.67127100  0.74636000  1
  Si  Si59  1  0.98688500  0.82872900  0.75364000  1
  Si  Si60  1  0.26311500  0.42127100  0.49636000  1
  Si  Si61  1  0.26311500  0.07872900  0.00364000  1
  Si  Si62  1  0.23688500  0.42127100  0.00364000  1
  Si  Si63  1  0.23688500  0.07872900  0.49636000  1
  Si  Si64  1  0.75000000  0.09216200  0.25000000  1
  Si  Si65  1  0.75000000  0.40783800  0.25000000  1
  Si  Si66  1  0.00000000  0.15783800  0.50000000  1
  Si  Si67  1  0.50000000  0.34216200  0.50000000  1
  Si  Si68  1  0.51311500  0.17127100  0.25364000  1
  Si  Si69  1  0.51311500  0.32872900  0.24636000  1
  Si  Si70  1  0.98688500  0.17127100  0.24636000  1
  Si  Si71  1  0.98688500  0.32872900  0.25364000  1
  Si  Si72  1  0.76311500  0.92127100  0.49636000  1
  Si  Si73  1  0.76311500  0.57872900  0.00364000  1
  Si  Si74  1  0.73688500  0.92127100  0.00364000  1
  Si  Si75  1  0.73688500  0.57872900  0.49636000  1
  Si  Si76  1  0.25000000  0.59216200  0.25000000  1
  Si  Si77  1  0.25000000  0.90783800  0.25000000  1
  Si  Si78  1  0.50000000  0.65783800  0.50000000  1
  Si  Si79  1  0.00000000  0.84216200  0.50000000  1
  Si  Si80  1  0.01311500  0.67127100  0.25364000  1
  Si  Si81  1  0.01311500  0.82872900  0.24636000  1
  Si  Si82  1  0.48688500  0.67127100  0.24636000  1
  Si  Si83  1  0.48688500  0.82872900  0.25364000  1
  Si  Si84  1  0.76311500  0.42127100  0.99636000  1
  Si  Si85  1  0.76311500  0.07872900  0.50364000  1
  Si  Si86  1  0.73688500  0.42127100  0.50364000  1
  Si  Si87  1  0.73688500  0.07872900  0.99636000  1
  Si  Si88  1  0.25000000  0.09216200  0.75000000  1
  Si  Si89  1  0.25000000  0.40783800  0.75000000  1
  Si  Si90  1  0.50000000  0.15783800  0.00000000  1
  Si  Si91  1  0.00000000  0.34216200  0.00000000  1
  Si  Si92  1  0.01311500  0.17127100  0.75364000  1
  Si  Si93  1  0.01311500  0.32872900  0.74636000  1
  Si  Si94  1  0.48688500  0.17127100  0.74636000  1
  Si  Si95  1  0.48688500  0.32872900  0.75364000  1
