# generated using pymatgen
data_MgSiO3
_symmetry_space_group_name_H-M   'P 1'
_cell_length_a   5.33700900
_cell_length_b   8.92151500
_cell_length_c   18.77323364
_cell_angle_alpha   90.00000000
_cell_angle_beta   94.44965671
_cell_angle_gamma   90.00000000
_symmetry_Int_Tables_number   1
_chemical_formula_structural   MgSiO3
_chemical_formula_sum   'Mg16 Si16 O48'
_cell_volume   891.17837828
_cell_formula_units_Z   16
loop_
 _symmetry_equiv_pos_site_id
 _symmetry_equiv_pos_as_xyz
  1  'x, y, z'
loop_
 _atom_site_type_symbol
 _atom_site_label
 _atom_site_symmetry_multiplicity
 _atom_site_fract_x
 _atom_site_fract_y
 _atom_site_fract_z
 _atom_site_occupancy
  Mg  Mg0  1  0.24916600  0.09999800  0.18618500  1
  Mg  Mg1  1  0.74916600  0.90000200  0.18618500  1
  Mg  Mg2  1  0.25259500  0.74426200  0.18611800  1
  Mg  Mg3  1  0.75259500  0.25573800  0.18611800  1
  Mg  Mg4  1  0.36859400  0.60128500  0.43600500  1
  Mg  Mg5  1  0.86859400  0.39871500  0.43600500  1
  Mg  Mg6  1  0.36720500  0.24128000  0.43734700  1
  Mg  Mg7  1  0.86720500  0.75872000  0.43734700  1
  Mg  Mg8  1  0.81041600  0.10014400  0.68868000  1
  Mg  Mg9  1  0.31041600  0.89985600  0.68868000  1
  Mg  Mg10  1  0.81100000  0.74011800  0.68880600  1
  Mg  Mg11  1  0.31100000  0.25988200  0.68880600  1
  Mg  Mg12  1  0.73970500  0.40085800  0.93880500  1
  Mg  Mg13  1  0.23970500  0.59914200  0.93880500  1
  Mg  Mg14  1  0.24090300  0.24166100  0.93776900  1
  Mg  Mg15  1  0.74090300  0.75833900  0.93776900  1
  Si  Si16  1  0.37247000  0.91193600  0.03867600  1
  Si  Si17  1  0.87247000  0.08806400  0.03867600  1
  Si  Si18  1  0.43298200  0.41194100  0.08513400  1
  Si  Si19  1  0.93298200  0.58805900  0.08513400  1
  Si  Si20  1  0.66128200  0.58955100  0.28933200  1
  Si  Si21  1  0.16128200  0.41044900  0.28933200  1
  Si  Si22  1  0.12638400  0.91173800  0.33259900  1
  Si  Si23  1  0.62638400  0.08826200  0.33259900  1
  Si  Si24  1  0.07945800  0.58954700  0.58375900  1
  Si  Si25  1  0.57945800  0.41045300  0.58375900  1
  Si  Si26  1  0.10274100  0.08933800  0.54193800  1
  Si  Si27  1  0.60274100  0.91066200  0.54193800  1
  Si  Si28  1  0.51722500  0.08962400  0.83611900  1
  Si  Si29  1  0.01722500  0.91037600  0.83611900  1
  Si  Si30  1  0.03728500  0.41062800  0.79223500  1
  Si  Si31  1  0.53728500  0.58937200  0.79223500  1
  O  O32  1  0.40225400  0.90882400  0.12617200  1
  O  O33  1  0.90225400  0.09117600  0.12617200  1
  O  O34  1  0.44256600  0.76062300  0.99738600  1
  O  O35  1  0.94256600  0.23937700  0.99738600  1
  O  O36  1  0.57653400  0.03985900  0.01201500  1
  O  O37  1  0.07653400  0.96014100  0.01201500  1
  O  O38  1  0.41635900  0.41149900  0.99783900  1
  O  O39  1  0.91635900  0.58850100  0.99783900  1
  O  O40  1  0.22816000  0.53601400  0.11363800  1
  O  O41  1  0.72816000  0.46398600  0.11363800  1
  O  O42  1  0.91603100  0.74398100  0.12649000  1
  O  O43  1  0.41603100  0.25601900  0.12649000  1
  O  O44  1  0.18151400  0.40670500  0.37696200  1
  O  O45  1  0.68151400  0.59329500  0.37696200  1
  O  O46  1  0.57840800  0.74147100  0.24681200  1
  O  O47  1  0.07840800  0.25852900  0.24681200  1
  O  O48  1  0.43718300  0.46618100  0.26268400  1
  O  O49  1  0.93718300  0.53381900  0.26268400  1
  O  O50  1  0.60080000  0.09016700  0.24531200  1
  O  O51  1  0.10080000  0.90983300  0.24531200  1
  O  O52  1  0.16749500  0.75842600  0.37650900  1
  O  O53  1  0.66749500  0.24157400  0.37650900  1
  O  O54  1  0.34600800  0.03626700  0.35989600  1
  O  O55  1  0.84600800  0.96373300  0.35989600  1
  O  O56  1  0.55995200  0.40700000  0.49661500  1
  O  O57  1  0.05995200  0.59300000  0.49661500  1
  O  O58  1  0.11245000  0.74338700  0.62829700  1
  O  O59  1  0.61245000  0.25661300  0.62829700  1
  O  O60  1  0.30397000  0.46852000  0.61159800  1
  O  O61  1  0.80397000  0.53148000  0.61159800  1
  O  O62  1  0.12215100  0.09235600  0.62924400  1
  O  O63  1  0.62215100  0.90764400  0.62924400  1
  O  O64  1  0.56704500  0.75647000  0.49813600  1
  O  O65  1  0.06704500  0.24353000  0.49813600  1
  O  O66  1  0.37932700  0.03259200  0.51421500  1
  O  O67  1  0.87932700  0.96740800  0.51421500  1
  O  O68  1  0.49920500  0.09072200  0.74893100  1
  O  O69  1  0.99920500  0.90927800  0.74893100  1
  O  O70  1  0.04340000  0.75249300  0.87706900  1
  O  O71  1  0.54340000  0.24750700  0.87706900  1
  O  O72  1  0.24426700  0.02935700  0.86571700  1
  O  O73  1  0.74426700  0.97064300  0.86571700  1
  O  O74  1  0.05315100  0.40849300  0.87932700  1
  O  O75  1  0.55315100  0.59150700  0.87932700  1
  O  O76  1  0.00914200  0.25467500  0.74970100  1
  O  O77  1  0.50914200  0.74532500  0.74970100  1
  O  O78  1  0.31121600  0.46999300  0.76393000  1
  O  O79  1  0.81121600  0.53000700  0.76393000  1
