# generated using pymatgen
data_RbNdSe2
_symmetry_space_group_name_H-M   'P 1'
_cell_length_a   4.38379829
_cell_length_b   4.38379829
_cell_length_c   24.07992445
_cell_angle_alpha   90.00000000
_cell_angle_beta   90.00000000
_cell_angle_gamma   120.00000000
_symmetry_Int_Tables_number   1
_chemical_formula_structural   RbNdSe2
_chemical_formula_sum   'Rb3 Nd3 Se6'
_cell_volume   400.76231497
_cell_formula_units_Z   3
loop_
 _symmetry_equiv_pos_site_id
 _symmetry_equiv_pos_as_xyz
  1  'x, y, z'
loop_
 _atom_site_type_symbol
 _atom_site_label
 _atom_site_symmetry_multiplicity
 _atom_site_fract_x
 _atom_site_fract_y
 _atom_site_fract_z
 _atom_site_occupancy
  Rb  Rb0  1  0.00000000  0.00000000  0.00000000  1
  Rb  Rb1  1  0.66666667  0.33333333  0.33333333  1
  Rb  Rb2  1  0.33333333  0.66666667  0.66666667  1
  Nd  Nd3  1  0.33333333  0.66666667  0.16666667  1
  Nd  Nd4  1  1.00000000  1.00000000  0.50000000  1
  Nd  Nd5  1  0.66666667  0.33333333  0.83333333  1
  Se  Se6  1  0.66666667  0.33333333  0.09967533  1
  Se  Se7  1  0.00000000  0.00000000  0.23365800  1
  Se  Se8  1  0.33333333  0.66666667  0.43300867  1
  Se  Se9  1  0.66666667  0.33333333  0.56699133  1
  Se  Se10  1  0.00000000  0.00000000  0.76634200  1
  Se  Se11  1  0.33333333  0.66666667  0.90032467  1
