# generated using pymatgen
data_K3GeSe3
_symmetry_space_group_name_H-M   'P 1'
_cell_length_a   9.19249600
_cell_length_b   13.10262800
_cell_length_c   8.59253510
_cell_angle_alpha   90.00000000
_cell_angle_beta   116.82620893
_cell_angle_gamma   90.00000000
_symmetry_Int_Tables_number   1
_chemical_formula_structural   K3GeSe3
_chemical_formula_sum   'K12 Ge4 Se12'
_cell_volume   923.55497154
_cell_formula_units_Z   4
loop_
 _symmetry_equiv_pos_site_id
 _symmetry_equiv_pos_as_xyz
  1  'x, y, z'
loop_
 _atom_site_type_symbol
 _atom_site_label
 _atom_site_symmetry_multiplicity
 _atom_site_fract_x
 _atom_site_fract_y
 _atom_site_fract_z
 _atom_site_occupancy
  K  K0  1  0.75000000  0.25000000  0.00000000  1
  K  K1  1  0.75000000  0.75000000  0.00000000  1
  K  K2  1  0.21076900  0.00000000  0.68265700  1
  K  K3  1  0.78923100  0.00000000  0.31734300  1
  K  K4  1  0.50000000  0.83697500  0.50000000  1
  K  K5  1  0.50000000  0.16302500  0.50000000  1
  K  K6  1  0.25000000  0.75000000  0.00000000  1
  K  K7  1  0.25000000  0.25000000  0.00000000  1
  K  K8  1  0.71076900  0.50000000  0.68265700  1
  K  K9  1  0.28923100  0.50000000  0.31734300  1
  K  K10  1  0.00000000  0.33697500  0.50000000  1
  K  K11  1  0.00000000  0.66302500  0.50000000  1
  Ge  Ge12  1  0.11642100  0.00000000  0.15170500  1
  Ge  Ge13  1  0.88357900  0.00000000  0.84829500  1
  Ge  Ge14  1  0.61642100  0.50000000  0.15170500  1
  Ge  Ge15  1  0.38357900  0.50000000  0.84829500  1
  Se  Se16  1  0.36953800  0.00000000  0.13318400  1
  Se  Se17  1  0.63046200  0.00000000  0.86681600  1
  Se  Se18  1  0.59911200  0.64946800  0.30240500  1
  Se  Se19  1  0.40088800  0.64946800  0.69759500  1
  Se  Se20  1  0.40088800  0.35053200  0.69759500  1
  Se  Se21  1  0.59911200  0.35053200  0.30240500  1
  Se  Se22  1  0.86953800  0.50000000  0.13318400  1
  Se  Se23  1  0.13046200  0.50000000  0.86681600  1
  Se  Se24  1  0.09911200  0.14946800  0.30240500  1
  Se  Se25  1  0.90088800  0.14946800  0.69759500  1
  Se  Se26  1  0.90088800  0.85053200  0.69759500  1
  Se  Se27  1  0.09911200  0.85053200  0.30240500  1
