# generated using pymatgen
data_Ce3ZrO8
_symmetry_space_group_name_H-M   'P 1'
_cell_length_a   10.80079600
_cell_length_b   10.87169400
_cell_length_c   5.43930022
_cell_angle_alpha   90.00000000
_cell_angle_beta   90.23363739
_cell_angle_gamma   90.00000000
_symmetry_Int_Tables_number   1
_chemical_formula_structural   Ce3ZrO8
_chemical_formula_sum   'Ce12 Zr4 O32'
_cell_volume   638.69336284
_cell_formula_units_Z   4
loop_
 _symmetry_equiv_pos_site_id
 _symmetry_equiv_pos_as_xyz
  1  'x, y, z'
loop_
 _atom_site_type_symbol
 _atom_site_label
 _atom_site_symmetry_multiplicity
 _atom_site_fract_x
 _atom_site_fract_y
 _atom_site_fract_z
 _atom_site_occupancy
  Ce  Ce0  1  0.25504850  0.12286150  0.75969100  1
  Ce  Ce1  1  0.50000000  0.37454800  0.75000000  1
  Ce  Ce2  1  0.25504850  0.87713850  0.25969100  1
  Ce  Ce3  1  0.74495150  0.87713850  0.24030900  1
  Ce  Ce4  1  0.74495150  0.12286150  0.74030900  1
  Ce  Ce5  1  0.50000000  0.62545200  0.25000000  1
  Ce  Ce6  1  0.75504850  0.62286150  0.75969100  1
  Ce  Ce7  1  0.00000000  0.87454800  0.75000000  1
  Ce  Ce8  1  0.75504850  0.37713850  0.25969100  1
  Ce  Ce9  1  0.24495150  0.37713850  0.24030900  1
  Ce  Ce10  1  0.24495150  0.62286150  0.74030900  1
  Ce  Ce11  1  0.00000000  0.12545200  0.25000000  1
  Zr  Zr12  1  0.50000000  0.13224500  0.25000000  1
  Zr  Zr13  1  0.50000000  0.86775500  0.75000000  1
  Zr  Zr14  1  0.00000000  0.63224500  0.25000000  1
  Zr  Zr15  1  0.00000000  0.36775500  0.75000000  1
  O  O16  1  0.37939650  0.01532650  0.05601500  1
  O  O17  1  0.37561950  0.25745550  0.98712200  1
  O  O18  1  0.37892800  0.23500900  0.47652700  1
  O  O19  1  0.37939650  0.98467350  0.55601500  1
  O  O20  1  0.62107200  0.23500900  0.02347300  1
  O  O21  1  0.12742000  0.99150100  0.99764500  1
  O  O22  1  0.12742000  0.00849900  0.49764500  1
  O  O23  1  0.62438050  0.25745550  0.51287800  1
  O  O24  1  0.62438050  0.74254450  0.01287800  1
  O  O25  1  0.62060350  0.98467350  0.94398500  1
  O  O26  1  0.62060350  0.01532650  0.44398500  1
  O  O27  1  0.62107200  0.76499100  0.52347300  1
  O  O28  1  0.87258000  0.00849900  0.00235500  1
  O  O29  1  0.37892800  0.76499100  0.97652700  1
  O  O30  1  0.37561950  0.74254450  0.48712200  1
  O  O31  1  0.87258000  0.99150100  0.50235500  1
  O  O32  1  0.87939650  0.51532650  0.05601500  1
  O  O33  1  0.87561950  0.75745550  0.98712200  1
  O  O34  1  0.87892800  0.73500900  0.47652700  1
  O  O35  1  0.87939650  0.48467350  0.55601500  1
  O  O36  1  0.12107200  0.73500900  0.02347300  1
  O  O37  1  0.62742000  0.49150100  0.99764500  1
  O  O38  1  0.62742000  0.50849900  0.49764500  1
  O  O39  1  0.12438050  0.75745550  0.51287800  1
  O  O40  1  0.12438050  0.24254450  0.01287800  1
  O  O41  1  0.12060350  0.48467350  0.94398500  1
  O  O42  1  0.12060350  0.51532650  0.44398500  1
  O  O43  1  0.12107200  0.26499100  0.52347300  1
  O  O44  1  0.37258000  0.50849900  0.00235500  1
  O  O45  1  0.87892800  0.26499100  0.97652700  1
  O  O46  1  0.87561950  0.24254450  0.48712200  1
  O  O47  1  0.37258000  0.49150100  0.50235500  1
