# generated using pymatgen
data_KSm2CuS4
_symmetry_space_group_name_H-M   'P 1'
_cell_length_a   4.03038200
_cell_length_b   13.77454600
_cell_length_c   13.92419200
_cell_angle_alpha   90.00000000
_cell_angle_beta   90.00000000
_cell_angle_gamma   90.00000000
_symmetry_Int_Tables_number   1
_chemical_formula_structural   KSm2CuS4
_chemical_formula_sum   'K4 Sm8 Cu4 S16'
_cell_volume   773.02494294
_cell_formula_units_Z   4
loop_
 _symmetry_equiv_pos_site_id
 _symmetry_equiv_pos_as_xyz
  1  'x, y, z'
loop_
 _atom_site_type_symbol
 _atom_site_label
 _atom_site_symmetry_multiplicity
 _atom_site_fract_x
 _atom_site_fract_y
 _atom_site_fract_z
 _atom_site_occupancy
  K  K0  1  0.50000000  0.39165300  0.75000000  1
  K  K1  1  0.00000000  0.10834700  0.25000000  1
  K  K2  1  0.00000000  0.89165300  0.75000000  1
  K  K3  1  0.50000000  0.60834700  0.25000000  1
  Sm  Sm4  1  0.00000000  0.36552700  0.43718800  1
  Sm  Sm5  1  0.50000000  0.13447300  0.93718800  1
  Sm  Sm6  1  0.00000000  0.36552700  0.06281200  1
  Sm  Sm7  1  0.50000000  0.13447300  0.56281200  1
  Sm  Sm8  1  0.50000000  0.86552700  0.43718800  1
  Sm  Sm9  1  0.00000000  0.63447300  0.93718800  1
  Sm  Sm10  1  0.50000000  0.86552700  0.06281200  1
  Sm  Sm11  1  0.00000000  0.63447300  0.56281200  1
  Cu  Cu12  1  0.50000000  0.33783300  0.25000000  1
  Cu  Cu13  1  0.00000000  0.16216700  0.75000000  1
  Cu  Cu14  1  0.00000000  0.83783300  0.25000000  1
  Cu  Cu15  1  0.50000000  0.66216700  0.75000000  1
  S  S16  1  0.00000000  0.00000000  0.00000000  1
  S  S17  1  0.00000000  0.00000000  0.50000000  1
  S  S18  1  0.00000000  0.26279000  0.61367300  1
  S  S19  1  0.50000000  0.23721000  0.38632700  1
  S  S20  1  0.00000000  0.43052200  0.25000000  1
  S  S21  1  0.00000000  0.26279000  0.88632700  1
  S  S22  1  0.50000000  0.06947800  0.75000000  1
  S  S23  1  0.50000000  0.23721000  0.11367300  1
  S  S24  1  0.50000000  0.50000000  0.00000000  1
  S  S25  1  0.50000000  0.50000000  0.50000000  1
  S  S26  1  0.50000000  0.76279000  0.61367300  1
  S  S27  1  0.00000000  0.73721000  0.38632700  1
  S  S28  1  0.50000000  0.93052200  0.25000000  1
  S  S29  1  0.50000000  0.76279000  0.88632700  1
  S  S30  1  0.00000000  0.56947800  0.75000000  1
  S  S31  1  0.00000000  0.73721000  0.11367300  1
