# generated using pymatgen
data_Cr2SiO4
_symmetry_space_group_name_H-M   'P 1'
_cell_length_a   5.75563004
_cell_length_b   9.86771889
_cell_length_c   11.39978991
_cell_angle_alpha   90.00000000
_cell_angle_beta   90.00000000
_cell_angle_gamma   90.00000000
_symmetry_Int_Tables_number   1
_chemical_formula_structural   Cr2SiO4
_chemical_formula_sum   'Cr16 Si8 O32'
_cell_volume   647.45037483
_cell_formula_units_Z   8
loop_
 _symmetry_equiv_pos_site_id
 _symmetry_equiv_pos_as_xyz
  1  'x, y, z'
loop_
 _atom_site_type_symbol
 _atom_site_label
 _atom_site_symmetry_multiplicity
 _atom_site_fract_x
 _atom_site_fract_y
 _atom_site_fract_z
 _atom_site_occupancy
  Cr  Cr0  1  0.75000000  0.89894050  0.75000000  1
  Cr  Cr1  1  0.50000000  0.64894050  0.50000000  1
  Cr  Cr2  1  0.25000000  0.10105950  0.75000000  1
  Cr  Cr3  1  0.00000000  0.85105950  0.50000000  1
  Cr  Cr4  1  0.75000000  0.39894050  0.25000000  1
  Cr  Cr5  1  0.50000000  0.14894050  0.00000000  1
  Cr  Cr6  1  0.25000000  0.60105950  0.25000000  1
  Cr  Cr7  1  0.00000000  0.35105950  0.00000000  1
  Cr  Cr8  1  0.25000000  0.89894050  0.25000000  1
  Cr  Cr9  1  0.00000000  0.64894050  0.00000000  1
  Cr  Cr10  1  0.75000000  0.10105950  0.25000000  1
  Cr  Cr11  1  0.50000000  0.85105950  0.00000000  1
  Cr  Cr12  1  0.25000000  0.39894050  0.75000000  1
  Cr  Cr13  1  0.00000000  0.14894050  0.50000000  1
  Cr  Cr14  1  0.75000000  0.60105950  0.75000000  1
  Cr  Cr15  1  0.50000000  0.35105950  0.50000000  1
  Si  Si16  1  0.25000000  0.75000000  0.75000000  1
  Si  Si17  1  0.50000000  0.00000000  0.50000000  1
  Si  Si18  1  0.25000000  0.25000000  0.25000000  1
  Si  Si19  1  0.50000000  0.50000000  0.00000000  1
  Si  Si20  1  0.75000000  0.75000000  0.25000000  1
  Si  Si21  1  0.00000000  0.00000000  0.00000000  1
  Si  Si22  1  0.75000000  0.25000000  0.75000000  1
  Si  Si23  1  0.00000000  0.50000000  0.50000000  1
  O  O24  1  0.41752900  0.85345750  0.82583250  1
  O  O25  1  0.41752900  0.64654250  0.67416750  1
  O  O26  1  0.08247100  0.85345750  0.67416750  1
  O  O27  1  0.58247100  0.14654250  0.82583250  1
  O  O28  1  0.33247100  0.89654250  0.42416750  1
  O  O29  1  0.33247100  0.10345750  0.57583250  1
  O  O30  1  0.16752900  0.60345750  0.42416750  1
  O  O31  1  0.66752900  0.89654250  0.57583250  1
  O  O32  1  0.41752900  0.35345750  0.32583250  1
  O  O33  1  0.41752900  0.14654250  0.17416750  1
  O  O34  1  0.08247100  0.35345750  0.17416750  1
  O  O35  1  0.58247100  0.64654250  0.32583250  1
  O  O36  1  0.33247100  0.39654250  0.92416750  1
  O  O37  1  0.33247100  0.60345750  0.07583250  1
  O  O38  1  0.16752900  0.10345750  0.92416750  1
  O  O39  1  0.66752900  0.39654250  0.07583250  1
  O  O40  1  0.91752900  0.85345750  0.32583250  1
  O  O41  1  0.91752900  0.64654250  0.17416750  1
  O  O42  1  0.58247100  0.85345750  0.17416750  1
  O  O43  1  0.08247100  0.14654250  0.32583250  1
  O  O44  1  0.83247100  0.89654250  0.92416750  1
  O  O45  1  0.83247100  0.10345750  0.07583250  1
  O  O46  1  0.66752900  0.60345750  0.92416750  1
  O  O47  1  0.16752900  0.89654250  0.07583250  1
  O  O48  1  0.91752900  0.35345750  0.82583250  1
  O  O49  1  0.91752900  0.14654250  0.67416750  1
  O  O50  1  0.58247100  0.35345750  0.67416750  1
  O  O51  1  0.08247100  0.64654250  0.82583250  1
  O  O52  1  0.83247100  0.39654250  0.42416750  1
  O  O53  1  0.83247100  0.60345750  0.57583250  1
  O  O54  1  0.66752900  0.10345750  0.42416750  1
  O  O55  1  0.16752900  0.39654250  0.57583250  1
