# generated using pymatgen
data_Ba5Gd8Mn4O21
_symmetry_space_group_name_H-M   'P 1'
_cell_length_a   14.15986000
_cell_length_b   14.15986000
_cell_length_c   5.85037600
_cell_angle_alpha   90.00000000
_cell_angle_beta   90.00000000
_cell_angle_gamma   90.00000000
_symmetry_Int_Tables_number   1
_chemical_formula_structural   Ba5Gd8Mn4O21
_chemical_formula_sum   'Ba10 Gd16 Mn8 O42'
_cell_volume   1173.00995465
_cell_formula_units_Z   2
loop_
 _symmetry_equiv_pos_site_id
 _symmetry_equiv_pos_as_xyz
  1  'x, y, z'
loop_
 _atom_site_type_symbol
 _atom_site_label
 _atom_site_symmetry_multiplicity
 _atom_site_fract_x
 _atom_site_fract_y
 _atom_site_fract_z
 _atom_site_occupancy
  Ba  Ba0  1  0.63796200  0.96724900  0.50000000  1
  Ba  Ba1  1  0.36203800  0.03275100  0.50000000  1
  Ba  Ba2  1  0.53275100  0.13796200  0.00000000  1
  Ba  Ba3  1  0.46724900  0.86203800  0.00000000  1
  Ba  Ba4  1  0.00000000  0.00000000  0.00000000  1
  Ba  Ba5  1  0.13796200  0.46724900  0.00000000  1
  Ba  Ba6  1  0.86203800  0.53275100  0.00000000  1
  Ba  Ba7  1  0.03275100  0.63796200  0.50000000  1
  Ba  Ba8  1  0.96724900  0.36203800  0.50000000  1
  Ba  Ba9  1  0.50000000  0.50000000  0.50000000  1
  Gd  Gd10  1  0.24805500  0.16940300  0.00000000  1
  Gd  Gd11  1  0.33059700  0.74805500  0.50000000  1
  Gd  Gd12  1  0.66940300  0.25194500  0.50000000  1
  Gd  Gd13  1  0.75194500  0.83059700  0.00000000  1
  Gd  Gd14  1  0.41044550  0.35835250  0.00000000  1
  Gd  Gd15  1  0.14164750  0.91044550  0.50000000  1
  Gd  Gd16  1  0.85835250  0.08955450  0.50000000  1
  Gd  Gd17  1  0.58955450  0.64164750  0.00000000  1
  Gd  Gd18  1  0.74805500  0.66940300  0.50000000  1
  Gd  Gd19  1  0.83059700  0.24805500  0.00000000  1
  Gd  Gd20  1  0.16940300  0.75194500  0.00000000  1
  Gd  Gd21  1  0.25194500  0.33059700  0.50000000  1
  Gd  Gd22  1  0.91044550  0.85835250  0.50000000  1
  Gd  Gd23  1  0.64164750  0.41044550  0.00000000  1
  Gd  Gd24  1  0.35835250  0.58955450  0.00000000  1
  Gd  Gd25  1  0.08955450  0.14164750  0.50000000  1
  Mn  Mn26  1  0.45977300  0.25048200  0.50000000  1
  Mn  Mn27  1  0.75048200  0.04022700  0.00000000  1
  Mn  Mn28  1  0.54022700  0.74951800  0.50000000  1
  Mn  Mn29  1  0.24951800  0.95977300  0.00000000  1
  Mn  Mn30  1  0.95977300  0.75048200  0.00000000  1
  Mn  Mn31  1  0.25048200  0.54022700  0.50000000  1
  Mn  Mn32  1  0.04022700  0.24951800  0.00000000  1
  Mn  Mn33  1  0.74951800  0.45977300  0.50000000  1
  O  O34  1  0.35123450  0.24235350  0.74923850  1
  O  O35  1  0.25764650  0.85123450  0.24923850  1
  O  O36  1  0.74235350  0.14876550  0.24923850  1
  O  O37  1  0.64876550  0.75764650  0.74923850  1
  O  O38  1  0.64876550  0.75764650  0.25076150  1
  O  O39  1  0.74235350  0.14876550  0.75076150  1
  O  O40  1  0.25764650  0.85123450  0.75076150  1
  O  O41  1  0.35123450  0.24235350  0.25076150  1
  O  O42  1  0.17803050  0.04773050  0.75019450  1
  O  O43  1  0.45226950  0.67803050  0.25019450  1
  O  O44  1  0.54773050  0.32196950  0.25019450  1
  O  O45  1  0.82196950  0.95226950  0.75019450  1
  O  O46  1  0.82196950  0.95226950  0.24980550  1
  O  O47  1  0.54773050  0.32196950  0.74980550  1
  O  O48  1  0.45226950  0.67803050  0.74980550  1
  O  O49  1  0.17803050  0.04773050  0.24980550  1
  O  O50  1  0.37470900  0.03533700  0.00000000  1
  O  O51  1  0.00000000  0.00000000  0.50000000  1
  O  O52  1  0.62529100  0.96466300  0.00000000  1
  O  O53  1  0.53533700  0.12529100  0.50000000  1
  O  O54  1  0.46466300  0.87470900  0.50000000  1
  O  O55  1  0.85123450  0.74235350  0.24923850  1
  O  O56  1  0.75764650  0.35123450  0.74923850  1
  O  O57  1  0.24235350  0.64876550  0.74923850  1
  O  O58  1  0.14876550  0.25764650  0.24923850  1
  O  O59  1  0.14876550  0.25764650  0.75076150  1
  O  O60  1  0.24235350  0.64876550  0.25076150  1
  O  O61  1  0.75764650  0.35123450  0.25076150  1
  O  O62  1  0.85123450  0.74235350  0.75076150  1
  O  O63  1  0.67803050  0.54773050  0.25019450  1
  O  O64  1  0.95226950  0.17803050  0.75019450  1
  O  O65  1  0.04773050  0.82196950  0.75019450  1
  O  O66  1  0.32196950  0.45226950  0.25019450  1
  O  O67  1  0.32196950  0.45226950  0.74980550  1
  O  O68  1  0.04773050  0.82196950  0.24980550  1
  O  O69  1  0.95226950  0.17803050  0.24980550  1
  O  O70  1  0.67803050  0.54773050  0.74980550  1
  O  O71  1  0.87470900  0.53533700  0.50000000  1
  O  O72  1  0.50000000  0.50000000  0.00000000  1
  O  O73  1  0.12529100  0.46466300  0.50000000  1
  O  O74  1  0.03533700  0.62529100  0.00000000  1
  O  O75  1  0.96466300  0.37470900  0.00000000  1
