# generated using pymatgen
data_Rb2As3
_symmetry_space_group_name_H-M   'P 1'
_cell_length_a   9.32393400
_cell_length_b   10.30645000
_cell_length_c   15.55082400
_cell_angle_alpha   90.00000000
_cell_angle_beta   90.00000000
_cell_angle_gamma   90.00000000
_symmetry_Int_Tables_number   1
_chemical_formula_structural   Rb2As3
_chemical_formula_sum   'Rb16 As24'
_cell_volume   1494.38224003
_cell_formula_units_Z   8
loop_
 _symmetry_equiv_pos_site_id
 _symmetry_equiv_pos_as_xyz
  1  'x, y, z'
loop_
 _atom_site_type_symbol
 _atom_site_label
 _atom_site_symmetry_multiplicity
 _atom_site_fract_x
 _atom_site_fract_y
 _atom_site_fract_z
 _atom_site_occupancy
  Rb  Rb0  1  0.75000000  0.25000000  0.25000000  1
  Rb  Rb1  1  0.75000000  0.75000000  0.25000000  1
  Rb  Rb2  1  0.50000000  0.23835900  0.00000000  1
  Rb  Rb3  1  0.50000000  0.76164100  0.00000000  1
  Rb  Rb4  1  0.75000000  0.75000000  0.75000000  1
  Rb  Rb5  1  0.75000000  0.25000000  0.75000000  1
  Rb  Rb6  1  0.50000000  0.73835900  0.50000000  1
  Rb  Rb7  1  0.50000000  0.26164100  0.50000000  1
  Rb  Rb8  1  0.25000000  0.25000000  0.75000000  1
  Rb  Rb9  1  0.25000000  0.75000000  0.75000000  1
  Rb  Rb10  1  0.00000000  0.23835900  0.50000000  1
  Rb  Rb11  1  0.00000000  0.76164100  0.50000000  1
  Rb  Rb12  1  0.25000000  0.75000000  0.25000000  1
  Rb  Rb13  1  0.25000000  0.25000000  0.25000000  1
  Rb  Rb14  1  0.00000000  0.73835900  0.00000000  1
  Rb  Rb15  1  0.00000000  0.26164100  0.00000000  1
  As  As16  1  0.27486500  0.00000000  0.42206600  1
  As  As17  1  0.77486500  0.00000000  0.07793400  1
  As  As18  1  0.22513500  0.00000000  0.07793400  1
  As  As19  1  0.72513500  0.00000000  0.42206600  1
  As  As20  1  0.50000000  0.00000000  0.34342800  1
  As  As21  1  0.00000000  0.00000000  0.15657200  1
  As  As22  1  0.27486500  0.50000000  0.92206600  1
  As  As23  1  0.77486500  0.50000000  0.57793400  1
  As  As24  1  0.22513500  0.50000000  0.57793400  1
  As  As25  1  0.72513500  0.50000000  0.92206600  1
  As  As26  1  0.50000000  0.50000000  0.84342800  1
  As  As27  1  0.00000000  0.50000000  0.65657200  1
  As  As28  1  0.77486500  0.00000000  0.92206600  1
  As  As29  1  0.27486500  0.00000000  0.57793400  1
  As  As30  1  0.72513500  0.00000000  0.57793400  1
  As  As31  1  0.22513500  0.00000000  0.92206600  1
  As  As32  1  0.00000000  0.00000000  0.84342800  1
  As  As33  1  0.50000000  0.00000000  0.65657200  1
  As  As34  1  0.77486500  0.50000000  0.42206600  1
  As  As35  1  0.27486500  0.50000000  0.07793400  1
  As  As36  1  0.72513500  0.50000000  0.07793400  1
  As  As37  1  0.22513500  0.50000000  0.42206600  1
  As  As38  1  0.00000000  0.50000000  0.34342800  1
  As  As39  1  0.50000000  0.50000000  0.15657200  1
