# generated using pymatgen
data_LiCa3Si2N5
_symmetry_space_group_name_H-M   'P 1'
_cell_length_a   5.18188600
_cell_length_b   20.51838400
_cell_length_c   10.42045936
_cell_angle_alpha   90.00000000
_cell_angle_beta   91.05646059
_cell_angle_gamma   90.00000000
_symmetry_Int_Tables_number   1
_chemical_formula_structural   LiCa3Si2N5
_chemical_formula_sum   'Li8 Ca24 Si16 N40'
_cell_volume   1107.75582018
_cell_formula_units_Z   8
loop_
 _symmetry_equiv_pos_site_id
 _symmetry_equiv_pos_as_xyz
  1  'x, y, z'
loop_
 _atom_site_type_symbol
 _atom_site_label
 _atom_site_symmetry_multiplicity
 _atom_site_fract_x
 _atom_site_fract_y
 _atom_site_fract_z
 _atom_site_occupancy
  Li  Li0  1  0.00000000  0.15492900  0.25000000  1
  Li  Li1  1  0.50000000  0.34507100  0.75000000  1
  Li  Li2  1  0.50000000  0.12779100  0.25000000  1
  Li  Li3  1  0.00000000  0.37220900  0.75000000  1
  Li  Li4  1  0.50000000  0.65492900  0.25000000  1
  Li  Li5  1  0.00000000  0.84507100  0.75000000  1
  Li  Li6  1  0.00000000  0.62779100  0.25000000  1
  Li  Li7  1  0.50000000  0.87220900  0.75000000  1
  Ca  Ca8  1  0.74625500  0.28494800  0.14560300  1
  Ca  Ca9  1  0.25374500  0.28494800  0.35439700  1
  Ca  Ca10  1  0.75374500  0.21505200  0.85439700  1
  Ca  Ca11  1  0.24625500  0.21505200  0.64560300  1
  Ca  Ca12  1  0.75296050  0.41030650  0.35537400  1
  Ca  Ca13  1  0.24703950  0.41030650  0.14462600  1
  Ca  Ca14  1  0.74703950  0.08969350  0.64462600  1
  Ca  Ca15  1  0.25296050  0.08969350  0.85537400  1
  Ca  Ca16  1  0.75073350  0.01903050  0.36790600  1
  Ca  Ca17  1  0.24926650  0.01903050  0.13209400  1
  Ca  Ca18  1  0.74926650  0.48096950  0.63209400  1
  Ca  Ca19  1  0.25073350  0.48096950  0.86790600  1
  Ca  Ca20  1  0.24625500  0.78494800  0.14560300  1
  Ca  Ca21  1  0.75374500  0.78494800  0.35439700  1
  Ca  Ca22  1  0.25374500  0.71505200  0.85439700  1
  Ca  Ca23  1  0.74625500  0.71505200  0.64560300  1
  Ca  Ca24  1  0.25296050  0.91030650  0.35537400  1
  Ca  Ca25  1  0.74703950  0.91030650  0.14462600  1
  Ca  Ca26  1  0.24703950  0.58969350  0.64462600  1
  Ca  Ca27  1  0.75296050  0.58969350  0.85537400  1
  Ca  Ca28  1  0.25073350  0.51903050  0.36790600  1
  Ca  Ca29  1  0.74926650  0.51903050  0.13209400  1
  Ca  Ca30  1  0.24926650  0.98096950  0.63209400  1
  Ca  Ca31  1  0.75073350  0.98096950  0.86790600  1
  Si  Si32  1  0.70332900  0.39527500  0.96205100  1
  Si  Si33  1  0.29667100  0.39527500  0.53794900  1
  Si  Si34  1  0.79667100  0.10472500  0.03794900  1
  Si  Si35  1  0.20332900  0.10472500  0.46205100  1
  Si  Si36  1  0.30960100  0.19646400  0.04762900  1
  Si  Si37  1  0.69039900  0.19646400  0.45237100  1
  Si  Si38  1  0.19039900  0.30353600  0.95237100  1
  Si  Si39  1  0.80960100  0.30353600  0.54762900  1
  Si  Si40  1  0.20332900  0.89527500  0.96205100  1
  Si  Si41  1  0.79667100  0.89527500  0.53794900  1
  Si  Si42  1  0.29667100  0.60472500  0.03794900  1
  Si  Si43  1  0.70332900  0.60472500  0.46205100  1
  Si  Si44  1  0.80960100  0.69646400  0.04762900  1
  Si  Si45  1  0.19039900  0.69646400  0.45237100  1
  Si  Si46  1  0.69039900  0.80353600  0.95237100  1
  Si  Si47  1  0.30960100  0.80353600  0.54762900  1
  N  N48  1  0.77200650  0.27391350  0.38346600  1
  N  N49  1  0.22799350  0.27391350  0.11653400  1
  N  N50  1  0.72799350  0.22608650  0.61653400  1
  N  N51  1  0.27200650  0.22608650  0.88346600  1
  N  N52  1  0.37367650  0.37198950  0.92316400  1
  N  N53  1  0.62632350  0.37198950  0.57683600  1
  N  N54  1  0.12632350  0.12801050  0.07683600  1
  N  N55  1  0.87367650  0.12801050  0.42316400  1
  N  N56  1  0.73312750  0.03306950  0.12275100  1
  N  N57  1  0.26687250  0.03306950  0.37724900  1
  N  N58  1  0.76687250  0.46693050  0.87724900  1
  N  N59  1  0.23312750  0.46693050  0.62275100  1
  N  N60  1  0.73561850  0.40227050  0.13022700  1
  N  N61  1  0.26438150  0.40227050  0.36977300  1
  N  N62  1  0.76438150  0.09772950  0.86977300  1
  N  N63  1  0.23561850  0.09772950  0.63022700  1
  N  N64  1  0.62818000  0.17633900  0.08789200  1
  N  N65  1  0.37182000  0.17633900  0.41210800  1
  N  N66  1  0.87182000  0.32366100  0.91210800  1
  N  N67  1  0.12818000  0.32366100  0.58789200  1
  N  N68  1  0.27200650  0.77391350  0.38346600  1
  N  N69  1  0.72799350  0.77391350  0.11653400  1
  N  N70  1  0.22799350  0.72608650  0.61653400  1
  N  N71  1  0.77200650  0.72608650  0.88346600  1
  N  N72  1  0.87367650  0.87198950  0.92316400  1
  N  N73  1  0.12632350  0.87198950  0.57683600  1
  N  N74  1  0.62632350  0.62801050  0.07683600  1
  N  N75  1  0.37367650  0.62801050  0.42316400  1
  N  N76  1  0.23312750  0.53306950  0.12275100  1
  N  N77  1  0.76687250  0.53306950  0.37724900  1
  N  N78  1  0.26687250  0.96693050  0.87724900  1
  N  N79  1  0.73312750  0.96693050  0.62275100  1
  N  N80  1  0.23561850  0.90227050  0.13022700  1
  N  N81  1  0.76438150  0.90227050  0.36977300  1
  N  N82  1  0.26438150  0.59772950  0.86977300  1
  N  N83  1  0.73561850  0.59772950  0.63022700  1
  N  N84  1  0.12818000  0.67633900  0.08789200  1
  N  N85  1  0.87182000  0.67633900  0.41210800  1
  N  N86  1  0.37182000  0.82366100  0.91210800  1
  N  N87  1  0.62818000  0.82366100  0.58789200  1
