# generated using pymatgen
data_TlZnPO4
_symmetry_space_group_name_H-M   'P 1'
_cell_length_a   8.90029800
_cell_length_b   5.54496200
_cell_length_c   9.01053466
_cell_angle_alpha   90.00000000
_cell_angle_beta   90.66047304
_cell_angle_gamma   90.00000000
_symmetry_Int_Tables_number   1
_chemical_formula_structural   TlZnPO4
_chemical_formula_sum   'Tl4 Zn4 P4 O16'
_cell_volume   444.65668741
_cell_formula_units_Z   4
loop_
 _symmetry_equiv_pos_site_id
 _symmetry_equiv_pos_as_xyz
  1  'x, y, z'
loop_
 _atom_site_type_symbol
 _atom_site_label
 _atom_site_symmetry_multiplicity
 _atom_site_fract_x
 _atom_site_fract_y
 _atom_site_fract_z
 _atom_site_occupancy
  Tl  Tl0  1  0.50607700  0.48635400  0.31260900  1
  Tl  Tl1  1  0.49392300  0.98635400  0.68739100  1
  Tl  Tl2  1  0.00287300  0.51174300  0.18700400  1
  Tl  Tl3  1  0.99712700  0.01174300  0.81299600  1
  Zn  Zn4  1  0.67250100  0.52145800  0.92449000  1
  Zn  Zn5  1  0.32749900  0.02145800  0.07551000  1
  Zn  Zn6  1  0.17293100  0.49727700  0.59489700  1
  Zn  Zn7  1  0.82706900  0.99727700  0.40510300  1
  P  P8  1  0.30590600  0.52041300  0.92955500  1
  P  P9  1  0.69409400  0.02041300  0.07044500  1
  P  P10  1  0.80652400  0.49815200  0.59780000  1
  P  P11  1  0.19347600  0.99815200  0.40220000  1
  O  O12  1  0.68539700  0.07054800  0.23967300  1
  O  O13  1  0.31460300  0.57054800  0.76032700  1
  O  O14  1  0.22923000  0.72939600  0.43962400  1
  O  O15  1  0.77077000  0.22939600  0.56037600  1
  O  O16  1  0.21841900  0.72908100  0.00795000  1
  O  O17  1  0.78158100  0.22908100  0.99205000  1
  O  O18  1  0.31083200  0.08885600  0.28786700  1
  O  O19  1  0.68916800  0.58885600  0.71213300  1
  O  O20  1  0.79072600  0.65353100  0.45449500  1
  O  O21  1  0.20927400  0.15353100  0.54550500  1
  O  O22  1  0.22043400  0.28013200  0.96072800  1
  O  O23  1  0.77956600  0.78013200  0.03927200  1
  O  O24  1  0.96623400  0.52118500  0.66835200  1
  O  O25  1  0.03376600  0.02118500  0.33164800  1
  O  O26  1  0.53413600  0.00387500  0.00142100  1
  O  O27  1  0.46586400  0.50387500  0.99857900  1
