# generated using pymatgen
data_TiZnO3
_symmetry_space_group_name_H-M   'P 1'
_cell_length_a   5.12920026
_cell_length_b   5.12920026
_cell_length_c   14.08387091
_cell_angle_alpha   90.00000000
_cell_angle_beta   90.00000000
_cell_angle_gamma   120.00000000
_symmetry_Int_Tables_number   1
_chemical_formula_structural   TiZnO3
_chemical_formula_sum   'Ti6 Zn6 O18'
_cell_volume   320.88689320
_cell_formula_units_Z   6
loop_
 _symmetry_equiv_pos_site_id
 _symmetry_equiv_pos_as_xyz
  1  'x, y, z'
loop_
 _atom_site_type_symbol
 _atom_site_label
 _atom_site_symmetry_multiplicity
 _atom_site_fract_x
 _atom_site_fract_y
 _atom_site_fract_z
 _atom_site_occupancy
  Ti  Ti0  1  0.00000000  0.00000000  0.14560200  1
  Ti  Ti1  1  0.66666667  0.33333333  0.18773133  1
  Ti  Ti2  1  0.66666667  0.33333333  0.47893533  1
  Ti  Ti3  1  0.33333333  0.66666667  0.52106467  1
  Ti  Ti4  1  0.33333333  0.66666667  0.81226867  1
  Ti  Ti5  1  0.00000000  0.00000000  0.85439800  1
  Zn  Zn6  1  0.33333333  0.66666667  0.02734267  1
  Zn  Zn7  1  0.33333333  0.66666667  0.30599067  1
  Zn  Zn8  1  0.00000000  0.00000000  0.36067600  1
  Zn  Zn9  1  0.00000000  0.00000000  0.63932400  1
  Zn  Zn10  1  0.66666667  0.33333333  0.69400933  1
  Zn  Zn11  1  0.66666667  0.33333333  0.97265733  1
  O  O12  1  0.34886133  0.03741067  0.08791067  1
  O  O13  1  0.96258933  0.31145067  0.08791067  1
  O  O14  1  0.68854933  0.65113867  0.08791067  1
  O  O15  1  0.31780533  0.29592267  0.24542267  1
  O  O16  1  0.97811733  0.68219467  0.24542267  1
  O  O17  1  0.70407733  0.02188267  0.24542267  1
  O  O18  1  0.01552800  0.37074400  0.42124400  1
  O  O19  1  0.62925600  0.64478400  0.42124400  1
  O  O20  1  0.35521600  0.98447200  0.42124400  1
  O  O21  1  0.98447200  0.62925600  0.57875600  1
  O  O22  1  0.64478400  0.01552800  0.57875600  1
  O  O23  1  0.37074400  0.35521600  0.57875600  1
  O  O24  1  0.68219467  0.70407733  0.75457733  1
  O  O25  1  0.29592267  0.97811733  0.75457733  1
  O  O26  1  0.02188267  0.31780533  0.75457733  1
  O  O27  1  0.65113867  0.96258933  0.91208933  1
  O  O28  1  0.31145067  0.34886133  0.91208933  1
  O  O29  1  0.03741067  0.68854933  0.91208933  1
