# generated using pymatgen
data_Na3Li3Sc2F12
_symmetry_space_group_name_H-M   'P 1'
_cell_length_a   12.77320200
_cell_length_b   12.77320200
_cell_length_c   12.77320200
_cell_angle_alpha   90.00000000
_cell_angle_beta   90.00000000
_cell_angle_gamma   90.00000000
_symmetry_Int_Tables_number   1
_chemical_formula_structural   Na3Li3Sc2F12
_chemical_formula_sum   'Na24 Li24 Sc16 F96'
_cell_volume   2084.00780410
_cell_formula_units_Z   8
loop_
 _symmetry_equiv_pos_site_id
 _symmetry_equiv_pos_as_xyz
  1  'x, y, z'
loop_
 _atom_site_type_symbol
 _atom_site_label
 _atom_site_symmetry_multiplicity
 _atom_site_fract_x
 _atom_site_fract_y
 _atom_site_fract_z
 _atom_site_occupancy
  Na  Na0  1  0.50000000  0.25000000  0.37500000  1
  Na  Na1  1  0.00000000  0.25000000  0.62500000  1
  Na  Na2  1  0.37500000  0.50000000  0.25000000  1
  Na  Na3  1  0.25000000  0.37500000  0.50000000  1
  Na  Na4  1  0.25000000  0.62500000  0.00000000  1
  Na  Na5  1  0.62500000  0.00000000  0.25000000  1
  Na  Na6  1  0.00000000  0.25000000  0.12500000  1
  Na  Na7  1  0.50000000  0.25000000  0.87500000  1
  Na  Na8  1  0.12500000  0.00000000  0.25000000  1
  Na  Na9  1  0.25000000  0.12500000  0.00000000  1
  Na  Na10  1  0.87500000  0.50000000  0.25000000  1
  Na  Na11  1  0.25000000  0.87500000  0.50000000  1
  Na  Na12  1  0.00000000  0.75000000  0.87500000  1
  Na  Na13  1  0.50000000  0.75000000  0.12500000  1
  Na  Na14  1  0.87500000  0.00000000  0.75000000  1
  Na  Na15  1  0.75000000  0.87500000  0.00000000  1
  Na  Na16  1  0.75000000  0.12500000  0.50000000  1
  Na  Na17  1  0.12500000  0.50000000  0.75000000  1
  Na  Na18  1  0.50000000  0.75000000  0.62500000  1
  Na  Na19  1  0.00000000  0.75000000  0.37500000  1
  Na  Na20  1  0.62500000  0.50000000  0.75000000  1
  Na  Na21  1  0.75000000  0.62500000  0.50000000  1
  Na  Na22  1  0.37500000  0.00000000  0.75000000  1
  Na  Na23  1  0.75000000  0.37500000  0.00000000  1
  Li  Li24  1  0.25000000  0.12500000  0.50000000  1
  Li  Li25  1  0.12500000  0.00000000  0.75000000  1
  Li  Li26  1  0.37500000  0.50000000  0.75000000  1
  Li  Li27  1  0.50000000  0.25000000  0.12500000  1
  Li  Li28  1  0.50000000  0.75000000  0.37500000  1
  Li  Li29  1  0.75000000  0.37500000  0.50000000  1
  Li  Li30  1  0.00000000  0.25000000  0.37500000  1
  Li  Li31  1  0.00000000  0.75000000  0.12500000  1
  Li  Li32  1  0.37500000  0.00000000  0.25000000  1
  Li  Li33  1  0.25000000  0.37500000  0.00000000  1
  Li  Li34  1  0.75000000  0.12500000  0.00000000  1
  Li  Li35  1  0.12500000  0.50000000  0.25000000  1
  Li  Li36  1  0.75000000  0.62500000  0.00000000  1
  Li  Li37  1  0.62500000  0.50000000  0.25000000  1
  Li  Li38  1  0.87500000  0.00000000  0.25000000  1
  Li  Li39  1  0.00000000  0.75000000  0.62500000  1
  Li  Li40  1  0.00000000  0.25000000  0.87500000  1
  Li  Li41  1  0.25000000  0.87500000  0.00000000  1
  Li  Li42  1  0.50000000  0.75000000  0.87500000  1
  Li  Li43  1  0.50000000  0.25000000  0.62500000  1
  Li  Li44  1  0.87500000  0.50000000  0.75000000  1
  Li  Li45  1  0.75000000  0.87500000  0.50000000  1
  Li  Li46  1  0.25000000  0.62500000  0.50000000  1
  Li  Li47  1  0.62500000  0.00000000  0.75000000  1
  Sc  Sc48  1  0.00000000  0.50000000  0.00000000  1
  Sc  Sc49  1  0.25000000  0.75000000  0.25000000  1
  Sc  Sc50  1  0.25000000  0.25000000  0.25000000  1
  Sc  Sc51  1  0.25000000  0.25000000  0.75000000  1
  Sc  Sc52  1  0.00000000  0.00000000  0.00000000  1
  Sc  Sc53  1  0.50000000  0.00000000  0.00000000  1
  Sc  Sc54  1  0.00000000  0.00000000  0.50000000  1
  Sc  Sc55  1  0.75000000  0.25000000  0.25000000  1
  Sc  Sc56  1  0.50000000  0.00000000  0.50000000  1
  Sc  Sc57  1  0.75000000  0.25000000  0.75000000  1
  Sc  Sc58  1  0.75000000  0.75000000  0.75000000  1
  Sc  Sc59  1  0.75000000  0.75000000  0.25000000  1
  Sc  Sc60  1  0.50000000  0.50000000  0.50000000  1
  Sc  Sc61  1  0.00000000  0.50000000  0.50000000  1
  Sc  Sc62  1  0.50000000  0.50000000  0.00000000  1
  Sc  Sc63  1  0.25000000  0.75000000  0.75000000  1
  F  F64  1  0.35126200  0.47060200  0.04945000  1
  F  F65  1  0.22060200  0.60126200  0.20055000  1
  F  F66  1  0.39873800  0.29945000  0.22060200  1
  F  F67  1  0.22060200  0.39873800  0.29945000  1
  F  F68  1  0.60126200  0.79945000  0.27939800  1
  F  F69  1  0.35126200  0.52939800  0.45055000  1
  F  F70  1  0.64873800  0.02939800  0.04945000  1
  F  F71  1  0.45055000  0.35126200  0.52939800  1
  F  F72  1  0.77939800  0.89873800  0.20055000  1
  F  F73  1  0.27939800  0.60126200  0.79945000  1
  F  F74  1  0.60126200  0.20055000  0.22060200  1
  F  F75  1  0.29945000  0.22060200  0.39873800  1
  F  F76  1  0.47060200  0.04945000  0.35126200  1
  F  F77  1  0.20055000  0.22060200  0.60126200  1
  F  F78  1  0.04945000  0.64873800  0.02939800  1
  F  F79  1  0.79945000  0.27939800  0.60126200  1
  F  F80  1  0.14873800  0.47060200  0.95055000  1
  F  F81  1  0.89873800  0.20055000  0.77939800  1
  F  F82  1  0.52939800  0.45055000  0.35126200  1
  F  F83  1  0.04945000  0.35126200  0.47060200  1
  F  F84  1  0.29945000  0.72060200  0.60126200  1
  F  F85  1  0.47060200  0.45055000  0.85126200  1
  F  F86  1  0.02939800  0.54945000  0.35126200  1
  F  F87  1  0.04945000  0.14873800  0.97060200  1
  F  F88  1  0.54945000  0.35126200  0.02939800  1
  F  F89  1  0.85126200  0.47060200  0.45055000  1
  F  F90  1  0.14873800  0.97060200  0.04945000  1
  F  F91  1  0.89873800  0.70055000  0.22060200  1
  F  F92  1  0.27939800  0.10126200  0.20055000  1
  F  F93  1  0.10126200  0.20055000  0.27939800  1
  F  F94  1  0.27939800  0.89873800  0.29945000  1
  F  F95  1  0.60126200  0.29945000  0.72060200  1
  F  F96  1  0.72060200  0.60126200  0.29945000  1
  F  F97  1  0.22060200  0.89873800  0.70055000  1
  F  F98  1  0.89873800  0.29945000  0.27939800  1
  F  F99  1  0.20055000  0.27939800  0.10126200  1
  F  F100  1  0.02939800  0.45055000  0.14873800  1
  F  F101  1  0.29945000  0.27939800  0.89873800  1
  F  F102  1  0.45055000  0.85126200  0.47060200  1
  F  F103  1  0.70055000  0.22060200  0.89873800  1
  F  F104  1  0.35126200  0.02939800  0.54945000  1
  F  F105  1  0.97060200  0.04945000  0.14873800  1
  F  F106  1  0.45055000  0.14873800  0.02939800  1
  F  F107  1  0.14873800  0.02939800  0.45055000  1
  F  F108  1  0.20055000  0.77939800  0.89873800  1
  F  F109  1  0.02939800  0.04945000  0.64873800  1
  F  F110  1  0.47060200  0.95055000  0.14873800  1
  F  F111  1  0.95055000  0.14873800  0.47060200  1
  F  F112  1  0.85126200  0.97060200  0.54945000  1
  F  F113  1  0.72060200  0.10126200  0.70055000  1
  F  F114  1  0.89873800  0.79945000  0.72060200  1
  F  F115  1  0.72060200  0.89873800  0.79945000  1
  F  F116  1  0.10126200  0.29945000  0.77939800  1
  F  F117  1  0.85126200  0.02939800  0.95055000  1
  F  F118  1  0.14873800  0.52939800  0.54945000  1
  F  F119  1  0.95055000  0.85126200  0.02939800  1
  F  F120  1  0.27939800  0.39873800  0.70055000  1
  F  F121  1  0.77939800  0.10126200  0.29945000  1
  F  F122  1  0.10126200  0.70055000  0.72060200  1
  F  F123  1  0.79945000  0.72060200  0.89873800  1
  F  F124  1  0.97060200  0.54945000  0.85126200  1
  F  F125  1  0.70055000  0.72060200  0.10126200  1
  F  F126  1  0.54945000  0.14873800  0.52939800  1
  F  F127  1  0.29945000  0.77939800  0.10126200  1
  F  F128  1  0.64873800  0.97060200  0.45055000  1
  F  F129  1  0.39873800  0.70055000  0.27939800  1
  F  F130  1  0.02939800  0.95055000  0.85126200  1
  F  F131  1  0.54945000  0.85126200  0.97060200  1
  F  F132  1  0.79945000  0.22060200  0.10126200  1
  F  F133  1  0.97060200  0.95055000  0.35126200  1
  F  F134  1  0.52939800  0.04945000  0.85126200  1
  F  F135  1  0.54945000  0.64873800  0.47060200  1
  F  F136  1  0.04945000  0.85126200  0.52939800  1
  F  F137  1  0.35126200  0.97060200  0.95055000  1
  F  F138  1  0.64873800  0.47060200  0.54945000  1
  F  F139  1  0.39873800  0.20055000  0.72060200  1
  F  F140  1  0.77939800  0.60126200  0.70055000  1
  F  F141  1  0.60126200  0.70055000  0.77939800  1
  F  F142  1  0.77939800  0.39873800  0.79945000  1
  F  F143  1  0.10126200  0.79945000  0.22060200  1
  F  F144  1  0.22060200  0.10126200  0.79945000  1
  F  F145  1  0.72060200  0.39873800  0.20055000  1
  F  F146  1  0.39873800  0.79945000  0.77939800  1
  F  F147  1  0.70055000  0.77939800  0.60126200  1
  F  F148  1  0.52939800  0.95055000  0.64873800  1
  F  F149  1  0.79945000  0.77939800  0.39873800  1
  F  F150  1  0.95055000  0.35126200  0.97060200  1
  F  F151  1  0.20055000  0.72060200  0.39873800  1
  F  F152  1  0.85126200  0.52939800  0.04945000  1
  F  F153  1  0.47060200  0.54945000  0.64873800  1
  F  F154  1  0.95055000  0.64873800  0.52939800  1
  F  F155  1  0.64873800  0.52939800  0.95055000  1
  F  F156  1  0.70055000  0.27939800  0.39873800  1
  F  F157  1  0.52939800  0.54945000  0.14873800  1
  F  F158  1  0.97060200  0.45055000  0.64873800  1
  F  F159  1  0.45055000  0.64873800  0.97060200  1
