# generated using pymatgen
data_Zn(GaSe2)2
_symmetry_space_group_name_H-M   'P 1'
_cell_length_a   5.63702800
_cell_length_b   5.63702800
_cell_length_c   11.07182800
_cell_angle_alpha   90.00000000
_cell_angle_beta   90.00000000
_cell_angle_gamma   90.00000000
_symmetry_Int_Tables_number   1
_chemical_formula_structural   Zn(GaSe2)2
_chemical_formula_sum   'Zn2 Ga4 Se8'
_cell_volume   351.81934401
_cell_formula_units_Z   2
loop_
 _symmetry_equiv_pos_site_id
 _symmetry_equiv_pos_as_xyz
  1  'x, y, z'
loop_
 _atom_site_type_symbol
 _atom_site_label
 _atom_site_symmetry_multiplicity
 _atom_site_fract_x
 _atom_site_fract_y
 _atom_site_fract_z
 _atom_site_occupancy
  Zn  Zn0  1  0.00000000  0.00000000  0.00000000  1
  Zn  Zn1  1  0.50000000  0.50000000  0.50000000  1
  Ga  Ga2  1  0.50000000  0.50000000  0.00000000  1
  Ga  Ga3  1  0.50000000  0.00000000  0.25000000  1
  Ga  Ga4  1  0.00000000  0.00000000  0.50000000  1
  Ga  Ga5  1  0.00000000  0.50000000  0.75000000  1
  Se  Se6  1  0.75824000  0.26485400  0.13278700  1
  Se  Se7  1  0.76485400  0.74176000  0.36721300  1
  Se  Se8  1  0.23514600  0.25824000  0.36721300  1
  Se  Se9  1  0.24176000  0.73514600  0.13278700  1
  Se  Se10  1  0.25824000  0.76485400  0.63278700  1
  Se  Se11  1  0.26485400  0.24176000  0.86721300  1
  Se  Se12  1  0.73514600  0.75824000  0.86721300  1
  Se  Se13  1  0.74176000  0.23514600  0.63278700  1
