# generated using pymatgen
data_RbSm2Ag3Se5
_symmetry_space_group_name_H-M   'P 1'
_cell_length_a   4.38328800
_cell_length_b   15.48508400
_cell_length_c   17.67729600
_cell_angle_alpha   90.00000000
_cell_angle_beta   90.00000000
_cell_angle_gamma   90.00000000
_symmetry_Int_Tables_number   1
_chemical_formula_structural   RbSm2Ag3Se5
_chemical_formula_sum   'Rb4 Sm8 Ag12 Se20'
_cell_volume   1199.85676967
_cell_formula_units_Z   4
loop_
 _symmetry_equiv_pos_site_id
 _symmetry_equiv_pos_as_xyz
  1  'x, y, z'
loop_
 _atom_site_type_symbol
 _atom_site_label
 _atom_site_symmetry_multiplicity
 _atom_site_fract_x
 _atom_site_fract_y
 _atom_site_fract_z
 _atom_site_occupancy
  Rb  Rb0  1  0.50000000  0.06398000  0.75000000  1
  Rb  Rb1  1  0.00000000  0.43602000  0.25000000  1
  Rb  Rb2  1  0.00000000  0.56398000  0.75000000  1
  Rb  Rb3  1  0.50000000  0.93602000  0.25000000  1
  Sm  Sm4  1  0.50000000  0.19075400  0.40489500  1
  Sm  Sm5  1  0.50000000  0.19075400  0.09510500  1
  Sm  Sm6  1  0.00000000  0.30924600  0.90489500  1
  Sm  Sm7  1  0.00000000  0.30924600  0.59510500  1
  Sm  Sm8  1  0.00000000  0.69075400  0.40489500  1
  Sm  Sm9  1  0.00000000  0.69075400  0.09510500  1
  Sm  Sm10  1  0.50000000  0.80924600  0.90489500  1
  Sm  Sm11  1  0.50000000  0.80924600  0.59510500  1
  Ag  Ag12  1  0.50000000  0.41418800  0.46334900  1
  Ag  Ag13  1  0.50000000  0.41418800  0.03665100  1
  Ag  Ag14  1  0.00000000  0.08581200  0.96334900  1
  Ag  Ag15  1  0.50000000  0.33883000  0.75000000  1
  Ag  Ag16  1  0.00000000  0.16117000  0.25000000  1
  Ag  Ag17  1  0.00000000  0.08581200  0.53665100  1
  Ag  Ag18  1  0.00000000  0.91418800  0.46334900  1
  Ag  Ag19  1  0.00000000  0.91418800  0.03665100  1
  Ag  Ag20  1  0.50000000  0.58581200  0.96334900  1
  Ag  Ag21  1  0.00000000  0.83883000  0.75000000  1
  Ag  Ag22  1  0.50000000  0.66117000  0.25000000  1
  Ag  Ag23  1  0.50000000  0.58581200  0.53665100  1
  Se  Se24  1  0.00000000  0.32123100  0.07115000  1
  Se  Se25  1  0.00000000  0.06471600  0.38053300  1
  Se  Se26  1  0.50000000  0.17876900  0.92885000  1
  Se  Se27  1  0.50000000  0.17876900  0.57115000  1
  Se  Se28  1  0.00000000  0.32123100  0.42885000  1
  Se  Se29  1  0.00000000  0.24277100  0.75000000  1
  Se  Se30  1  0.50000000  0.25722900  0.25000000  1
  Se  Se31  1  0.00000000  0.06471600  0.11946700  1
  Se  Se32  1  0.50000000  0.43528400  0.88053300  1
  Se  Se33  1  0.50000000  0.43528400  0.61946700  1
  Se  Se34  1  0.50000000  0.82123100  0.07115000  1
  Se  Se35  1  0.50000000  0.56471600  0.38053300  1
  Se  Se36  1  0.00000000  0.67876900  0.92885000  1
  Se  Se37  1  0.00000000  0.67876900  0.57115000  1
  Se  Se38  1  0.50000000  0.82123100  0.42885000  1
  Se  Se39  1  0.50000000  0.74277100  0.75000000  1
  Se  Se40  1  0.00000000  0.75722900  0.25000000  1
  Se  Se41  1  0.50000000  0.56471600  0.11946700  1
  Se  Se42  1  0.00000000  0.93528400  0.88053300  1
  Se  Se43  1  0.00000000  0.93528400  0.61946700  1
