# generated using pymatgen
data_K2S2O3
_symmetry_space_group_name_H-M   'P 1'
_cell_length_a   10.24837200
_cell_length_b   9.29210000
_cell_length_c   13.51636048
_cell_angle_alpha   90.00000000
_cell_angle_beta   111.88355218
_cell_angle_gamma   90.00000000
_symmetry_Int_Tables_number   1
_chemical_formula_structural   K2S2O3
_chemical_formula_sum   'K16 S16 O24'
_cell_volume   1194.40044718
_cell_formula_units_Z   8
loop_
 _symmetry_equiv_pos_site_id
 _symmetry_equiv_pos_as_xyz
  1  'x, y, z'
loop_
 _atom_site_type_symbol
 _atom_site_label
 _atom_site_symmetry_multiplicity
 _atom_site_fract_x
 _atom_site_fract_y
 _atom_site_fract_z
 _atom_site_occupancy
  K  K0  1  0.41734900  0.68897800  0.05304700  1
  K  K1  1  0.58265100  0.18897800  0.44695300  1
  K  K2  1  0.58265100  0.31102200  0.94695300  1
  K  K3  1  0.41734900  0.81102200  0.55304700  1
  K  K4  1  0.21604400  0.98837300  0.19478000  1
  K  K5  1  0.78395600  0.48837300  0.30522000  1
  K  K6  1  0.78395600  0.01162700  0.80522000  1
  K  K7  1  0.21604400  0.51162700  0.69478000  1
  K  K8  1  0.87881900  0.67490700  0.03963900  1
  K  K9  1  0.12118100  0.17490700  0.46036100  1
  K  K10  1  0.12118100  0.32509300  0.96036100  1
  K  K11  1  0.87881900  0.82509300  0.53963900  1
  K  K12  1  0.26495600  0.50909400  0.29399400  1
  K  K13  1  0.73504400  0.00909400  0.20600600  1
  K  K14  1  0.73504400  0.49090600  0.70600600  1
  K  K15  1  0.26495600  0.99090600  0.79399400  1
  S  S16  1  0.09520000  0.65114800  0.44260500  1
  S  S17  1  0.90480000  0.15114800  0.05739500  1
  S  S18  1  0.90480000  0.34885200  0.55739500  1
  S  S19  1  0.09520000  0.84885200  0.94260500  1
  S  S20  1  0.59177800  0.61516000  0.43534600  1
  S  S21  1  0.40822200  0.11516000  0.06465400  1
  S  S22  1  0.40822200  0.38484000  0.56465400  1
  S  S23  1  0.59177800  0.88484000  0.93534600  1
  S  S24  1  0.05894000  0.83397200  0.35427300  1
  S  S25  1  0.94106000  0.33397200  0.14572700  1
  S  S26  1  0.94106000  0.16602800  0.64572700  1
  S  S27  1  0.05894000  0.66602800  0.85427300  1
  S  S28  1  0.54317400  0.77110500  0.32142900  1
  S  S29  1  0.45682600  0.27110500  0.17857100  1
  S  S30  1  0.45682600  0.22889500  0.67857100  1
  S  S31  1  0.54317400  0.72889500  0.82142900  1
  O  O32  1  0.19375100  0.91616500  0.38497200  1
  O  O33  1  0.80624900  0.41616500  0.11502800  1
  O  O34  1  0.80624900  0.08383500  0.61502800  1
  O  O35  1  0.19375100  0.58383500  0.88497200  1
  O  O36  1  0.04636400  0.42305900  0.12152700  1
  O  O37  1  0.95363600  0.92305900  0.37847300  1
  O  O38  1  0.95363600  0.57694100  0.87847300  1
  O  O39  1  0.04636400  0.07694100  0.62152700  1
  O  O40  1  0.00697600  0.79466700  0.23929400  1
  O  O41  1  0.99302400  0.29466700  0.26070600  1
  O  O42  1  0.99302400  0.20533300  0.76070600  1
  O  O43  1  0.00697600  0.70533300  0.73929400  1
  O  O44  1  0.39184500  0.75485500  0.25119600  1
  O  O45  1  0.60815500  0.25485500  0.24880400  1
  O  O46  1  0.60815500  0.24514500  0.74880400  1
  O  O47  1  0.39184500  0.74514500  0.75119600  1
  O  O48  1  0.63233600  0.74994700  0.25676000  1
  O  O49  1  0.36766400  0.24994700  0.24324000  1
  O  O50  1  0.36766400  0.25005300  0.74324000  1
  O  O51  1  0.63233600  0.75005300  0.75676000  1
  O  O52  1  0.57095300  0.91314600  0.37576000  1
  O  O53  1  0.42904700  0.41314600  0.12424000  1
  O  O54  1  0.42904700  0.08685400  0.62424000  1
  O  O55  1  0.57095300  0.58685400  0.87576000  1
