# generated using pymatgen
data_KP2WO8
_symmetry_space_group_name_H-M   'P 1'
_cell_length_a   5.16968711
_cell_length_b   12.03318499
_cell_length_c   12.77475884
_cell_angle_alpha   90.00000000
_cell_angle_beta   112.61088695
_cell_angle_gamma   90.00000000
_symmetry_Int_Tables_number   1
_chemical_formula_structural   KP2WO8
_chemical_formula_sum   'K4 P8 W4 O32'
_cell_volume   733.60757071
_cell_formula_units_Z   4
loop_
 _symmetry_equiv_pos_site_id
 _symmetry_equiv_pos_as_xyz
  1  'x, y, z'
loop_
 _atom_site_type_symbol
 _atom_site_label
 _atom_site_symmetry_multiplicity
 _atom_site_fract_x
 _atom_site_fract_y
 _atom_site_fract_z
 _atom_site_occupancy
  K  K0  1  0.81498508  0.37285873  0.55025003  1
  K  K1  1  0.81498508  0.12714127  0.05025003  1
  K  K2  1  0.18501492  0.62714127  0.44974997  1
  K  K3  1  0.18501492  0.87285873  0.94974997  1
  P  P4  1  0.88995284  0.06550803  0.63256911  1
  P  P5  1  0.88995284  0.43449197  0.13256911  1
  P  P6  1  0.11004716  0.93449197  0.36743089  1
  P  P7  1  0.11004716  0.56550803  0.86743089  1
  P  P8  1  0.11145141  0.19359973  0.84751436  1
  P  P9  1  0.88854859  0.69359973  0.65248564  1
  P  P10  1  0.88854859  0.80640027  0.15248564  1
  P  P11  1  0.11145141  0.30640027  0.34751436  1
  W  W12  1  0.59225441  0.38154731  0.83446763  1
  W  W13  1  0.40774559  0.88154731  0.66553237  1
  W  W14  1  0.40774559  0.61845269  0.16553237  1
  W  W15  1  0.59225441  0.11845269  0.33446763  1
  O  O16  1  0.13738879  0.08875644  0.91299341  1
  O  O17  1  0.86261121  0.58875644  0.58700659  1
  O  O18  1  0.86261121  0.91124356  0.08700659  1
  O  O19  1  0.13738879  0.41124356  0.41299341  1
  O  O20  1  0.93470802  0.17445952  0.71121852  1
  O  O21  1  0.06529198  0.67445952  0.78878148  1
  O  O22  1  0.06529198  0.82554048  0.28878148  1
  O  O23  1  0.93470802  0.32554048  0.21121852  1
  O  O24  1  0.71293820  0.39102917  0.01520764  1
  O  O25  1  0.28706180  0.89102917  0.48479236  1
  O  O26  1  0.28706180  0.60897083  0.98479236  1
  O  O27  1  0.71293820  0.10897083  0.51520764  1
  O  O28  1  0.81704035  0.52750504  0.85619691  1
  O  O29  1  0.18295965  0.02750504  0.64380309  1
  O  O30  1  0.18295965  0.47249496  0.14380309  1
  O  O31  1  0.81704035  0.97249496  0.35619691  1
  O  O32  1  0.49381556  0.12813932  0.18702393  1
  O  O33  1  0.50618444  0.62813932  0.31297607  1
  O  O34  1  0.50618444  0.87186068  0.81297607  1
  O  O35  1  0.49381556  0.37186068  0.68702393  1
  O  O36  1  0.39976323  0.26158512  0.35566750  1
  O  O37  1  0.60023677  0.76158512  0.14433250  1
  O  O38  1  0.60023677  0.73841488  0.64433250  1
  O  O39  1  0.39976323  0.23841488  0.85566750  1
  O  O40  1  0.25196741  0.47617424  0.82345324  1
  O  O41  1  0.05183810  0.71324397  0.12220741  1
  O  O42  1  0.05183810  0.78675603  0.62220741  1
  O  O43  1  0.94816190  0.28675603  0.87779259  1
  O  O44  1  0.25196741  0.02382576  0.32345324  1
  O  O45  1  0.74803259  0.52382576  0.17654676  1
  O  O46  1  0.74803259  0.97617424  0.67654676  1
  O  O47  1  0.94816190  0.21324397  0.37779259  1
