# generated using pymatgen
data_LiYS2
_symmetry_space_group_name_H-M   'P 1'
_cell_length_a   3.91542208
_cell_length_b   3.91542208
_cell_length_c   18.55446460
_cell_angle_alpha   90.00000000
_cell_angle_beta   90.00000000
_cell_angle_gamma   120.00000000
_symmetry_Int_Tables_number   1
_chemical_formula_structural   LiYS2
_chemical_formula_sum   'Li3 Y3 S6'
_cell_volume   246.34073280
_cell_formula_units_Z   3
loop_
 _symmetry_equiv_pos_site_id
 _symmetry_equiv_pos_as_xyz
  1  'x, y, z'
loop_
 _atom_site_type_symbol
 _atom_site_label
 _atom_site_symmetry_multiplicity
 _atom_site_fract_x
 _atom_site_fract_y
 _atom_site_fract_z
 _atom_site_occupancy
  Li  Li0  1  0.33333333  0.66666667  0.16666667  1
  Li  Li1  1  1.00000000  1.00000000  0.50000000  1
  Li  Li2  1  0.66666667  0.33333333  0.83333333  1
  Y  Y3  1  0.00000000  0.00000000  0.00000000  1
  Y  Y4  1  0.66666667  0.33333333  0.33333333  1
  Y  Y5  1  0.33333333  0.66666667  0.66666667  1
  S  S6  1  0.66666667  0.33333333  0.08362033  1
  S  S7  1  0.00000000  0.00000000  0.24971300  1
  S  S8  1  0.33333333  0.66666667  0.41695367  1
  S  S9  1  0.66666667  0.33333333  0.58304633  1
  S  S10  1  0.00000000  0.00000000  0.75028700  1
  S  S11  1  0.33333333  0.66666667  0.91637967  1
