# generated using pymatgen
data_Li4Ca2Mg(SiN3)2
_symmetry_space_group_name_H-M   'P 1'
_cell_length_a   5.92848400
_cell_length_b   9.82623800
_cell_length_c   5.64345983
_cell_angle_alpha   90.00000000
_cell_angle_beta   94.93678659
_cell_angle_gamma   90.00000000
_symmetry_Int_Tables_number   1
_chemical_formula_structural   Li4Ca2Mg(SiN3)2
_chemical_formula_sum   'Li8 Ca4 Mg2 Si4 N12'
_cell_volume   327.53841942
_cell_formula_units_Z   2
loop_
 _symmetry_equiv_pos_site_id
 _symmetry_equiv_pos_as_xyz
  1  'x, y, z'
loop_
 _atom_site_type_symbol
 _atom_site_label
 _atom_site_symmetry_multiplicity
 _atom_site_fract_x
 _atom_site_fract_y
 _atom_site_fract_z
 _atom_site_occupancy
  Li  Li0  1  0.33886800  0.67104400  0.37529200  1
  Li  Li1  1  0.33886800  0.32895600  0.37529200  1
  Li  Li2  1  0.66113200  0.32895600  0.62470800  1
  Li  Li3  1  0.66113200  0.67104400  0.62470800  1
  Li  Li4  1  0.83886800  0.17104400  0.37529200  1
  Li  Li5  1  0.83886800  0.82895600  0.37529200  1
  Li  Li6  1  0.16113200  0.82895600  0.62470800  1
  Li  Li7  1  0.16113200  0.17104400  0.62470800  1
  Ca  Ca8  1  0.50000000  0.17800000  0.00000000  1
  Ca  Ca9  1  0.50000000  0.82200000  0.00000000  1
  Ca  Ca10  1  0.00000000  0.67800000  0.00000000  1
  Ca  Ca11  1  0.00000000  0.32200000  0.00000000  1
  Mg  Mg12  1  0.00000000  0.00000000  0.00000000  1
  Mg  Mg13  1  0.50000000  0.50000000  0.00000000  1
  Si  Si14  1  0.67825600  0.00000000  0.63297200  1
  Si  Si15  1  0.32174400  0.00000000  0.36702800  1
  Si  Si16  1  0.17825600  0.50000000  0.63297200  1
  Si  Si17  1  0.82174400  0.50000000  0.36702800  1
  N  N18  1  0.37794600  0.00000000  0.68691400  1
  N  N19  1  0.62205400  0.00000000  0.31308600  1
  N  N20  1  0.82198100  0.14457300  0.74789600  1
  N  N21  1  0.82198100  0.85542700  0.74789600  1
  N  N22  1  0.17801900  0.85542700  0.25210400  1
  N  N23  1  0.17801900  0.14457300  0.25210400  1
  N  N24  1  0.87794600  0.50000000  0.68691400  1
  N  N25  1  0.12205400  0.50000000  0.31308600  1
  N  N26  1  0.32198100  0.64457300  0.74789600  1
  N  N27  1  0.32198100  0.35542700  0.74789600  1
  N  N28  1  0.67801900  0.35542700  0.25210400  1
  N  N29  1  0.67801900  0.64457300  0.25210400  1
