# generated using pymatgen
data_Rb2Zr3OF12
_symmetry_space_group_name_H-M   'P 1'
_cell_length_a   7.86191413
_cell_length_b   7.86191413
_cell_length_c   30.39010838
_cell_angle_alpha   90.00000000
_cell_angle_beta   90.00000000
_cell_angle_gamma   120.00000000
_symmetry_Int_Tables_number   1
_chemical_formula_structural   Rb2Zr3OF12
_chemical_formula_sum   'Rb12 Zr18 O6 F72'
_cell_volume   1626.74497073
_cell_formula_units_Z   6
loop_
 _symmetry_equiv_pos_site_id
 _symmetry_equiv_pos_as_xyz
  1  'x, y, z'
loop_
 _atom_site_type_symbol
 _atom_site_label
 _atom_site_symmetry_multiplicity
 _atom_site_fract_x
 _atom_site_fract_y
 _atom_site_fract_z
 _atom_site_occupancy
  Rb  Rb0  1  0.00000000  0.00000000  0.00000000  1
  Rb  Rb1  1  0.33333333  0.66666667  0.16666667  1
  Rb  Rb2  1  0.66666667  0.33333333  0.19527633  1
  Rb  Rb3  1  0.00000000  0.00000000  0.13805700  1
  Rb  Rb4  1  0.66666667  0.33333333  0.33333333  1
  Rb  Rb5  1  1.00000000  1.00000000  0.50000000  1
  Rb  Rb6  1  0.33333333  0.66666667  0.52860967  1
  Rb  Rb7  1  0.66666667  0.33333333  0.47139033  1
  Rb  Rb8  1  0.33333333  0.66666667  0.66666667  1
  Rb  Rb9  1  0.66666667  0.33333333  0.83333333  1
  Rb  Rb10  1  0.00000000  0.00000000  0.86194300  1
  Rb  Rb11  1  0.33333333  0.66666667  0.80472367  1
  Zr  Zr12  1  0.15109367  0.30218733  0.27309833  1
  Zr  Zr13  1  0.15109367  0.84890633  0.27309833  1
  Zr  Zr14  1  0.69781267  0.84890633  0.27309833  1
  Zr  Zr15  1  0.96885400  0.48442700  0.06023500  1
  Zr  Zr16  1  0.51557300  0.48442700  0.06023500  1
  Zr  Zr17  1  0.51557300  0.03114600  0.06023500  1
  Zr  Zr18  1  0.81776033  0.63552067  0.60643167  1
  Zr  Zr19  1  0.81776033  0.18223967  0.60643167  1
  Zr  Zr20  1  0.36447933  0.18223967  0.60643167  1
  Zr  Zr21  1  0.63552067  0.81776033  0.39356833  1
  Zr  Zr22  1  0.18223967  0.81776033  0.39356833  1
  Zr  Zr23  1  0.18223967  0.36447933  0.39356833  1
  Zr  Zr24  1  0.48442700  0.96885400  0.93976500  1
  Zr  Zr25  1  0.48442700  0.51557300  0.93976500  1
  Zr  Zr26  1  0.03114600  0.51557300  0.93976500  1
  Zr  Zr27  1  0.30218733  0.15109367  0.72690167  1
  Zr  Zr28  1  0.84890633  0.15109367  0.72690167  1
  Zr  Zr29  1  0.84890633  0.69781267  0.72690167  1
  O  O30  1  0.66666667  0.33333333  0.04670633  1
  O  O31  1  0.00000000  0.00000000  0.28662700  1
  O  O32  1  0.33333333  0.66666667  0.38003967  1
  O  O33  1  0.66666667  0.33333333  0.61996033  1
  O  O34  1  0.00000000  0.00000000  0.71337300  1
  O  O35  1  0.33333333  0.66666667  0.95329367  1
  F  F36  1  0.22133333  0.77866667  0.07182067  1
  F  F37  1  0.55733333  0.77866667  0.07182067  1
  F  F38  1  0.22133333  0.44266667  0.07182067  1
  F  F39  1  0.44533333  0.55466667  0.26151267  1
  F  F40  1  0.10933333  0.55466667  0.26151267  1
  F  F41  1  0.44533333  0.89066667  0.26151267  1
  F  F42  1  0.32791000  0.16395500  0.07436100  1
  F  F43  1  0.83604500  0.67209000  0.07436100  1
  F  F44  1  0.64785400  0.64785400  0.00000000  1
  F  F45  1  0.35214600  0.00000000  0.00000000  1
  F  F46  1  0.00000000  0.35214600  0.00000000  1
  F  F47  1  0.35214600  0.35214600  0.00000000  1
  F  F48  1  0.64785400  0.00000000  0.00000000  1
  F  F49  1  0.00000000  0.64785400  0.00000000  1
  F  F50  1  0.14516667  0.85483333  0.20671433  1
  F  F51  1  0.14516667  0.29033333  0.20671433  1
  F  F52  1  0.70966667  0.85483333  0.20671433  1
  F  F53  1  0.95700000  0.47850000  0.12661900  1
  F  F54  1  0.52150000  0.47850000  0.12661900  1
  F  F55  1  0.52150000  0.04300000  0.12661900  1
  F  F56  1  0.33875667  0.16937833  0.25897233  1
  F  F57  1  0.83062167  0.16937833  0.25897233  1
  F  F58  1  0.83062167  0.66124333  0.25897233  1
  F  F59  1  0.83604500  0.16395500  0.07436100  1
  F  F60  1  0.88800000  0.11200000  0.40515400  1
  F  F61  1  0.22400000  0.11200000  0.40515400  1
  F  F62  1  0.88800000  0.77600000  0.40515400  1
  F  F63  1  0.11200000  0.88800000  0.59484600  1
  F  F64  1  0.77600000  0.88800000  0.59484600  1
  F  F65  1  0.11200000  0.22400000  0.59484600  1
  F  F66  1  0.99457667  0.49728833  0.40769433  1
  F  F67  1  0.50271167  0.00542333  0.40769433  1
  F  F68  1  0.31452067  0.98118733  0.33333333  1
  F  F69  1  0.01881267  0.33333333  0.33333333  1
  F  F70  1  0.66666667  0.68547933  0.33333333  1
  F  F71  1  0.01881267  0.68547933  0.33333333  1
  F  F72  1  0.31452067  0.33333333  0.33333333  1
  F  F73  1  0.66666667  0.98118733  0.33333333  1
  F  F74  1  0.81183333  0.18816667  0.54004767  1
  F  F75  1  0.81183333  0.62366667  0.54004767  1
  F  F76  1  0.37633333  0.18816667  0.54004767  1
  F  F77  1  0.62366667  0.81183333  0.45995233  1
  F  F78  1  0.18816667  0.81183333  0.45995233  1
  F  F79  1  0.18816667  0.37633333  0.45995233  1
  F  F80  1  0.00542333  0.50271167  0.59230567  1
  F  F81  1  0.49728833  0.50271167  0.59230567  1
  F  F82  1  0.49728833  0.99457667  0.59230567  1
  F  F83  1  0.50271167  0.49728833  0.40769433  1
  F  F84  1  0.55466667  0.44533333  0.73848733  1
  F  F85  1  0.89066667  0.44533333  0.73848733  1
  F  F86  1  0.55466667  0.10933333  0.73848733  1
  F  F87  1  0.77866667  0.22133333  0.92817933  1
  F  F88  1  0.44266667  0.22133333  0.92817933  1
  F  F89  1  0.77866667  0.55733333  0.92817933  1
  F  F90  1  0.66124333  0.83062167  0.74102767  1
  F  F91  1  0.16937833  0.33875667  0.74102767  1
  F  F92  1  0.98118733  0.31452067  0.66666667  1
  F  F93  1  0.68547933  0.66666667  0.66666667  1
  F  F94  1  0.33333333  0.01881267  0.66666667  1
  F  F95  1  0.68547933  0.01881267  0.66666667  1
  F  F96  1  0.98118733  0.66666667  0.66666667  1
  F  F97  1  0.33333333  0.31452067  0.66666667  1
  F  F98  1  0.47850000  0.52150000  0.87338100  1
  F  F99  1  0.47850000  0.95700000  0.87338100  1
  F  F100  1  0.04300000  0.52150000  0.87338100  1
  F  F101  1  0.29033333  0.14516667  0.79328567  1
  F  F102  1  0.85483333  0.14516667  0.79328567  1
  F  F103  1  0.85483333  0.70966667  0.79328567  1
  F  F104  1  0.67209000  0.83604500  0.92563900  1
  F  F105  1  0.16395500  0.83604500  0.92563900  1
  F  F106  1  0.16395500  0.32791000  0.92563900  1
  F  F107  1  0.16937833  0.83062167  0.74102767  1
