# generated using pymatgen
data_Ba2SrWO6
_symmetry_space_group_name_H-M   'P 1'
_cell_length_a   6.21773216
_cell_length_b   6.21773216
_cell_length_c   14.90476094
_cell_angle_alpha   90.00000000
_cell_angle_beta   90.00000000
_cell_angle_gamma   120.00000000
_symmetry_Int_Tables_number   1
_chemical_formula_structural   Ba2SrWO6
_chemical_formula_sum   'Ba6 Sr3 W3 O18'
_cell_volume   499.02197071
_cell_formula_units_Z   3
loop_
 _symmetry_equiv_pos_site_id
 _symmetry_equiv_pos_as_xyz
  1  'x, y, z'
loop_
 _atom_site_type_symbol
 _atom_site_label
 _atom_site_symmetry_multiplicity
 _atom_site_fract_x
 _atom_site_fract_y
 _atom_site_fract_z
 _atom_site_occupancy
  Ba  Ba0  1  0.33333333  0.66666667  0.41349467  1
  Ba  Ba1  1  0.33333333  0.66666667  0.91983867  1
  Ba  Ba2  1  0.00000000  0.00000000  0.74682800  1
  Ba  Ba3  1  0.00000000  0.00000000  0.25317200  1
  Ba  Ba4  1  0.66666667  0.33333333  0.08016133  1
  Ba  Ba5  1  0.66666667  0.33333333  0.58650533  1
  Sr  Sr6  1  0.00000000  0.00000000  0.00000000  1
  Sr  Sr7  1  0.66666667  0.33333333  0.33333333  1
  Sr  Sr8  1  0.33333333  0.66666667  0.66666667  1
  W  W9  1  0.33333333  0.66666667  0.16666667  1
  W  W10  1  1.00000000  0.00000000  0.50000000  1
  W  W11  1  0.66666667  0.33333333  0.83333333  1
  O  O12  1  0.41776267  0.95706033  0.24295833  1
  O  O13  1  0.12736900  0.75109600  0.09037500  1
  O  O14  1  0.53929767  0.58223733  0.24295833  1
  O  O15  1  0.04293967  0.46070233  0.24295833  1
  O  O16  1  0.62372700  0.87263100  0.09037500  1
  O  O17  1  0.24890400  0.37627300  0.09037500  1
  O  O18  1  0.08442933  0.29039367  0.57629167  1
  O  O19  1  0.79403567  0.08442933  0.42370833  1
  O  O20  1  0.20596433  0.91557067  0.57629167  1
  O  O21  1  0.70960633  0.79403567  0.57629167  1
  O  O22  1  0.29039367  0.20596433  0.42370833  1
  O  O23  1  0.91557067  0.70960633  0.42370833  1
  O  O24  1  0.75109600  0.62372700  0.90962500  1
  O  O25  1  0.46070233  0.41776267  0.75704167  1
  O  O26  1  0.87263100  0.24890400  0.90962500  1
  O  O27  1  0.37627300  0.12736900  0.90962500  1
  O  O28  1  0.95706033  0.53929767  0.75704167  1
  O  O29  1  0.58223733  0.04293967  0.75704167  1
