# generated using pymatgen
data_TbFe3(BO3)4
_symmetry_space_group_name_H-M   'P 1'
_cell_length_a   9.63794221
_cell_length_b   9.63794221
_cell_length_c   7.66679108
_cell_angle_alpha   90.00000000
_cell_angle_beta   90.00000000
_cell_angle_gamma   120.00000000
_symmetry_Int_Tables_number   1
_chemical_formula_structural   TbFe3(BO3)4
_chemical_formula_sum   'Tb3 Fe9 B12 O36'
_cell_volume   616.75530940
_cell_formula_units_Z   3
loop_
 _symmetry_equiv_pos_site_id
 _symmetry_equiv_pos_as_xyz
  1  'x, y, z'
loop_
 _atom_site_type_symbol
 _atom_site_label
 _atom_site_symmetry_multiplicity
 _atom_site_fract_x
 _atom_site_fract_y
 _atom_site_fract_z
 _atom_site_occupancy
  Tb  Tb0  1  0.00000000  0.00000000  0.00000000  1
  Tb  Tb1  1  0.66666667  0.33333333  0.33333333  1
  Tb  Tb2  1  0.33333333  0.66666667  0.66666667  1
  Fe  Fe3  1  0.11659267  0.33333333  0.33333333  1
  Fe  Fe4  1  0.21674067  0.88340733  0.33333333  1
  Fe  Fe5  1  0.66666667  0.78325933  0.33333333  1
  Fe  Fe6  1  0.78325933  0.66666667  0.66666667  1
  Fe  Fe7  1  0.88340733  0.21674067  0.66666667  1
  Fe  Fe8  1  0.33333333  0.11659267  0.66666667  1
  Fe  Fe9  1  0.44992600  0.00000000  0.00000000  1
  Fe  Fe10  1  0.55007400  0.55007400  0.00000000  1
  Fe  Fe11  1  0.00000000  0.44992600  0.00000000  1
  B  B12  1  0.00000000  0.55217900  0.50000000  1
  B  B13  1  0.44782100  0.44782100  0.50000000  1
  B  B14  1  0.00000000  0.00000000  0.50000000  1
  B  B15  1  0.55217900  0.00000000  0.50000000  1
  B  B16  1  0.66666667  0.88551233  0.83333333  1
  B  B17  1  0.11448767  0.78115433  0.83333333  1
  B  B18  1  0.66666667  0.33333333  0.83333333  1
  B  B19  1  0.21884567  0.33333333  0.83333333  1
  B  B20  1  0.33333333  0.21884567  0.16666667  1
  B  B21  1  0.78115433  0.11448767  0.16666667  1
  B  B22  1  0.33333333  0.66666667  0.16666667  1
  B  B23  1  0.88551233  0.66666667  0.16666667  1
  O  O24  1  0.14362300  0.00000000  0.50000000  1
  O  O25  1  0.00000000  0.14362300  0.50000000  1
  O  O26  1  0.30874467  0.45554933  0.48626133  1
  O  O27  1  0.69125533  0.14680467  0.51373867  1
  O  O28  1  0.14680467  0.69125533  0.48626133  1
  O  O29  1  0.40863000  0.00000000  0.50000000  1
  O  O30  1  0.85637700  0.85637700  0.50000000  1
  O  O31  1  0.00000000  0.40863000  0.50000000  1
  O  O32  1  0.85319533  0.54445067  0.51373867  1
  O  O33  1  0.59137000  0.59137000  0.50000000  1
  O  O34  1  0.54445067  0.85319533  0.48626133  1
  O  O35  1  0.45554933  0.30874467  0.51373867  1
  O  O36  1  0.81028967  0.33333333  0.83333333  1
  O  O37  1  0.66666667  0.47695633  0.83333333  1
  O  O38  1  0.97541133  0.78888267  0.81959467  1
  O  O39  1  0.35792200  0.48013800  0.84707200  1
  O  O40  1  0.81347133  0.02458867  0.81959467  1
  O  O41  1  0.07529667  0.33333333  0.83333333  1
  O  O42  1  0.52304367  0.18971033  0.83333333  1
  O  O43  1  0.66666667  0.74196333  0.83333333  1
  O  O44  1  0.51986200  0.87778400  0.84707200  1
  O  O45  1  0.25803667  0.92470333  0.83333333  1
  O  O46  1  0.21111733  0.18652867  0.81959467  1
  O  O47  1  0.12221600  0.64207800  0.84707200  1
  O  O48  1  0.47695633  0.66666667  0.16666667  1
  O  O49  1  0.33333333  0.81028967  0.16666667  1
  O  O50  1  0.64207800  0.12221600  0.15292800  1
  O  O51  1  0.02458867  0.81347133  0.18040533  1
  O  O52  1  0.48013800  0.35792200  0.15292800  1
  O  O53  1  0.74196333  0.66666667  0.16666667  1
  O  O54  1  0.18971033  0.52304367  0.16666667  1
  O  O55  1  0.33333333  0.07529667  0.16666667  1
  O  O56  1  0.18652867  0.21111733  0.18040533  1
  O  O57  1  0.92470333  0.25803667  0.16666667  1
  O  O58  1  0.87778400  0.51986200  0.15292800  1
  O  O59  1  0.78888267  0.97541133  0.18040533  1
