# generated using pymatgen
data_CaTe3O8
_symmetry_space_group_name_H-M   'P 1'
_cell_length_a   12.58802400
_cell_length_b   5.80405200
_cell_length_c   10.23907374
_cell_angle_alpha   90.00000000
_cell_angle_beta   116.45674970
_cell_angle_gamma   90.00000000
_symmetry_Int_Tables_number   1
_chemical_formula_structural   CaTe3O8
_chemical_formula_sum   'Ca4 Te12 O32'
_cell_volume   669.73656033
_cell_formula_units_Z   4
loop_
 _symmetry_equiv_pos_site_id
 _symmetry_equiv_pos_as_xyz
  1  'x, y, z'
loop_
 _atom_site_type_symbol
 _atom_site_label
 _atom_site_symmetry_multiplicity
 _atom_site_fract_x
 _atom_site_fract_y
 _atom_site_fract_z
 _atom_site_occupancy
  Ca  Ca0  1  0.00000000  0.56813400  0.25000000  1
  Ca  Ca1  1  0.00000000  0.43186600  0.75000000  1
  Ca  Ca2  1  0.50000000  0.06813400  0.25000000  1
  Ca  Ca3  1  0.50000000  0.93186600  0.75000000  1
  Te  Te4  1  0.00000000  0.00000000  0.50000000  1
  Te  Te5  1  0.00000000  0.00000000  0.00000000  1
  Te  Te6  1  0.28267550  0.40821250  0.64164400  1
  Te  Te7  1  0.21732450  0.90821250  0.85835600  1
  Te  Te8  1  0.71732450  0.59178750  0.35835600  1
  Te  Te9  1  0.78267550  0.09178750  0.14164400  1
  Te  Te10  1  0.50000000  0.50000000  0.50000000  1
  Te  Te11  1  0.50000000  0.50000000  0.00000000  1
  Te  Te12  1  0.78267550  0.90821250  0.64164400  1
  Te  Te13  1  0.71732450  0.40821250  0.85835600  1
  Te  Te14  1  0.21732450  0.09178750  0.35835600  1
  Te  Te15  1  0.28267550  0.59178750  0.14164400  1
  O  O16  1  0.81942550  0.39302750  0.08987900  1
  O  O17  1  0.18057450  0.39302750  0.41012100  1
  O  O18  1  0.18057450  0.60697250  0.91012100  1
  O  O19  1  0.81942550  0.60697250  0.58987900  1
  O  O20  1  0.89606800  0.90900800  0.09293600  1
  O  O21  1  0.10393200  0.90900800  0.40706400  1
  O  O22  1  0.10393200  0.09099200  0.90706400  1
  O  O23  1  0.89606800  0.09099200  0.59293600  1
  O  O24  1  0.91779800  0.22356800  0.34143000  1
  O  O25  1  0.58220200  0.72356800  0.15857000  1
  O  O26  1  0.08220200  0.77643200  0.65857000  1
  O  O27  1  0.41779800  0.27643200  0.84143000  1
  O  O28  1  0.39594900  0.73656300  0.87641300  1
  O  O29  1  0.10405100  0.23656300  0.62358700  1
  O  O30  1  0.60405100  0.26343700  0.12358700  1
  O  O31  1  0.89594900  0.76343700  0.37641300  1
  O  O32  1  0.31942550  0.89302750  0.08987900  1
  O  O33  1  0.68057450  0.89302750  0.41012100  1
  O  O34  1  0.68057450  0.10697250  0.91012100  1
  O  O35  1  0.31942550  0.10697250  0.58987900  1
  O  O36  1  0.39606800  0.40900800  0.09293600  1
  O  O37  1  0.60393200  0.40900800  0.40706400  1
  O  O38  1  0.60393200  0.59099200  0.90706400  1
  O  O39  1  0.39606800  0.59099200  0.59293600  1
  O  O40  1  0.41779800  0.72356800  0.34143000  1
  O  O41  1  0.08220200  0.22356800  0.15857000  1
  O  O42  1  0.58220200  0.27643200  0.65857000  1
  O  O43  1  0.91779800  0.77643200  0.84143000  1
  O  O44  1  0.89594900  0.23656300  0.87641300  1
  O  O45  1  0.60405100  0.73656300  0.62358700  1
  O  O46  1  0.10405100  0.76343700  0.12358700  1
  O  O47  1  0.39594900  0.26343700  0.37641300  1
