# generated using pymatgen
data_Sr6GaN5
_symmetry_space_group_name_H-M   'P 1'
_cell_length_a   6.71956438
_cell_length_b   6.71956438
_cell_length_c   13.09600700
_cell_angle_alpha   90.00000000
_cell_angle_beta   90.00000000
_cell_angle_gamma   120.00000000
_symmetry_Int_Tables_number   1
_chemical_formula_structural   Sr6GaN5
_chemical_formula_sum   'Sr12 Ga2 N10'
_cell_volume   512.09645395
_cell_formula_units_Z   2
loop_
 _symmetry_equiv_pos_site_id
 _symmetry_equiv_pos_as_xyz
  1  'x, y, z'
loop_
 _atom_site_type_symbol
 _atom_site_label
 _atom_site_symmetry_multiplicity
 _atom_site_fract_x
 _atom_site_fract_y
 _atom_site_fract_z
 _atom_site_occupancy
  Sr  Sr0  1  0.59236800  0.00000000  0.37636000  1
  Sr  Sr1  1  0.00000000  0.59236800  0.37636000  1
  Sr  Sr2  1  0.40763200  0.40763200  0.37636000  1
  Sr  Sr3  1  0.59236800  0.59236800  0.87636000  1
  Sr  Sr4  1  0.00000000  0.59236800  0.12364000  1
  Sr  Sr5  1  0.40763200  0.00000000  0.87636000  1
  Sr  Sr6  1  0.00000000  0.40763200  0.87636000  1
  Sr  Sr7  1  0.40763200  0.00000000  0.62364000  1
  Sr  Sr8  1  0.59236800  0.59236800  0.62364000  1
  Sr  Sr9  1  0.40763200  0.40763200  0.12364000  1
  Sr  Sr10  1  0.59236800  0.00000000  0.12364000  1
  Sr  Sr11  1  0.00000000  0.40763200  0.62364000  1
  Ga  Ga12  1  0.00000000  0.00000000  0.25000000  1
  Ga  Ga13  1  0.00000000  0.00000000  0.75000000  1
  N  N14  1  0.00000000  0.28498200  0.25000000  1
  N  N15  1  0.71501800  0.00000000  0.75000000  1
  N  N16  1  0.28498200  0.28498200  0.75000000  1
  N  N17  1  0.71501800  0.71501800  0.25000000  1
  N  N18  1  0.28498200  0.00000000  0.25000000  1
  N  N19  1  0.66666667  0.33333333  0.50000000  1
  N  N20  1  0.00000000  0.71501800  0.75000000  1
  N  N21  1  0.33333333  0.66666667  0.50000000  1
  N  N22  1  0.33333333  0.66666667  0.00000000  1
  N  N23  1  0.66666667  0.33333333  0.00000000  1
