# generated using pymatgen
data_CeZr3O8
_symmetry_space_group_name_H-M   'P 1'
_cell_length_a   10.46506400
_cell_length_b   10.53176000
_cell_length_c   5.31916673
_cell_angle_alpha   90.00000000
_cell_angle_beta   90.90922334
_cell_angle_gamma   90.00000000
_symmetry_Int_Tables_number   1
_chemical_formula_structural   CeZr3O8
_chemical_formula_sum   'Ce4 Zr12 O32'
_cell_volume   586.18103178
_cell_formula_units_Z   4
loop_
 _symmetry_equiv_pos_site_id
 _symmetry_equiv_pos_as_xyz
  1  'x, y, z'
loop_
 _atom_site_type_symbol
 _atom_site_label
 _atom_site_symmetry_multiplicity
 _atom_site_fract_x
 _atom_site_fract_y
 _atom_site_fract_z
 _atom_site_occupancy
  Ce  Ce0  1  0.50000000  0.86967200  0.75000000  1
  Ce  Ce1  1  0.50000000  0.13032800  0.25000000  1
  Ce  Ce2  1  0.00000000  0.36967200  0.75000000  1
  Ce  Ce3  1  0.00000000  0.63032800  0.25000000  1
  Zr  Zr4  1  0.25121500  0.12686600  0.74814700  1
  Zr  Zr5  1  0.74878500  0.87313400  0.25185300  1
  Zr  Zr6  1  0.74878500  0.12686600  0.75185300  1
  Zr  Zr7  1  0.25121500  0.87313400  0.24814700  1
  Zr  Zr8  1  0.50000000  0.38148500  0.75000000  1
  Zr  Zr9  1  0.50000000  0.61851500  0.25000000  1
  Zr  Zr10  1  0.75121500  0.62686600  0.74814700  1
  Zr  Zr11  1  0.24878500  0.37313400  0.25185300  1
  Zr  Zr12  1  0.24878500  0.62686600  0.75185300  1
  Zr  Zr13  1  0.75121500  0.37313400  0.24814700  1
  Zr  Zr14  1  0.00000000  0.88148500  0.75000000  1
  Zr  Zr15  1  0.00000000  0.11851500  0.25000000  1
  O  O16  1  0.63272850  0.98937250  0.02538500  1
  O  O17  1  0.36727150  0.01062750  0.97461500  1
  O  O18  1  0.36727150  0.98937250  0.47461500  1
  O  O19  1  0.63272850  0.01062750  0.52538500  1
  O  O20  1  0.37489350  0.27009150  0.03106500  1
  O  O21  1  0.62510650  0.72990850  0.96893500  1
  O  O22  1  0.62542350  0.75698350  0.45205700  1
  O  O23  1  0.37457650  0.24301650  0.54794300  1
  O  O24  1  0.37457650  0.75698350  0.04794300  1
  O  O25  1  0.62542350  0.24301650  0.95205700  1
  O  O26  1  0.62510650  0.27009150  0.46893500  1
  O  O27  1  0.37489350  0.72990850  0.53106500  1
  O  O28  1  0.11640200  0.98200700  0.06016300  1
  O  O29  1  0.88359800  0.01799300  0.93983700  1
  O  O30  1  0.88359800  0.98200700  0.43983700  1
  O  O31  1  0.11640200  0.01799300  0.56016300  1
  O  O32  1  0.13272850  0.48937250  0.02538500  1
  O  O33  1  0.86727150  0.51062750  0.97461500  1
  O  O34  1  0.86727150  0.48937250  0.47461500  1
  O  O35  1  0.13272850  0.51062750  0.52538500  1
  O  O36  1  0.87489350  0.77009150  0.03106500  1
  O  O37  1  0.12510650  0.22990850  0.96893500  1
  O  O38  1  0.12542350  0.25698350  0.45205700  1
  O  O39  1  0.87457650  0.74301650  0.54794300  1
  O  O40  1  0.87457650  0.25698350  0.04794300  1
  O  O41  1  0.12542350  0.74301650  0.95205700  1
  O  O42  1  0.12510650  0.77009150  0.46893500  1
  O  O43  1  0.87489350  0.22990850  0.53106500  1
  O  O44  1  0.61640200  0.48200700  0.06016300  1
  O  O45  1  0.38359800  0.51799300  0.93983700  1
  O  O46  1  0.38359800  0.48200700  0.43983700  1
  O  O47  1  0.61640200  0.51799300  0.56016300  1
