# generated using pymatgen
data_KNpN3O11
_symmetry_space_group_name_H-M   'P 1'
_cell_length_a   9.53557016
_cell_length_b   9.53557016
_cell_length_c   18.99327211
_cell_angle_alpha   90.00000000
_cell_angle_beta   90.00000000
_cell_angle_gamma   120.00000000
_symmetry_Int_Tables_number   1
_chemical_formula_structural   KNpN3O11
_chemical_formula_sum   'K6 Np6 N18 O66'
_cell_volume   1495.62857500
_cell_formula_units_Z   6
loop_
 _symmetry_equiv_pos_site_id
 _symmetry_equiv_pos_as_xyz
  1  'x, y, z'
loop_
 _atom_site_type_symbol
 _atom_site_label
 _atom_site_symmetry_multiplicity
 _atom_site_fract_x
 _atom_site_fract_y
 _atom_site_fract_z
 _atom_site_occupancy
  K  K0  1  0.33333333  0.66666667  0.16666667  1
  K  K1  1  0.00000000  0.00000000  0.00000000  1
  K  K2  1  1.00000000  0.00000000  0.50000000  1
  K  K3  1  0.66666667  0.33333333  0.33333333  1
  K  K4  1  0.66666667  0.33333333  0.83333333  1
  K  K5  1  0.33333333  0.66666667  0.66666667  1
  Np  Np6  1  0.33333333  0.66666667  0.41666667  1
  Np  Np7  1  0.33333333  0.66666667  0.91666667  1
  Np  Np8  1  0.00000000  0.00000000  0.75000000  1
  Np  Np9  1  0.00000000  0.00000000  0.25000000  1
  Np  Np10  1  0.66666667  0.33333333  0.08333333  1
  Np  Np11  1  0.66666667  0.33333333  0.58333333  1
  N  N12  1  0.66666667  0.02673433  0.08333333  1
  N  N13  1  0.97326567  0.63993233  0.08333333  1
  N  N14  1  0.36006767  0.33333333  0.08333333  1
  N  N15  1  0.00000000  0.30659900  0.25000000  1
  N  N16  1  0.69340100  0.69340100  0.25000000  1
  N  N17  1  0.30659900  0.00000000  0.25000000  1
  N  N18  1  0.33333333  0.36006767  0.41666667  1
  N  N19  1  0.63993233  0.97326567  0.41666667  1
  N  N20  1  0.02673433  0.66666667  0.41666667  1
  N  N21  1  0.66666667  0.63993233  0.58333333  1
  N  N22  1  0.36006767  0.02673433  0.58333333  1
  N  N23  1  0.97326567  0.33333333  0.58333333  1
  N  N24  1  0.00000000  0.69340100  0.75000000  1
  N  N25  1  0.30659900  0.30659900  0.75000000  1
  N  N26  1  0.69340100  0.00000000  0.75000000  1
  N  N27  1  0.33333333  0.97326567  0.91666667  1
  N  N28  1  0.02673433  0.36006767  0.91666667  1
  N  N29  1  0.63993233  0.66666667  0.91666667  1
  O  O30  1  0.33333333  0.66666667  0.32239067  1
  O  O31  1  0.33333333  0.66666667  0.51094267  1
  O  O32  1  0.33333333  0.66666667  0.82239067  1
  O  O33  1  0.33333333  0.66666667  0.01094267  1
  O  O34  1  0.46445033  0.49812667  0.40994367  1
  O  O35  1  0.49812667  0.46445033  0.09005633  1
  O  O36  1  0.96632367  0.50187333  0.09005633  1
  O  O37  1  0.53554967  0.03367633  0.09005633  1
  O  O38  1  0.43542500  0.00000000  0.25000000  1
  O  O39  1  0.56457500  0.56457500  0.25000000  1
  O  O40  1  0.00000000  0.43542500  0.25000000  1
  O  O41  1  0.23124167  0.33333333  0.08333333  1
  O  O42  1  0.10209167  0.76875833  0.08333333  1
  O  O43  1  0.66666667  0.89790833  0.08333333  1
  O  O44  1  0.63299033  0.79778367  0.92338967  1
  O  O45  1  0.16479333  0.36700967  0.92338967  1
  O  O46  1  0.20221633  0.83520667  0.92338967  1
  O  O47  1  0.16854000  0.86888300  0.24327700  1
  O  O48  1  0.70034300  0.83146000  0.24327700  1
  O  O49  1  0.13111700  0.29965700  0.24327700  1
  O  O50  1  0.03367633  0.53554967  0.40994367  1
  O  O51  1  0.50187333  0.96632367  0.40994367  1
  O  O52  1  0.00000000  0.00000000  0.65572400  1
  O  O53  1  1.00000000  0.00000000  0.84427600  1
  O  O54  1  0.00000000  0.00000000  0.15572400  1
  O  O55  1  0.00000000  0.00000000  0.34427600  1
  O  O56  1  0.13111700  0.83146000  0.74327700  1
  O  O57  1  0.16479333  0.79778367  0.42338967  1
  O  O58  1  0.63299033  0.83520667  0.42338967  1
  O  O59  1  0.20221633  0.36700967  0.42338967  1
  O  O60  1  0.10209167  0.33333333  0.58333333  1
  O  O61  1  0.23124167  0.89790833  0.58333333  1
  O  O62  1  0.66666667  0.76875833  0.58333333  1
  O  O63  1  0.89790833  0.66666667  0.41666667  1
  O  O64  1  0.76875833  0.10209167  0.41666667  1
  O  O65  1  0.33333333  0.23124167  0.41666667  1
  O  O66  1  0.29965700  0.13111700  0.25672300  1
  O  O67  1  0.83146000  0.70034300  0.25672300  1
  O  O68  1  0.86888300  0.16854000  0.25672300  1
  O  O69  1  0.83520667  0.20221633  0.57661033  1
  O  O70  1  0.36700967  0.16479333  0.57661033  1
  O  O71  1  0.79778367  0.63299033  0.57661033  1
  O  O72  1  0.70034300  0.86888300  0.74327700  1
  O  O73  1  0.16854000  0.29965700  0.74327700  1
  O  O74  1  0.66666667  0.33333333  0.98905733  1
  O  O75  1  0.66666667  0.33333333  0.17760933  1
  O  O76  1  0.66666667  0.33333333  0.48905733  1
  O  O77  1  0.66666667  0.33333333  0.67760933  1
  O  O78  1  0.79778367  0.16479333  0.07661033  1
  O  O79  1  0.83146000  0.13111700  0.75672300  1
  O  O80  1  0.29965700  0.16854000  0.75672300  1
  O  O81  1  0.86888300  0.70034300  0.75672300  1
  O  O82  1  0.76875833  0.66666667  0.91666667  1
  O  O83  1  0.89790833  0.23124167  0.91666667  1
  O  O84  1  0.33333333  0.10209167  0.91666667  1
  O  O85  1  0.56457500  0.00000000  0.75000000  1
  O  O86  1  0.43542500  0.43542500  0.75000000  1
  O  O87  1  0.00000000  0.56457500  0.75000000  1
  O  O88  1  0.96632367  0.46445033  0.59005633  1
  O  O89  1  0.49812667  0.03367633  0.59005633  1
  O  O90  1  0.53554967  0.50187333  0.59005633  1
  O  O91  1  0.50187333  0.53554967  0.90994367  1
  O  O92  1  0.03367633  0.49812667  0.90994367  1
  O  O93  1  0.46445033  0.96632367  0.90994367  1
  O  O94  1  0.36700967  0.20221633  0.07661033  1
  O  O95  1  0.83520667  0.63299033  0.07661033  1
