# generated using pymatgen
data_Ba2Nb6Te2O21
_symmetry_space_group_name_H-M   'P 1'
_cell_length_a   16.96897000
_cell_length_b   5.78320400
_cell_length_c   9.83049046
_cell_angle_alpha   90.00000000
_cell_angle_beta   96.84068389
_cell_angle_gamma   90.00000000
_symmetry_Int_Tables_number   1
_chemical_formula_structural   Ba2Nb6Te2O21
_chemical_formula_sum   'Ba4 Nb12 Te4 O42'
_cell_volume   957.84769888
_cell_formula_units_Z   2
loop_
 _symmetry_equiv_pos_site_id
 _symmetry_equiv_pos_as_xyz
  1  'x, y, z'
loop_
 _atom_site_type_symbol
 _atom_site_label
 _atom_site_symmetry_multiplicity
 _atom_site_fract_x
 _atom_site_fract_y
 _atom_site_fract_z
 _atom_site_occupancy
  Ba  Ba0  1  0.64038100  0.50000000  0.52871200  1
  Ba  Ba1  1  0.85961900  0.00000000  0.47128800  1
  Ba  Ba2  1  0.14038100  0.00000000  0.52871200  1
  Ba  Ba3  1  0.35961900  0.50000000  0.47128800  1
  Nb  Nb4  1  0.82343000  0.50000000  0.83196600  1
  Nb  Nb5  1  0.67657000  0.00000000  0.16803400  1
  Nb  Nb6  1  0.51886300  0.00000000  0.66240500  1
  Nb  Nb7  1  0.98113700  0.50000000  0.33759500  1
  Nb  Nb8  1  0.90227900  0.00000000  0.08599600  1
  Nb  Nb9  1  0.59772100  0.50000000  0.91400400  1
  Nb  Nb10  1  0.32343000  0.00000000  0.83196600  1
  Nb  Nb11  1  0.17657000  0.50000000  0.16803400  1
  Nb  Nb12  1  0.01886300  0.50000000  0.66240500  1
  Nb  Nb13  1  0.48113700  0.00000000  0.33759500  1
  Nb  Nb14  1  0.40227900  0.50000000  0.08599600  1
  Nb  Nb15  1  0.09772100  0.00000000  0.91400400  1
  Te  Te16  1  0.77383000  0.50000000  0.24931000  1
  Te  Te17  1  0.72617000  0.00000000  0.75069000  1
  Te  Te18  1  0.27383000  0.00000000  0.24931000  1
  Te  Te19  1  0.22617000  0.50000000  0.75069000  1
  O  O20  1  0.91844500  0.50000000  0.72146000  1
  O  O21  1  0.58155500  0.00000000  0.27854000  1
  O  O22  1  0.70919800  0.50000000  0.84938500  1
  O  O23  1  0.79080200  0.00000000  0.15061500  1
  O  O24  1  0.00000000  0.00000000  0.00000000  1
  O  O25  1  0.93495350  0.75921050  0.22075900  1
  O  O26  1  0.56504650  0.25921050  0.77924100  1
  O  O27  1  0.56504650  0.74078950  0.77924100  1
  O  O28  1  0.93495350  0.24078950  0.22075900  1
  O  O29  1  0.64508600  0.74918700  0.05297800  1
  O  O30  1  0.00000000  0.72223900  0.50000000  1
  O  O31  1  0.00000000  0.27776100  0.50000000  1
  O  O32  1  0.64212100  0.00000000  0.60424700  1
  O  O33  1  0.85787900  0.50000000  0.39575300  1
  O  O34  1  0.78202500  0.24039500  0.66874300  1
  O  O35  1  0.71797500  0.74039500  0.33125700  1
  O  O36  1  0.71797500  0.25960500  0.33125700  1
  O  O37  1  0.78202500  0.75960500  0.66874300  1
  O  O38  1  0.64508600  0.25081300  0.05297800  1
  O  O39  1  0.85491400  0.75081300  0.94702200  1
  O  O40  1  0.85491400  0.24918700  0.94702200  1
  O  O41  1  0.41844500  0.00000000  0.72146000  1
  O  O42  1  0.08155500  0.50000000  0.27854000  1
  O  O43  1  0.20919800  0.00000000  0.84938500  1
  O  O44  1  0.29080200  0.50000000  0.15061500  1
  O  O45  1  0.50000000  0.50000000  0.00000000  1
  O  O46  1  0.43495350  0.25921050  0.22075900  1
  O  O47  1  0.06504650  0.75921050  0.77924100  1
  O  O48  1  0.06504650  0.24078950  0.77924100  1
  O  O49  1  0.43495350  0.74078950  0.22075900  1
  O  O50  1  0.14508600  0.24918700  0.05297800  1
  O  O51  1  0.50000000  0.22223900  0.50000000  1
  O  O52  1  0.50000000  0.77776100  0.50000000  1
  O  O53  1  0.14212100  0.50000000  0.60424700  1
  O  O54  1  0.35787900  0.00000000  0.39575300  1
  O  O55  1  0.28202500  0.74039500  0.66874300  1
  O  O56  1  0.21797500  0.24039500  0.33125700  1
  O  O57  1  0.21797500  0.75960500  0.33125700  1
  O  O58  1  0.28202500  0.25960500  0.66874300  1
  O  O59  1  0.14508600  0.75081300  0.05297800  1
  O  O60  1  0.35491400  0.25081300  0.94702200  1
  O  O61  1  0.35491400  0.74918700  0.94702200  1
