# generated using pymatgen
data_La5S4NO2
_symmetry_space_group_name_H-M   'P 1'
_cell_length_a   15.74114400
_cell_length_b   4.09705000
_cell_length_c   16.83536031
_cell_angle_alpha   90.00000000
_cell_angle_beta   101.08649635
_cell_angle_gamma   90.00000000
_symmetry_Int_Tables_number   1
_chemical_formula_structural   La5S4NO2
_chemical_formula_sum   'La20 S16 N4 O8'
_cell_volume   1065.48807286
_cell_formula_units_Z   4
loop_
 _symmetry_equiv_pos_site_id
 _symmetry_equiv_pos_as_xyz
  1  'x, y, z'
loop_
 _atom_site_type_symbol
 _atom_site_label
 _atom_site_symmetry_multiplicity
 _atom_site_fract_x
 _atom_site_fract_y
 _atom_site_fract_z
 _atom_site_occupancy
  La  La0  1  0.62447500  0.50000000  0.02413400  1
  La  La1  1  0.87552500  0.00000000  0.97586600  1
  La  La2  1  0.98201900  0.50000000  0.83170700  1
  La  La3  1  0.51798100  0.00000000  0.16829300  1
  La  La4  1  0.73211900  0.50000000  0.79433000  1
  La  La5  1  0.76788100  0.00000000  0.20567000  1
  La  La6  1  0.92149300  0.50000000  0.40729700  1
  La  La7  1  0.57850700  0.00000000  0.59270300  1
  La  La8  1  0.64058400  0.50000000  0.41432500  1
  La  La9  1  0.85941600  0.00000000  0.58567500  1
  La  La10  1  0.12447500  0.00000000  0.02413400  1
  La  La11  1  0.37552500  0.50000000  0.97586600  1
  La  La12  1  0.48201900  0.00000000  0.83170700  1
  La  La13  1  0.01798100  0.50000000  0.16829300  1
  La  La14  1  0.23211900  0.00000000  0.79433000  1
  La  La15  1  0.26788100  0.50000000  0.20567000  1
  La  La16  1  0.42149300  0.00000000  0.40729700  1
  La  La17  1  0.07850700  0.50000000  0.59270300  1
  La  La18  1  0.14058400  0.00000000  0.41432500  1
  La  La19  1  0.35941600  0.50000000  0.58567500  1
  S  S20  1  0.82250900  0.50000000  0.09918100  1
  S  S21  1  0.67749100  0.00000000  0.90081900  1
  S  S22  1  0.65956600  0.50000000  0.24420000  1
  S  S23  1  0.84043400  0.00000000  0.75580000  1
  S  S24  1  0.54582200  0.50000000  0.71556700  1
  S  S25  1  0.95417800  0.00000000  0.28443300  1
  S  S26  1  0.71296600  0.50000000  0.59299800  1
  S  S27  1  0.78703400  0.00000000  0.40700200  1
  S  S28  1  0.32250900  0.00000000  0.09918100  1
  S  S29  1  0.17749100  0.50000000  0.90081900  1
  S  S30  1  0.15956600  0.00000000  0.24420000  1
  S  S31  1  0.34043400  0.50000000  0.75580000  1
  S  S32  1  0.04582200  0.00000000  0.71556700  1
  S  S33  1  0.45417800  0.50000000  0.28443300  1
  S  S34  1  0.21296600  0.00000000  0.59299800  1
  S  S35  1  0.28703400  0.50000000  0.40700200  1
  N  N36  1  0.92734700  0.50000000  0.54968700  1
  N  N37  1  0.57265300  0.00000000  0.45031300  1
  N  N38  1  0.42734700  0.00000000  0.54968700  1
  N  N39  1  0.07265300  0.50000000  0.45031300  1
  O  O40  1  0.50248100  0.50000000  0.91381900  1
  O  O41  1  0.99751900  0.00000000  0.08618100  1
  O  O42  1  0.86059900  0.50000000  0.90353300  1
  O  O43  1  0.63940100  0.00000000  0.09646700  1
  O  O44  1  0.00248100  0.00000000  0.91381900  1
  O  O45  1  0.49751900  0.50000000  0.08618100  1
  O  O46  1  0.36059900  0.00000000  0.90353300  1
  O  O47  1  0.13940100  0.50000000  0.09646700  1
