# generated using pymatgen
data_La4V5(Si2O11)2
_symmetry_space_group_name_H-M   'P 1'
_cell_length_a   13.62781181
_cell_length_b   5.73083117
_cell_length_c   11.23628222
_cell_angle_alpha   90.00000000
_cell_angle_beta   100.61238739
_cell_angle_gamma   90.00000000
_symmetry_Int_Tables_number   1
_chemical_formula_structural   La4V5(Si2O11)2
_chemical_formula_sum   'La8 V10 Si8 O44'
_cell_volume   862.52909168
_cell_formula_units_Z   2
loop_
 _symmetry_equiv_pos_site_id
 _symmetry_equiv_pos_as_xyz
  1  'x, y, z'
loop_
 _atom_site_type_symbol
 _atom_site_label
 _atom_site_symmetry_multiplicity
 _atom_site_fract_x
 _atom_site_fract_y
 _atom_site_fract_z
 _atom_site_occupancy
  La  La0  1  0.57282160  0.50000000  0.24781442  1
  La  La1  1  0.92717840  0.00000000  0.75218558  1
  La  La2  1  0.85651883  0.50000000  0.24266758  1
  La  La3  1  0.64348117  0.00000000  0.75733242  1
  La  La4  1  0.07282160  0.00000000  0.24781442  1
  La  La5  1  0.42717840  0.50000000  0.75218558  1
  La  La6  1  0.35651883  0.00000000  0.24266758  1
  La  La7  1  0.14348117  0.50000000  0.75733242  1
  V  V8  1  0.00000000  0.50000000  0.00000000  1
  V  V9  1  0.75000000  0.25000000  0.50000000  1
  V  V10  1  0.00000000  0.50000000  0.50000000  1
  V  V11  1  0.00000000  0.00000000  0.50000000  1
  V  V12  1  0.75000000  0.75000000  0.50000000  1
  V  V13  1  0.50000000  0.00000000  0.00000000  1
  V  V14  1  0.25000000  0.75000000  0.50000000  1
  V  V15  1  0.50000000  0.00000000  0.50000000  1
  V  V16  1  0.50000000  0.50000000  0.50000000  1
  V  V17  1  0.25000000  0.25000000  0.50000000  1
  Si  Si18  1  0.86176882  0.00000000  0.04302629  1
  Si  Si19  1  0.63823118  0.50000000  0.95697371  1
  Si  Si20  1  0.70419494  0.00000000  0.22954234  1
  Si  Si21  1  0.79580506  0.50000000  0.77045766  1
  Si  Si22  1  0.36176882  0.50000000  0.04302629  1
  Si  Si23  1  0.13823118  0.00000000  0.95697371  1
  Si  Si24  1  0.20419494  0.50000000  0.22954234  1
  Si  Si25  1  0.29580506  0.00000000  0.77045766  1
  O  O26  1  0.78242415  0.00000000  0.13641211  1
  O  O27  1  0.71757585  0.50000000  0.86358789  1
  O  O28  1  0.56994030  0.26492490  0.91397446  1
  O  O29  1  0.93005970  0.76492490  0.08602554  1
  O  O30  1  0.93005970  0.23507510  0.08602554  1
  O  O31  1  0.56994030  0.73507510  0.91397446  1
  O  O32  1  0.68889586  0.50000000  0.09788060  1
  O  O33  1  0.81110414  0.00000000  0.90211940  1
  O  O34  1  0.58926951  0.00000000  0.16049217  1
  O  O35  1  0.91073049  0.50000000  0.83950783  1
  O  O36  1  0.77434513  0.26290278  0.68826354  1
  O  O37  1  0.72565487  0.76290278  0.31173646  1
  O  O38  1  0.72565487  0.23709722  0.31173646  1
  O  O39  1  0.65029770  0.00000000  0.51475219  1
  O  O40  1  0.84970230  0.50000000  0.48524781  1
  O  O41  1  0.85738833  0.00000000  0.52455295  1
  O  O42  1  0.64261167  0.50000000  0.47544705  1
  O  O43  1  0.77434513  0.73709722  0.68826354  1
  O  O44  1  0.97764046  0.75945544  0.37058645  1
  O  O45  1  0.97764046  0.24054456  0.37058645  1
  O  O46  1  0.52235954  0.74054456  0.62941355  1
  O  O47  1  0.52235954  0.25945544  0.62941355  1
  O  O48  1  0.28242415  0.50000000  0.13641211  1
  O  O49  1  0.21757585  0.00000000  0.86358789  1
  O  O50  1  0.06994030  0.76492490  0.91397446  1
  O  O51  1  0.43005970  0.26492490  0.08602554  1
  O  O52  1  0.43005970  0.73507510  0.08602554  1
  O  O53  1  0.06994030  0.23507510  0.91397446  1
  O  O54  1  0.18889586  0.00000000  0.09788060  1
  O  O55  1  0.31110414  0.50000000  0.90211940  1
  O  O56  1  0.08926951  0.50000000  0.16049217  1
  O  O57  1  0.41073049  0.00000000  0.83950783  1
  O  O58  1  0.27434513  0.76290278  0.68826354  1
  O  O59  1  0.22565487  0.26290278  0.31173646  1
  O  O60  1  0.22565487  0.73709722  0.31173646  1
  O  O61  1  0.15029770  0.50000000  0.51475219  1
  O  O62  1  0.34970230  0.00000000  0.48524781  1
  O  O63  1  0.35738833  0.50000000  0.52455295  1
  O  O64  1  0.14261167  0.00000000  0.47544705  1
  O  O65  1  0.27434513  0.23709722  0.68826354  1
  O  O66  1  0.47764046  0.25945544  0.37058645  1
  O  O67  1  0.47764046  0.74054456  0.37058645  1
  O  O68  1  0.02235954  0.24054456  0.62941355  1
  O  O69  1  0.02235954  0.75945544  0.62941355  1
