# generated using pymatgen
data_NaAlP2O7
_symmetry_space_group_name_H-M   'P 1'
_cell_length_a   7.28369700
_cell_length_b   7.81459700
_cell_length_c   9.41157110
_cell_angle_alpha   90.00000000
_cell_angle_beta   111.65722159
_cell_angle_gamma   90.00000000
_symmetry_Int_Tables_number   1
_chemical_formula_structural   NaAlP2O7
_chemical_formula_sum   'Na4 Al4 P8 O28'
_cell_volume   497.88284927
_cell_formula_units_Z   4
loop_
 _symmetry_equiv_pos_site_id
 _symmetry_equiv_pos_as_xyz
  1  'x, y, z'
loop_
 _atom_site_type_symbol
 _atom_site_label
 _atom_site_symmetry_multiplicity
 _atom_site_fract_x
 _atom_site_fract_y
 _atom_site_fract_z
 _atom_site_occupancy
  Na  Na0  1  0.70956800  0.52589700  0.70298900  1
  Na  Na1  1  0.29043200  0.02589700  0.79701100  1
  Na  Na2  1  0.29043200  0.47410300  0.29701100  1
  Na  Na3  1  0.70956800  0.97410300  0.20298900  1
  Al  Al4  1  0.26005200  0.01035200  0.24729300  1
  Al  Al5  1  0.73994800  0.51035200  0.25270700  1
  Al  Al6  1  0.73994800  0.98964800  0.75270700  1
  Al  Al7  1  0.26005200  0.48964800  0.74729300  1
  P  P8  1  0.07144200  0.24447500  0.95022900  1
  P  P9  1  0.92855800  0.74447500  0.54977100  1
  P  P10  1  0.92855800  0.75552500  0.04977100  1
  P  P11  1  0.07144200  0.25552500  0.45022900  1
  P  P12  1  0.66979000  0.29292800  0.95263300  1
  P  P13  1  0.33021000  0.79292800  0.54736700  1
  P  P14  1  0.33021000  0.70707200  0.04736700  1
  P  P15  1  0.66979000  0.20707200  0.45263300  1
  O  O16  1  0.68544200  0.30913500  0.11816000  1
  O  O17  1  0.31455800  0.80913500  0.38184000  1
  O  O18  1  0.31455800  0.69086500  0.88184000  1
  O  O19  1  0.68544200  0.19086500  0.61816000  1
  O  O20  1  0.19067800  0.20676700  0.11797600  1
  O  O21  1  0.80932200  0.70676700  0.38202400  1
  O  O22  1  0.80932200  0.79323300  0.88202400  1
  O  O23  1  0.19067800  0.29323300  0.61797600  1
  O  O24  1  0.64255200  0.10507100  0.89933400  1
  O  O25  1  0.35744800  0.60507100  0.60066600  1
  O  O26  1  0.35744800  0.89492900  0.10066600  1
  O  O27  1  0.64255200  0.39492900  0.39933400  1
  O  O28  1  0.99809700  0.08265700  0.85332000  1
  O  O29  1  0.00190300  0.58265700  0.64668000  1
  O  O30  1  0.00190300  0.91734300  0.14668000  1
  O  O31  1  0.99809700  0.41734300  0.35332000  1
  O  O32  1  0.87702900  0.14565700  0.43918700  1
  O  O33  1  0.12297100  0.64565700  0.06081300  1
  O  O34  1  0.12297100  0.85434300  0.56081300  1
  O  O35  1  0.87702900  0.35434300  0.93918700  1
  O  O36  1  0.52313700  0.08590000  0.34104000  1
  O  O37  1  0.47686300  0.58590000  0.15896000  1
  O  O38  1  0.47686300  0.91410000  0.65896000  1
  O  O39  1  0.52313700  0.41410000  0.84104000  1
  O  O40  1  0.18550800  0.13811100  0.38537500  1
  O  O41  1  0.81449200  0.63811100  0.11462500  1
  O  O42  1  0.81449200  0.86188900  0.61462500  1
  O  O43  1  0.18550800  0.36188900  0.88537500  1
