# generated using pymatgen
data_Ba3(GaN2)2
_symmetry_space_group_name_H-M   'P 1'
_cell_length_a   6.28477900
_cell_length_b   10.19874500
_cell_length_c   10.64545900
_cell_angle_alpha   90.00000000
_cell_angle_beta   90.00000000
_cell_angle_gamma   90.00000000
_symmetry_Int_Tables_number   1
_chemical_formula_structural   Ba3(GaN2)2
_chemical_formula_sum   'Ba12 Ga8 N16'
_cell_volume   682.34047815
_cell_formula_units_Z   4
loop_
 _symmetry_equiv_pos_site_id
 _symmetry_equiv_pos_as_xyz
  1  'x, y, z'
loop_
 _atom_site_type_symbol
 _atom_site_label
 _atom_site_symmetry_multiplicity
 _atom_site_fract_x
 _atom_site_fract_y
 _atom_site_fract_z
 _atom_site_occupancy
  Ba  Ba0  1  0.25000000  0.59296500  0.50000000  1
  Ba  Ba1  1  0.25000000  0.90703500  0.00000000  1
  Ba  Ba2  1  0.75000000  0.40703500  0.50000000  1
  Ba  Ba3  1  0.75000000  0.09296500  0.00000000  1
  Ba  Ba4  1  0.39197500  0.58827500  0.84547400  1
  Ba  Ba5  1  0.39197500  0.91172500  0.65452600  1
  Ba  Ba6  1  0.10802500  0.58827500  0.15452600  1
  Ba  Ba7  1  0.10802500  0.91172500  0.34547400  1
  Ba  Ba8  1  0.60802500  0.41172500  0.15452600  1
  Ba  Ba9  1  0.60802500  0.08827500  0.34547400  1
  Ba  Ba10  1  0.89197500  0.41172500  0.84547400  1
  Ba  Ba11  1  0.89197500  0.08827500  0.65452600  1
  Ga  Ga12  1  0.83585800  0.75000000  0.75000000  1
  Ga  Ga13  1  0.66414200  0.75000000  0.25000000  1
  Ga  Ga14  1  0.16414200  0.25000000  0.25000000  1
  Ga  Ga15  1  0.33585800  0.25000000  0.75000000  1
  Ga  Ga16  1  0.25000000  0.23050200  0.00000000  1
  Ga  Ga17  1  0.75000000  0.73050200  0.50000000  1
  Ga  Ga18  1  0.75000000  0.76949800  0.00000000  1
  Ga  Ga19  1  0.25000000  0.26949800  0.50000000  1
  N  N20  1  0.47869800  0.17130000  0.59699600  1
  N  N21  1  0.47869800  0.32870000  0.90300400  1
  N  N22  1  0.02130200  0.17130000  0.40300400  1
  N  N23  1  0.02130200  0.32870000  0.09699600  1
  N  N24  1  0.52130200  0.82870000  0.40300400  1
  N  N25  1  0.52130200  0.67130000  0.09699600  1
  N  N26  1  0.97869800  0.82870000  0.59699600  1
  N  N27  1  0.97869800  0.67130000  0.90300400  1
  N  N28  1  0.13770600  0.37020800  0.64612600  1
  N  N29  1  0.13770600  0.12979200  0.85387400  1
  N  N30  1  0.36229400  0.37020800  0.35387400  1
  N  N31  1  0.36229400  0.12979200  0.14612600  1
  N  N32  1  0.86229400  0.87020800  0.14612600  1
  N  N33  1  0.63770600  0.62979200  0.64612600  1
  N  N34  1  0.63770600  0.87020800  0.85387400  1
  N  N35  1  0.86229400  0.62979200  0.35387400  1
