# generated using pymatgen
data_WO3
_symmetry_space_group_name_H-M   'P 1'
_cell_length_a   5.40736100
_cell_length_b   5.40736100
_cell_length_c   7.81784500
_cell_angle_alpha   90.00000000
_cell_angle_beta   90.00000000
_cell_angle_gamma   90.00000000
_symmetry_Int_Tables_number   1
_chemical_formula_structural   WO3
_chemical_formula_sum   'W4 O12'
_cell_volume   228.59029310
_cell_formula_units_Z   4
loop_
 _symmetry_equiv_pos_site_id
 _symmetry_equiv_pos_as_xyz
  1  'x, y, z'
loop_
 _atom_site_type_symbol
 _atom_site_label
 _atom_site_symmetry_multiplicity
 _atom_site_fract_x
 _atom_site_fract_y
 _atom_site_fract_z
 _atom_site_occupancy
  W  W0  1  0.00000000  0.50000000  0.23028100  1
  W  W1  1  0.00000000  0.50000000  0.73028100  1
  W  W2  1  0.50000000  0.00000000  0.26971900  1
  W  W3  1  0.50000000  0.00000000  0.76971900  1
  O  O4  1  0.27945600  0.27945600  0.75000000  1
  O  O5  1  0.77945600  0.77945600  0.25000000  1
  O  O6  1  0.27945600  0.72054400  0.25000000  1
  O  O7  1  0.22054400  0.22054400  0.25000000  1
  O  O8  1  0.77945600  0.22054400  0.75000000  1
  O  O9  1  0.72054400  0.72054400  0.75000000  1
  O  O10  1  0.22054400  0.77945600  0.75000000  1
  O  O11  1  0.72054400  0.27945600  0.25000000  1
  O  O12  1  0.00000000  0.50000000  0.99544200  1
  O  O13  1  0.50000000  0.00000000  0.50455800  1
  O  O14  1  0.00000000  0.50000000  0.49544200  1
  O  O15  1  0.50000000  0.00000000  0.00455800  1
