# generated using pymatgen
data_Ba3AlSb3
_symmetry_space_group_name_H-M   'P 1'
_cell_length_a   7.28058000
_cell_length_b   21.39950600
_cell_length_c   14.27142800
_cell_angle_alpha   90.00000000
_cell_angle_beta   90.00000000
_cell_angle_gamma   90.00000000
_symmetry_Int_Tables_number   1
_chemical_formula_structural   Ba3AlSb3
_chemical_formula_sum   'Ba24 Al8 Sb24'
_cell_volume   2223.50011923
_cell_formula_units_Z   8
loop_
 _symmetry_equiv_pos_site_id
 _symmetry_equiv_pos_as_xyz
  1  'x, y, z'
loop_
 _atom_site_type_symbol
 _atom_site_label
 _atom_site_symmetry_multiplicity
 _atom_site_fract_x
 _atom_site_fract_y
 _atom_site_fract_z
 _atom_site_occupancy
  Ba  Ba0  1  0.69539100  0.17451700  0.87114700  1
  Ba  Ba1  1  0.69539100  0.32548300  0.62885300  1
  Ba  Ba2  1  0.30460900  0.32548300  0.37114700  1
  Ba  Ba3  1  0.30460900  0.17451700  0.12885300  1
  Ba  Ba4  1  0.80460900  0.32548300  0.12885300  1
  Ba  Ba5  1  0.80460900  0.17451700  0.37114700  1
  Ba  Ba6  1  0.19539100  0.17451700  0.62885300  1
  Ba  Ba7  1  0.19539100  0.32548300  0.87114700  1
  Ba  Ba8  1  0.81436900  0.00000000  0.64719200  1
  Ba  Ba9  1  0.31436900  0.00000000  0.85280800  1
  Ba  Ba10  1  0.68563100  0.00000000  0.14719200  1
  Ba  Ba11  1  0.18563100  0.00000000  0.35280800  1
  Ba  Ba12  1  0.19539100  0.67451700  0.87114700  1
  Ba  Ba13  1  0.19539100  0.82548300  0.62885300  1
  Ba  Ba14  1  0.80460900  0.82548300  0.37114700  1
  Ba  Ba15  1  0.80460900  0.67451700  0.12885300  1
  Ba  Ba16  1  0.30460900  0.82548300  0.12885300  1
  Ba  Ba17  1  0.30460900  0.67451700  0.37114700  1
  Ba  Ba18  1  0.69539100  0.67451700  0.62885300  1
  Ba  Ba19  1  0.69539100  0.82548300  0.87114700  1
  Ba  Ba20  1  0.31436900  0.50000000  0.64719200  1
  Ba  Ba21  1  0.81436900  0.50000000  0.85280800  1
  Ba  Ba22  1  0.18563100  0.50000000  0.14719200  1
  Ba  Ba23  1  0.68563100  0.50000000  0.35280800  1
  Al  Al24  1  0.00000000  0.41481900  0.50000000  1
  Al  Al25  1  0.00000000  0.08518100  0.00000000  1
  Al  Al26  1  0.50000000  0.08518100  0.50000000  1
  Al  Al27  1  0.50000000  0.41481900  0.00000000  1
  Al  Al28  1  0.50000000  0.91481900  0.50000000  1
  Al  Al29  1  0.50000000  0.58518100  0.00000000  1
  Al  Al30  1  0.00000000  0.58518100  0.50000000  1
  Al  Al31  1  0.00000000  0.91481900  0.00000000  1
  Sb  Sb32  1  0.20027650  0.15904450  0.88015000  1
  Sb  Sb33  1  0.20027650  0.34095550  0.61985000  1
  Sb  Sb34  1  0.79972350  0.34095550  0.38015000  1
  Sb  Sb35  1  0.79972350  0.15904450  0.11985000  1
  Sb  Sb36  1  0.29972350  0.34095550  0.11985000  1
  Sb  Sb37  1  0.29972350  0.15904450  0.38015000  1
  Sb  Sb38  1  0.70027650  0.15904450  0.61985000  1
  Sb  Sb39  1  0.70027650  0.34095550  0.88015000  1
  Sb  Sb40  1  0.70364300  0.00000000  0.39830300  1
  Sb  Sb41  1  0.20364300  0.00000000  0.10169700  1
  Sb  Sb42  1  0.79635700  0.00000000  0.89830300  1
  Sb  Sb43  1  0.29635700  0.00000000  0.60169700  1
  Sb  Sb44  1  0.70027650  0.65904450  0.88015000  1
  Sb  Sb45  1  0.70027650  0.84095550  0.61985000  1
  Sb  Sb46  1  0.29972350  0.84095550  0.38015000  1
  Sb  Sb47  1  0.29972350  0.65904450  0.11985000  1
  Sb  Sb48  1  0.79972350  0.84095550  0.11985000  1
  Sb  Sb49  1  0.79972350  0.65904450  0.38015000  1
  Sb  Sb50  1  0.20027650  0.65904450  0.61985000  1
  Sb  Sb51  1  0.20027650  0.84095550  0.88015000  1
  Sb  Sb52  1  0.20364300  0.50000000  0.39830300  1
  Sb  Sb53  1  0.70364300  0.50000000  0.10169700  1
  Sb  Sb54  1  0.29635700  0.50000000  0.89830300  1
  Sb  Sb55  1  0.79635700  0.50000000  0.60169700  1
