# generated using pymatgen
data_NaGe2N3
_symmetry_space_group_name_H-M   'P 1'
_cell_length_a   5.84521800
_cell_length_b   9.95623400
_cell_length_c   5.18649700
_cell_angle_alpha   90.00000000
_cell_angle_beta   90.00000000
_cell_angle_gamma   90.00000000
_symmetry_Int_Tables_number   1
_chemical_formula_structural   NaGe2N3
_chemical_formula_sum   'Na4 Ge8 N12'
_cell_volume   301.83523716
_cell_formula_units_Z   4
loop_
 _symmetry_equiv_pos_site_id
 _symmetry_equiv_pos_as_xyz
  1  'x, y, z'
loop_
 _atom_site_type_symbol
 _atom_site_label
 _atom_site_symmetry_multiplicity
 _atom_site_fract_x
 _atom_site_fract_y
 _atom_site_fract_z
 _atom_site_occupancy
  Na  Na0  1  0.33869200  0.00000000  0.50471300  1
  Na  Na1  1  0.66130800  0.00000000  0.00471300  1
  Na  Na2  1  0.83869200  0.50000000  0.50471300  1
  Na  Na3  1  0.16130800  0.50000000  0.00471300  1
  Ge  Ge4  1  0.65622250  0.33209450  0.97553700  1
  Ge  Ge5  1  0.34377750  0.66790550  0.47553700  1
  Ge  Ge6  1  0.34377750  0.33209450  0.47553700  1
  Ge  Ge7  1  0.65622250  0.66790550  0.97553700  1
  Ge  Ge8  1  0.15622250  0.83209450  0.97553700  1
  Ge  Ge9  1  0.84377750  0.16790550  0.47553700  1
  Ge  Ge10  1  0.84377750  0.83209450  0.47553700  1
  Ge  Ge11  1  0.15622250  0.16790550  0.97553700  1
  N  N12  1  0.25796400  0.00000000  0.04565400  1
  N  N13  1  0.74203600  0.00000000  0.54565400  1
  N  N14  1  0.63264800  0.70869200  0.62027900  1
  N  N15  1  0.63264800  0.29130800  0.62027900  1
  N  N16  1  0.36735200  0.70869200  0.12027900  1
  N  N17  1  0.36735200  0.29130800  0.12027900  1
  N  N18  1  0.75796400  0.50000000  0.04565400  1
  N  N19  1  0.24203600  0.50000000  0.54565400  1
  N  N20  1  0.13264800  0.20869200  0.62027900  1
  N  N21  1  0.13264800  0.79130800  0.62027900  1
  N  N22  1  0.86735200  0.20869200  0.12027900  1
  N  N23  1  0.86735200  0.79130800  0.12027900  1
