# generated using pymatgen
data_SrVSi2O7
_symmetry_space_group_name_H-M   'P 1'
_cell_length_a   5.38265000
_cell_length_b   14.83702800
_cell_length_c   7.11380100
_cell_angle_alpha   90.00000000
_cell_angle_beta   90.00000000
_cell_angle_gamma   90.00000000
_symmetry_Int_Tables_number   1
_chemical_formula_structural   SrVSi2O7
_chemical_formula_sum   'Sr4 V4 Si8 O28'
_cell_volume   568.12613699
_cell_formula_units_Z   4
loop_
 _symmetry_equiv_pos_site_id
 _symmetry_equiv_pos_as_xyz
  1  'x, y, z'
loop_
 _atom_site_type_symbol
 _atom_site_label
 _atom_site_symmetry_multiplicity
 _atom_site_fract_x
 _atom_site_fract_y
 _atom_site_fract_z
 _atom_site_occupancy
  Sr  Sr0  1  0.00000000  0.79583700  0.75000000  1
  Sr  Sr1  1  0.50000000  0.70416300  0.25000000  1
  Sr  Sr2  1  0.50000000  0.29583700  0.75000000  1
  Sr  Sr3  1  0.00000000  0.20416300  0.25000000  1
  V  V4  1  0.50000000  0.60790200  0.75000000  1
  V  V5  1  0.00000000  0.89209800  0.25000000  1
  V  V6  1  0.00000000  0.10790200  0.75000000  1
  V  V7  1  0.50000000  0.39209800  0.25000000  1
  Si  Si8  1  0.00000000  0.60782950  0.47598600  1
  Si  Si9  1  0.50000000  0.89217050  0.52401400  1
  Si  Si10  1  0.50000000  0.89217050  0.97598600  1
  Si  Si11  1  0.00000000  0.60782950  0.02401400  1
  Si  Si12  1  0.50000000  0.10782950  0.47598600  1
  Si  Si13  1  0.00000000  0.39217050  0.52401400  1
  Si  Si14  1  0.00000000  0.39217050  0.97598600  1
  Si  Si15  1  0.50000000  0.10782950  0.02401400  1
  O  O16  1  0.50000000  0.86270700  0.75000000  1
  O  O17  1  0.00000000  0.63729300  0.25000000  1
  O  O18  1  0.50000000  0.00000000  0.50000000  1
  O  O19  1  0.50000000  0.00000000  0.00000000  1
  O  O20  1  0.25145050  0.65315650  0.56072900  1
  O  O21  1  0.75145050  0.84684350  0.43927100  1
  O  O22  1  0.24854950  0.84684350  0.06072900  1
  O  O23  1  0.74854950  0.65315650  0.93927100  1
  O  O24  1  0.50000000  0.50303500  0.25000000  1
  O  O25  1  0.00000000  0.99696500  0.75000000  1
  O  O26  1  0.75145050  0.84684350  0.06072900  1
  O  O27  1  0.25145050  0.65315650  0.93927100  1
  O  O28  1  0.74854950  0.65315650  0.56072900  1
  O  O29  1  0.24854950  0.84684350  0.43927100  1
  O  O30  1  0.00000000  0.36270700  0.75000000  1
  O  O31  1  0.50000000  0.13729300  0.25000000  1
  O  O32  1  0.00000000  0.50000000  0.50000000  1
  O  O33  1  0.00000000  0.50000000  0.00000000  1
  O  O34  1  0.75145050  0.15315650  0.56072900  1
  O  O35  1  0.25145050  0.34684350  0.43927100  1
  O  O36  1  0.74854950  0.34684350  0.06072900  1
  O  O37  1  0.24854950  0.15315650  0.93927100  1
  O  O38  1  0.00000000  0.00303500  0.25000000  1
  O  O39  1  0.50000000  0.49696500  0.75000000  1
  O  O40  1  0.25145050  0.34684350  0.06072900  1
  O  O41  1  0.75145050  0.15315650  0.93927100  1
  O  O42  1  0.24854950  0.15315650  0.56072900  1
  O  O43  1  0.74854950  0.34684350  0.43927100  1
