# generated using pymatgen
data_K2Zr3OF12
_symmetry_space_group_name_H-M   'P 1'
_cell_length_a   7.81768182
_cell_length_b   7.81768182
_cell_length_c   29.35895237
_cell_angle_alpha   90.00000000
_cell_angle_beta   90.00000000
_cell_angle_gamma   120.00000000
_symmetry_Int_Tables_number   1
_chemical_formula_structural   K2Zr3OF12
_chemical_formula_sum   'K12 Zr18 O6 F72'
_cell_volume   1553.91467049
_cell_formula_units_Z   6
loop_
 _symmetry_equiv_pos_site_id
 _symmetry_equiv_pos_as_xyz
  1  'x, y, z'
loop_
 _atom_site_type_symbol
 _atom_site_label
 _atom_site_symmetry_multiplicity
 _atom_site_fract_x
 _atom_site_fract_y
 _atom_site_fract_z
 _atom_site_occupancy
  K  K0  1  0.00000000  0.00000000  0.00000000  1
  K  K1  1  0.33333333  0.66666667  0.16666667  1
  K  K2  1  0.00000000  0.00000000  0.13833000  1
  K  K3  1  0.66666667  0.33333333  0.19500333  1
  K  K4  1  0.66666667  0.33333333  0.33333333  1
  K  K5  1  1.00000000  1.00000000  0.50000000  1
  K  K6  1  0.66666667  0.33333333  0.47166333  1
  K  K7  1  0.33333333  0.66666667  0.52833667  1
  K  K8  1  0.33333333  0.66666667  0.66666667  1
  K  K9  1  0.66666667  0.33333333  0.83333333  1
  K  K10  1  0.33333333  0.66666667  0.80499667  1
  K  K11  1  0.00000000  0.00000000  0.86167000  1
  Zr  Zr12  1  0.51533133  0.03066267  0.06228267  1
  Zr  Zr13  1  0.96933733  0.48466867  0.06228267  1
  Zr  Zr14  1  0.51533133  0.48466867  0.06228267  1
  Zr  Zr15  1  0.15133533  0.84866467  0.27105067  1
  Zr  Zr16  1  0.69732933  0.84866467  0.27105067  1
  Zr  Zr17  1  0.15133533  0.30267067  0.27105067  1
  Zr  Zr18  1  0.18199800  0.36399600  0.39561600  1
  Zr  Zr19  1  0.63600400  0.81800200  0.39561600  1
  Zr  Zr20  1  0.18199800  0.81800200  0.39561600  1
  Zr  Zr21  1  0.81800200  0.18199800  0.60438400  1
  Zr  Zr22  1  0.36399600  0.18199800  0.60438400  1
  Zr  Zr23  1  0.81800200  0.63600400  0.60438400  1
  Zr  Zr24  1  0.84866467  0.69732933  0.72894933  1
  Zr  Zr25  1  0.30267067  0.15133533  0.72894933  1
  Zr  Zr26  1  0.84866467  0.15133533  0.72894933  1
  Zr  Zr27  1  0.48466867  0.51533133  0.93771733  1
  Zr  Zr28  1  0.03066267  0.51533133  0.93771733  1
  Zr  Zr29  1  0.48466867  0.96933733  0.93771733  1
  O  O30  1  0.66666667  0.33333333  0.04817733  1
  O  O31  1  0.00000000  0.00000000  0.28515600  1
  O  O32  1  0.33333333  0.66666667  0.38151067  1
  O  O33  1  0.66666667  0.33333333  0.61848933  1
  O  O34  1  0.00000000  0.00000000  0.71484400  1
  O  O35  1  0.33333333  0.66666667  0.95182267  1
  F  F36  1  0.44524267  0.89048533  0.25884833  1
  F  F37  1  0.10951467  0.55475733  0.25884833  1
  F  F38  1  0.44524267  0.55475733  0.25884833  1
  F  F39  1  0.22142400  0.77857600  0.07448500  1
  F  F40  1  0.22142400  0.44284800  0.07448500  1
  F  F41  1  0.55715200  0.77857600  0.07448500  1
  F  F42  1  0.83761600  0.67523200  0.07691600  1
  F  F43  1  0.32476800  0.16238400  0.07691600  1
  F  F44  1  0.64996200  0.00000000  0.00000000  1
  F  F45  1  0.35003800  0.35003800  0.00000000  1
  F  F46  1  0.00000000  0.64996200  0.00000000  1
  F  F47  1  0.35003800  0.00000000  0.00000000  1
  F  F48  1  0.64996200  0.64996200  0.00000000  1
  F  F49  1  0.00000000  0.35003800  0.00000000  1
  F  F50  1  0.70927133  0.85463567  0.20243067  1
  F  F51  1  0.14536433  0.29072867  0.20243067  1
  F  F52  1  0.14536433  0.85463567  0.20243067  1
  F  F53  1  0.52130233  0.47869767  0.13090267  1
  F  F54  1  0.95739533  0.47869767  0.13090267  1
  F  F55  1  0.52130233  0.04260467  0.13090267  1
  F  F56  1  0.34189867  0.17094933  0.25641733  1
  F  F57  1  0.82905067  0.65810133  0.25641733  1
  F  F58  1  0.82905067  0.17094933  0.25641733  1
  F  F59  1  0.83761600  0.16238400  0.07691600  1
  F  F60  1  0.11190933  0.22381867  0.59218167  1
  F  F61  1  0.77618133  0.88809067  0.59218167  1
  F  F62  1  0.11190933  0.88809067  0.59218167  1
  F  F63  1  0.88809067  0.11190933  0.40781833  1
  F  F64  1  0.88809067  0.77618133  0.40781833  1
  F  F65  1  0.22381867  0.11190933  0.40781833  1
  F  F66  1  0.50428267  0.00856533  0.41024933  1
  F  F67  1  0.99143467  0.49571733  0.41024933  1
  F  F68  1  0.31662867  0.33333333  0.33333333  1
  F  F69  1  0.01670467  0.68337133  0.33333333  1
  F  F70  1  0.66666667  0.98329533  0.33333333  1
  F  F71  1  0.01670467  0.33333333  0.33333333  1
  F  F72  1  0.31662867  0.98329533  0.33333333  1
  F  F73  1  0.66666667  0.68337133  0.33333333  1
  F  F74  1  0.37593800  0.18796900  0.53576400  1
  F  F75  1  0.81203100  0.62406200  0.53576400  1
  F  F76  1  0.81203100  0.18796900  0.53576400  1
  F  F77  1  0.18796900  0.81203100  0.46423600  1
  F  F78  1  0.62406200  0.81203100  0.46423600  1
  F  F79  1  0.18796900  0.37593800  0.46423600  1
  F  F80  1  0.00856533  0.50428267  0.58975067  1
  F  F81  1  0.49571733  0.99143467  0.58975067  1
  F  F82  1  0.49571733  0.50428267  0.58975067  1
  F  F83  1  0.50428267  0.49571733  0.41024933  1
  F  F84  1  0.77857600  0.55715200  0.92551500  1
  F  F85  1  0.44284800  0.22142400  0.92551500  1
  F  F86  1  0.77857600  0.22142400  0.92551500  1
  F  F87  1  0.55475733  0.44524267  0.74115167  1
  F  F88  1  0.55475733  0.10951467  0.74115167  1
  F  F89  1  0.89048533  0.44524267  0.74115167  1
  F  F90  1  0.17094933  0.34189867  0.74358267  1
  F  F91  1  0.65810133  0.82905067  0.74358267  1
  F  F92  1  0.98329533  0.66666667  0.66666667  1
  F  F93  1  0.68337133  0.01670467  0.66666667  1
  F  F94  1  0.33333333  0.31662867  0.66666667  1
  F  F95  1  0.68337133  0.66666667  0.66666667  1
  F  F96  1  0.98329533  0.31662867  0.66666667  1
  F  F97  1  0.33333333  0.01670467  0.66666667  1
  F  F98  1  0.04260467  0.52130233  0.86909733  1
  F  F99  1  0.47869767  0.95739533  0.86909733  1
  F  F100  1  0.47869767  0.52130233  0.86909733  1
  F  F101  1  0.85463567  0.14536433  0.79756933  1
  F  F102  1  0.29072867  0.14536433  0.79756933  1
  F  F103  1  0.85463567  0.70927133  0.79756933  1
  F  F104  1  0.67523200  0.83761600  0.92308400  1
  F  F105  1  0.16238400  0.32476800  0.92308400  1
  F  F106  1  0.16238400  0.83761600  0.92308400  1
  F  F107  1  0.17094933  0.82905067  0.74358267  1
