# generated using pymatgen
data_Al2Ru
_symmetry_space_group_name_H-M   'P 1'
_cell_length_a   4.74013400
_cell_length_b   8.05884000
_cell_length_c   8.84037600
_cell_angle_alpha   90.00000000
_cell_angle_beta   90.00000000
_cell_angle_gamma   90.00000000
_symmetry_Int_Tables_number   1
_chemical_formula_structural   Al2Ru
_chemical_formula_sum   'Al16 Ru8'
_cell_volume   337.70219952
_cell_formula_units_Z   8
loop_
 _symmetry_equiv_pos_site_id
 _symmetry_equiv_pos_as_xyz
  1  'x, y, z'
loop_
 _atom_site_type_symbol
 _atom_site_label
 _atom_site_symmetry_multiplicity
 _atom_site_fract_x
 _atom_site_fract_y
 _atom_site_fract_z
 _atom_site_occupancy
  Al  Al0  1  0.75000000  0.07907100  0.25000000  1
  Al  Al1  1  0.75000000  0.42092900  0.25000000  1
  Al  Al2  1  0.50000000  0.17092900  0.00000000  1
  Al  Al3  1  0.50000000  0.82907100  0.00000000  1
  Al  Al4  1  0.75000000  0.57907100  0.75000000  1
  Al  Al5  1  0.75000000  0.92092900  0.75000000  1
  Al  Al6  1  0.50000000  0.67092900  0.50000000  1
  Al  Al7  1  0.50000000  0.32907100  0.50000000  1
  Al  Al8  1  0.25000000  0.07907100  0.75000000  1
  Al  Al9  1  0.25000000  0.42092900  0.75000000  1
  Al  Al10  1  0.00000000  0.17092900  0.50000000  1
  Al  Al11  1  0.00000000  0.82907100  0.50000000  1
  Al  Al12  1  0.25000000  0.57907100  0.25000000  1
  Al  Al13  1  0.25000000  0.92092900  0.25000000  1
  Al  Al14  1  0.00000000  0.67092900  0.00000000  1
  Al  Al15  1  0.00000000  0.32907100  0.00000000  1
  Ru  Ru16  1  0.75000000  0.75000000  0.25000000  1
  Ru  Ru17  1  0.00000000  0.00000000  0.00000000  1
  Ru  Ru18  1  0.75000000  0.25000000  0.75000000  1
  Ru  Ru19  1  0.00000000  0.50000000  0.50000000  1
  Ru  Ru20  1  0.25000000  0.75000000  0.75000000  1
  Ru  Ru21  1  0.50000000  0.00000000  0.50000000  1
  Ru  Ru22  1  0.25000000  0.25000000  0.25000000  1
  Ru  Ru23  1  0.50000000  0.50000000  0.00000000  1
