# generated using pymatgen
data_K3Sb5O14
_symmetry_space_group_name_H-M   'P 1'
_cell_length_a   7.27646100
_cell_length_b   7.45808000
_cell_length_c   24.69179300
_cell_angle_alpha   90.00000000
_cell_angle_beta   90.00000000
_cell_angle_gamma   90.00000000
_symmetry_Int_Tables_number   1
_chemical_formula_structural   K3Sb5O14
_chemical_formula_sum   'K12 Sb20 O56'
_cell_volume   1339.98479690
_cell_formula_units_Z   4
loop_
 _symmetry_equiv_pos_site_id
 _symmetry_equiv_pos_as_xyz
  1  'x, y, z'
loop_
 _atom_site_type_symbol
 _atom_site_label
 _atom_site_symmetry_multiplicity
 _atom_site_fract_x
 _atom_site_fract_y
 _atom_site_fract_z
 _atom_site_occupancy
  K  K0  1  0.22211200  0.50000000  0.01527200  1
  K  K1  1  0.72211200  0.50000000  0.48472800  1
  K  K2  1  0.77788800  0.50000000  0.98472800  1
  K  K3  1  0.27788800  0.50000000  0.51527200  1
  K  K4  1  0.12628100  0.00000000  0.29403800  1
  K  K5  1  0.62628100  0.00000000  0.20596200  1
  K  K6  1  0.87371900  0.00000000  0.70596200  1
  K  K7  1  0.37371900  0.00000000  0.79403800  1
  K  K8  1  0.10276600  0.50000000  0.38332900  1
  K  K9  1  0.60276600  0.50000000  0.11667100  1
  K  K10  1  0.89723400  0.50000000  0.61667100  1
  K  K11  1  0.39723400  0.50000000  0.88332900  1
  Sb  Sb12  1  0.09349800  0.00000000  0.93778800  1
  Sb  Sb13  1  0.59349800  0.00000000  0.56221200  1
  Sb  Sb14  1  0.90650200  0.00000000  0.06221200  1
  Sb  Sb15  1  0.40650200  0.00000000  0.43778800  1
  Sb  Sb16  1  0.08201900  0.00000000  0.55709700  1
  Sb  Sb17  1  0.58201900  0.00000000  0.94290300  1
  Sb  Sb18  1  0.91798100  0.00000000  0.44290300  1
  Sb  Sb19  1  0.41798100  0.00000000  0.05709700  1
  Sb  Sb20  1  0.32496000  0.50000000  0.25621700  1
  Sb  Sb21  1  0.82496000  0.50000000  0.24378300  1
  Sb  Sb22  1  0.67504000  0.50000000  0.74378300  1
  Sb  Sb23  1  0.17504000  0.50000000  0.75621700  1
  Sb  Sb24  1  0.10994300  0.26440300  0.14533200  1
  Sb  Sb25  1  0.60994300  0.73559700  0.35466800  1
  Sb  Sb26  1  0.89005700  0.26440300  0.85466800  1
  Sb  Sb27  1  0.39005700  0.73559700  0.64533200  1
  Sb  Sb28  1  0.89005700  0.73559700  0.85466800  1
  Sb  Sb29  1  0.39005700  0.26440300  0.64533200  1
  Sb  Sb30  1  0.10994300  0.73559700  0.14533200  1
  Sb  Sb31  1  0.60994300  0.26440300  0.35466800  1
  O  O32  1  0.95371700  0.25646100  0.07387000  1
  O  O33  1  0.45371700  0.74353900  0.42613000  1
  O  O34  1  0.04628300  0.25646100  0.92613000  1
  O  O35  1  0.54628300  0.74353900  0.57387000  1
  O  O36  1  0.04628300  0.74353900  0.92613000  1
  O  O37  1  0.54628300  0.25646100  0.57387000  1
  O  O38  1  0.95371700  0.74353900  0.07387000  1
  O  O39  1  0.45371700  0.25646100  0.42613000  1
  O  O40  1  0.87814300  0.31546000  0.18510800  1
  O  O41  1  0.37814300  0.68454000  0.31489200  1
  O  O42  1  0.12185700  0.31546000  0.81489200  1
  O  O43  1  0.62185700  0.68454000  0.68510800  1
  O  O44  1  0.12185700  0.68454000  0.81489200  1
  O  O45  1  0.62185700  0.31546000  0.68510800  1
  O  O46  1  0.87814300  0.68454000  0.18510800  1
  O  O47  1  0.37814300  0.31546000  0.31489200  1
  O  O48  1  0.83923700  0.19776600  0.39632400  1
  O  O49  1  0.33923700  0.80223400  0.10367600  1
  O  O50  1  0.16076300  0.19776600  0.60367600  1
  O  O51  1  0.66076300  0.80223400  0.89632400  1
  O  O52  1  0.16076300  0.80223400  0.60367600  1
  O  O53  1  0.33855300  0.00000000  0.90604000  1
  O  O54  1  0.66076300  0.19776600  0.89632400  1
  O  O55  1  0.33923700  0.19776600  0.10367600  1
  O  O56  1  0.76118700  0.27426100  0.28843000  1
  O  O57  1  0.26118700  0.72573900  0.21157000  1
  O  O58  1  0.23881300  0.27426100  0.71157000  1
  O  O59  1  0.73881300  0.72573900  0.78843000  1
  O  O60  1  0.23881300  0.72573900  0.71157000  1
  O  O61  1  0.73881300  0.27426100  0.78843000  1
  O  O62  1  0.76118700  0.72573900  0.28843000  1
  O  O63  1  0.26118700  0.27426100  0.21157000  1
  O  O64  1  0.50000000  0.17923300  0.00000000  1
  O  O65  1  0.00000000  0.82076700  0.50000000  1
  O  O66  1  0.50000000  0.82076700  0.00000000  1
  O  O67  1  0.00000000  0.17923300  0.50000000  1
  O  O68  1  0.16058000  0.00000000  0.01762900  1
  O  O69  1  0.66058000  0.00000000  0.48237100  1
  O  O70  1  0.83942000  0.00000000  0.98237100  1
  O  O71  1  0.33942000  0.00000000  0.51762900  1
  O  O72  1  0.18317400  0.50000000  0.11947400  1
  O  O73  1  0.68317400  0.50000000  0.38052600  1
  O  O74  1  0.81682600  0.50000000  0.88052600  1
  O  O75  1  0.31682600  0.50000000  0.61947400  1
  O  O76  1  0.02756800  0.00000000  0.14263000  1
  O  O77  1  0.52756800  0.00000000  0.35737000  1
  O  O78  1  0.97243200  0.00000000  0.85737000  1
  O  O79  1  0.47243200  0.00000000  0.64263000  1
  O  O80  1  0.06489500  0.50000000  0.28154600  1
  O  O81  1  0.56489500  0.50000000  0.21845400  1
  O  O82  1  0.93510500  0.50000000  0.71845400  1
  O  O83  1  0.43510500  0.50000000  0.78154600  1
  O  O84  1  0.16144700  0.00000000  0.40604000  1
  O  O85  1  0.66144700  0.00000000  0.09396000  1
  O  O86  1  0.83855300  0.00000000  0.59396000  1
  O  O87  1  0.83923700  0.80223400  0.39632400  1
