# generated using pymatgen
data_Cd5(S2Cl)2
_symmetry_space_group_name_H-M   'P 1'
_cell_length_a   6.73381200
_cell_length_b   12.91472000
_cell_length_c   14.23453400
_cell_angle_alpha   90.00000000
_cell_angle_beta   90.00000000
_cell_angle_gamma   90.00000000
_symmetry_Int_Tables_number   1
_chemical_formula_structural   Cd5(S2Cl)2
_chemical_formula_sum   'Cd20 S16 Cl8'
_cell_volume   1237.91047003
_cell_formula_units_Z   4
loop_
 _symmetry_equiv_pos_site_id
 _symmetry_equiv_pos_as_xyz
  1  'x, y, z'
loop_
 _atom_site_type_symbol
 _atom_site_label
 _atom_site_symmetry_multiplicity
 _atom_site_fract_x
 _atom_site_fract_y
 _atom_site_fract_z
 _atom_site_occupancy
  Cd  Cd0  1  0.00000000  0.00000000  0.75000000  1
  Cd  Cd1  1  0.00000000  0.00000000  0.25000000  1
  Cd  Cd2  1  0.50000000  0.20332100  0.25000000  1
  Cd  Cd3  1  0.50000000  0.79667900  0.25000000  1
  Cd  Cd4  1  0.50000000  0.79667900  0.75000000  1
  Cd  Cd5  1  0.50000000  0.20332100  0.75000000  1
  Cd  Cd6  1  0.19504650  0.40183350  0.50000000  1
  Cd  Cd7  1  0.80495350  0.59816650  0.50000000  1
  Cd  Cd8  1  0.69504650  0.09816650  0.50000000  1
  Cd  Cd9  1  0.30495350  0.90183350  0.50000000  1
  Cd  Cd10  1  0.50000000  0.50000000  0.25000000  1
  Cd  Cd11  1  0.50000000  0.50000000  0.75000000  1
  Cd  Cd12  1  0.00000000  0.70332100  0.75000000  1
  Cd  Cd13  1  0.00000000  0.29667900  0.75000000  1
  Cd  Cd14  1  0.00000000  0.29667900  0.25000000  1
  Cd  Cd15  1  0.00000000  0.70332100  0.25000000  1
  Cd  Cd16  1  0.69504650  0.90183350  0.00000000  1
  Cd  Cd17  1  0.30495350  0.09816650  0.00000000  1
  Cd  Cd18  1  0.19504650  0.59816650  0.00000000  1
  Cd  Cd19  1  0.80495350  0.40183350  0.00000000  1
  S  S20  1  0.80286750  0.85835150  0.16335850  1
  S  S21  1  0.19713250  0.14164850  0.16335850  1
  S  S22  1  0.80286750  0.14164850  0.33664150  1
  S  S23  1  0.19713250  0.85835150  0.33664150  1
  S  S24  1  0.19713250  0.14164850  0.83664150  1
  S  S25  1  0.80286750  0.85835150  0.83664150  1
  S  S26  1  0.19713250  0.85835150  0.66335850  1
  S  S27  1  0.80286750  0.14164850  0.66335850  1
  S  S28  1  0.30286750  0.35835150  0.66335850  1
  S  S29  1  0.69713250  0.64164850  0.66335850  1
  S  S30  1  0.30286750  0.64164850  0.83664150  1
  S  S31  1  0.69713250  0.35835150  0.83664150  1
  S  S32  1  0.69713250  0.64164850  0.33664150  1
  S  S33  1  0.30286750  0.35835150  0.33664150  1
  S  S34  1  0.69713250  0.35835150  0.16335850  1
  S  S35  1  0.30286750  0.64164850  0.16335850  1
  Cl  Cl36  1  0.30754600  0.10576600  0.50000000  1
  Cl  Cl37  1  0.69245400  0.89423400  0.50000000  1
  Cl  Cl38  1  0.80754600  0.39423400  0.50000000  1
  Cl  Cl39  1  0.19245400  0.60576600  0.50000000  1
  Cl  Cl40  1  0.80754600  0.60576600  0.00000000  1
  Cl  Cl41  1  0.19245400  0.39423400  0.00000000  1
  Cl  Cl42  1  0.30754600  0.89423400  0.00000000  1
  Cl  Cl43  1  0.69245400  0.10576600  0.00000000  1
