# generated using pymatgen
data_K3GaO3
_symmetry_space_group_name_H-M   'P 1'
_cell_length_a   7.17500400
_cell_length_b   11.28981200
_cell_length_c   6.59231481
_cell_angle_alpha   90.00000000
_cell_angle_beta   101.79039005
_cell_angle_gamma   90.00000000
_symmetry_Int_Tables_number   1
_chemical_formula_structural   K3GaO3
_chemical_formula_sum   'K12 Ga4 O12'
_cell_volume   522.74016072
_cell_formula_units_Z   4
loop_
 _symmetry_equiv_pos_site_id
 _symmetry_equiv_pos_as_xyz
  1  'x, y, z'
loop_
 _atom_site_type_symbol
 _atom_site_label
 _atom_site_symmetry_multiplicity
 _atom_site_fract_x
 _atom_site_fract_y
 _atom_site_fract_z
 _atom_site_occupancy
  K  K0  1  0.62670900  0.00000000  0.35059600  1
  K  K1  1  0.50000000  0.75793700  0.00000000  1
  K  K2  1  0.50000000  0.69540800  0.50000000  1
  K  K3  1  0.50000000  0.24206300  0.00000000  1
  K  K4  1  0.37329100  0.00000000  0.64940400  1
  K  K5  1  0.50000000  0.30459200  0.50000000  1
  K  K6  1  0.12670900  0.50000000  0.35059600  1
  K  K7  1  0.00000000  0.25793700  0.00000000  1
  K  K8  1  0.00000000  0.19540800  0.50000000  1
  K  K9  1  0.00000000  0.74206300  0.00000000  1
  K  K10  1  0.87329100  0.50000000  0.64940400  1
  K  K11  1  0.00000000  0.80459200  0.50000000  1
  Ga  Ga12  1  0.82986300  0.00000000  0.85183700  1
  Ga  Ga13  1  0.17013700  0.00000000  0.14816300  1
  Ga  Ga14  1  0.32986300  0.50000000  0.85183700  1
  Ga  Ga15  1  0.67013700  0.50000000  0.14816300  1
  O  O16  1  0.70805000  0.86415000  0.73419800  1
  O  O17  1  0.89957400  0.00000000  0.15451100  1
  O  O18  1  0.10042600  0.00000000  0.84548900  1
  O  O19  1  0.29195000  0.13585000  0.26580200  1
  O  O20  1  0.29195000  0.86415000  0.26580200  1
  O  O21  1  0.70805000  0.13585000  0.73419800  1
  O  O22  1  0.20805000  0.36415000  0.73419800  1
  O  O23  1  0.39957400  0.50000000  0.15451100  1
  O  O24  1  0.60042600  0.50000000  0.84548900  1
  O  O25  1  0.79195000  0.63585000  0.26580200  1
  O  O26  1  0.79195000  0.36415000  0.26580200  1
  O  O27  1  0.20805000  0.63585000  0.73419800  1
