# generated using pymatgen
data_AlPO4
_symmetry_space_group_name_H-M   'P 1'
_cell_length_a   8.88913100
_cell_length_b   4.94716300
_cell_length_c   11.02123897
_cell_angle_alpha   90.00000000
_cell_angle_beta   90.16727263
_cell_angle_gamma   90.00000000
_symmetry_Int_Tables_number   1
_chemical_formula_structural   AlPO4
_chemical_formula_sum   'Al6 P6 O24'
_cell_volume   484.66771881
_cell_formula_units_Z   6
loop_
 _symmetry_equiv_pos_site_id
 _symmetry_equiv_pos_as_xyz
  1  'x, y, z'
loop_
 _atom_site_type_symbol
 _atom_site_label
 _atom_site_symmetry_multiplicity
 _atom_site_fract_x
 _atom_site_fract_y
 _atom_site_fract_z
 _atom_site_occupancy
  Al  Al0  1  0.25000000  0.46510400  0.50000000  1
  Al  Al1  1  0.75000000  0.53489600  0.50000000  1
  Al  Al2  1  0.48688400  0.75013600  0.83404700  1
  Al  Al3  1  0.01311600  0.75013600  0.16595300  1
  Al  Al4  1  0.51311600  0.24986400  0.16595300  1
  Al  Al5  1  0.98688400  0.24986400  0.83404700  1
  P  P6  1  0.25000000  0.03282200  0.00000000  1
  P  P7  1  0.75000000  0.96717800  0.00000000  1
  P  P8  1  0.48683400  0.75500000  0.33319900  1
  P  P9  1  0.01316600  0.75500000  0.66680100  1
  P  P10  1  0.51316600  0.24500000  0.66680100  1
  P  P11  1  0.98683400  0.24500000  0.33319900  1
  O  O12  1  0.47216900  0.05208800  0.29418800  1
  O  O13  1  0.02783100  0.05208800  0.70581200  1
  O  O14  1  0.52783100  0.94791200  0.70581200  1
  O  O15  1  0.97216900  0.94791200  0.29418800  1
  O  O16  1  0.52375100  0.58337300  0.21973900  1
  O  O17  1  0.97624900  0.58337300  0.78026100  1
  O  O18  1  0.47624900  0.41662700  0.78026100  1
  O  O19  1  0.02375100  0.41662700  0.21973900  1
  O  O20  1  0.31690700  0.85071500  0.90030300  1
  O  O21  1  0.18309300  0.85071500  0.09969700  1
  O  O22  1  0.68309300  0.14928500  0.09969700  1
  O  O23  1  0.81690700  0.14928500  0.90030300  1
  O  O24  1  0.33635700  0.66573800  0.38884200  1
  O  O25  1  0.16364300  0.66573800  0.61115800  1
  O  O26  1  0.66364300  0.33426200  0.61115800  1
  O  O27  1  0.83635700  0.33426200  0.38884200  1
  O  O28  1  0.62840800  0.78364900  0.94420400  1
  O  O29  1  0.87159200  0.78364900  0.05579600  1
  O  O30  1  0.37159200  0.21635100  0.05579600  1
  O  O31  1  0.12840800  0.21635100  0.94420400  1
  O  O32  1  0.61382300  0.73343300  0.42770000  1
  O  O33  1  0.88617700  0.73343300  0.57230000  1
  O  O34  1  0.38617700  0.26656700  0.57230000  1
  O  O35  1  0.11382300  0.26656700  0.42770000  1
