# generated using pymatgen
data_AgAsS2
_symmetry_space_group_name_H-M   'P 1'
_cell_length_a   13.98059207
_cell_length_b   13.98059207
_cell_length_c   9.78904361
_cell_angle_alpha   90.00000000
_cell_angle_beta   90.00000000
_cell_angle_gamma   120.00000000
_symmetry_Int_Tables_number   1
_chemical_formula_structural   AgAsS2
_chemical_formula_sum   'Ag18 As18 S36'
_cell_volume   1656.99814747
_cell_formula_units_Z   18
loop_
 _symmetry_equiv_pos_site_id
 _symmetry_equiv_pos_as_xyz
  1  'x, y, z'
loop_
 _atom_site_type_symbol
 _atom_site_label
 _atom_site_symmetry_multiplicity
 _atom_site_fract_x
 _atom_site_fract_y
 _atom_site_fract_z
 _atom_site_occupancy
  Ag  Ag0  1  0.07790200  0.32949600  0.65163900  1
  Ag  Ag1  1  0.25159400  0.92209800  0.65163900  1
  Ag  Ag2  1  0.67050400  0.74840600  0.65163900  1
  Ag  Ag3  1  0.92209800  0.67050400  0.34836100  1
  Ag  Ag4  1  0.74840600  0.07790200  0.34836100  1
  Ag  Ag5  1  0.32949600  0.25159400  0.34836100  1
  Ag  Ag6  1  0.74456867  0.66282933  0.98497233  1
  Ag  Ag7  1  0.91826067  0.25543133  0.98497233  1
  Ag  Ag8  1  0.33717067  0.08173933  0.98497233  1
  Ag  Ag9  1  0.58876467  0.00383733  0.68169433  1
  Ag  Ag10  1  0.41507267  0.41123533  0.68169433  1
  Ag  Ag11  1  0.99616267  0.58492733  0.68169433  1
  Ag  Ag12  1  0.41123533  0.99616267  0.31830567  1
  Ag  Ag13  1  0.58492733  0.58876467  0.31830567  1
  Ag  Ag14  1  0.00383733  0.41507267  0.31830567  1
  Ag  Ag15  1  0.25543133  0.33717067  0.01502767  1
  Ag  Ag16  1  0.08173933  0.74456867  0.01502767  1
  Ag  Ag17  1  0.66282933  0.91826067  0.01502767  1
  As  As18  1  0.04483767  0.16642933  0.29581633  1
  As  As19  1  0.16642933  0.12159167  0.70418367  1
  As  As20  1  0.95516233  0.83357067  0.70418367  1
  As  As21  1  0.12159167  0.95516233  0.29581633  1
  As  As22  1  0.83357067  0.87840833  0.29581633  1
  As  As23  1  0.87840833  0.04483767  0.70418367  1
  As  As24  1  0.71150433  0.49976267  0.62914967  1
  As  As25  1  0.83309600  0.45492500  0.03751700  1
  As  As26  1  0.62182900  0.16690400  0.03751700  1
  As  As27  1  0.78825833  0.28849567  0.62914967  1
  As  As28  1  0.50023733  0.21174167  0.62914967  1
  As  As29  1  0.54507500  0.37817100  0.03751700  1
  As  As30  1  0.37817100  0.83309600  0.96248300  1
  As  As31  1  0.49976267  0.78825833  0.37085033  1
  As  As32  1  0.28849567  0.50023733  0.37085033  1
  As  As33  1  0.45492500  0.62182900  0.96248300  1
  As  As34  1  0.16690400  0.54507500  0.96248300  1
  As  As35  1  0.21174167  0.71150433  0.37085033  1
  S  S36  1  0.87967433  0.04261367  0.18490867  1
  S  S37  1  0.16293933  0.12032567  0.18490867  1
  S  S38  1  0.95738633  0.83706067  0.18490867  1
  S  S39  1  0.12032567  0.95738633  0.81509133  1
  S  S40  1  0.83706067  0.87967433  0.81509133  1
  S  S41  1  0.04261367  0.16293933  0.81509133  1
  S  S42  1  0.75027800  0.64378800  0.49193700  1
  S  S43  1  0.89351000  0.24972200  0.49193700  1
  S  S44  1  0.64378800  0.89351000  0.50806300  1
  S  S45  1  0.24972200  0.35621200  0.50806300  1
  S  S46  1  0.10649000  0.75027800  0.50806300  1
  S  S47  1  0.35621200  0.10649000  0.49193700  1
  S  S48  1  0.54634100  0.37594700  0.51824200  1
  S  S49  1  0.82960600  0.45365900  0.51824200  1
  S  S50  1  0.62405300  0.17039400  0.51824200  1
  S  S51  1  0.78699233  0.29071967  0.14842467  1
  S  S52  1  0.50372733  0.21300767  0.14842467  1
  S  S53  1  0.70928033  0.49627267  0.14842467  1
  S  S54  1  0.41694467  0.97712133  0.82527033  1
  S  S55  1  0.56017667  0.58305533  0.82527033  1
  S  S56  1  0.31045467  0.22684333  0.84139633  1
  S  S57  1  0.91638867  0.68954533  0.84139633  1
  S  S58  1  0.77315667  0.08361133  0.84139633  1
  S  S59  1  0.02287867  0.43982333  0.82527033  1
  S  S60  1  0.21300767  0.70928033  0.85157533  1
  S  S61  1  0.49627267  0.78699233  0.85157533  1
  S  S62  1  0.29071967  0.50372733  0.85157533  1
  S  S63  1  0.45365900  0.62405300  0.48175800  1
  S  S64  1  0.17039400  0.54634100  0.48175800  1
  S  S65  1  0.37594700  0.82960600  0.48175800  1
  S  S66  1  0.08361133  0.31045467  0.15860367  1
  S  S67  1  0.22684333  0.91638867  0.15860367  1
  S  S68  1  0.97712133  0.56017667  0.17472967  1
  S  S69  1  0.58305533  0.02287867  0.17472967  1
  S  S70  1  0.43982333  0.41694467  0.17472967  1
  S  S71  1  0.68954533  0.77315667  0.15860367  1
