# generated using pymatgen
data_K2HfF6
_symmetry_space_group_name_H-M   'P 1'
_cell_length_a   6.64694200
_cell_length_b   11.67192600
_cell_length_c   6.96574223
_cell_angle_alpha   90.00000000
_cell_angle_beta   90.11165941
_cell_angle_gamma   90.00000000
_symmetry_Int_Tables_number   1
_chemical_formula_structural   K2HfF6
_chemical_formula_sum   'K8 Hf4 F24'
_cell_volume   540.41947225
_cell_formula_units_Z   4
loop_
 _symmetry_equiv_pos_site_id
 _symmetry_equiv_pos_as_xyz
  1  'x, y, z'
loop_
 _atom_site_type_symbol
 _atom_site_label
 _atom_site_symmetry_multiplicity
 _atom_site_fract_x
 _atom_site_fract_y
 _atom_site_fract_z
 _atom_site_occupancy
  K  K0  1  0.01624350  0.34251550  0.00254600  1
  K  K1  1  0.98375650  0.34251550  0.49745400  1
  K  K2  1  0.51624350  0.15748450  0.50254600  1
  K  K3  1  0.48375650  0.15748450  0.99745400  1
  K  K4  1  0.51624350  0.84251550  0.00254600  1
  K  K5  1  0.48375650  0.84251550  0.49745400  1
  K  K6  1  0.01624350  0.65748450  0.50254600  1
  K  K7  1  0.98375650  0.65748450  0.99745400  1
  Hf  Hf8  1  0.00000000  0.04800300  0.25000000  1
  Hf  Hf9  1  0.50000000  0.45199700  0.75000000  1
  Hf  Hf10  1  0.50000000  0.54800300  0.25000000  1
  Hf  Hf11  1  0.00000000  0.95199700  0.75000000  1
  F  F12  1  0.47101450  0.40277250  0.04439800  1
  F  F13  1  0.52898550  0.40277250  0.45560200  1
  F  F14  1  0.02898550  0.09722750  0.95560200  1
  F  F15  1  0.97101450  0.09722750  0.54439800  1
  F  F16  1  0.68856850  0.30874250  0.77181500  1
  F  F17  1  0.31143150  0.30874250  0.72818500  1
  F  F18  1  0.78729400  0.48706400  0.22172800  1
  F  F19  1  0.21270600  0.48706400  0.27827200  1
  F  F20  1  0.71270600  0.01293600  0.77827200  1
  F  F21  1  0.28729400  0.01293600  0.72172800  1
  F  F22  1  0.18856850  0.19125750  0.27181500  1
  F  F23  1  0.81143150  0.19125750  0.22818500  1
  F  F24  1  0.97101450  0.90277250  0.04439800  1
  F  F25  1  0.02898550  0.90277250  0.45560200  1
  F  F26  1  0.52898550  0.59722750  0.95560200  1
  F  F27  1  0.47101450  0.59722750  0.54439800  1
  F  F28  1  0.18856850  0.80874250  0.77181500  1
  F  F29  1  0.81143150  0.80874250  0.72818500  1
  F  F30  1  0.28729400  0.98706400  0.22172800  1
  F  F31  1  0.71270600  0.98706400  0.27827200  1
  F  F32  1  0.21270600  0.51293600  0.77827200  1
  F  F33  1  0.78729400  0.51293600  0.72172800  1
  F  F34  1  0.68856850  0.69125750  0.27181500  1
  F  F35  1  0.31143150  0.69125750  0.22818500  1
