# generated using pymatgen
data_MgGeAs2
_symmetry_space_group_name_H-M   'P 1'
_cell_length_a   6.02101600
_cell_length_b   6.02101600
_cell_length_c   11.31351800
_cell_angle_alpha   90.00000000
_cell_angle_beta   90.00000000
_cell_angle_gamma   90.00000000
_symmetry_Int_Tables_number   1
_chemical_formula_structural   MgGeAs2
_chemical_formula_sum   'Mg4 Ge4 As8'
_cell_volume   410.14482360
_cell_formula_units_Z   4
loop_
 _symmetry_equiv_pos_site_id
 _symmetry_equiv_pos_as_xyz
  1  'x, y, z'
loop_
 _atom_site_type_symbol
 _atom_site_label
 _atom_site_symmetry_multiplicity
 _atom_site_fract_x
 _atom_site_fract_y
 _atom_site_fract_z
 _atom_site_occupancy
  Mg  Mg0  1  0.00000000  0.50000000  0.25000000  1
  Mg  Mg1  1  0.00000000  0.00000000  0.00000000  1
  Mg  Mg2  1  0.50000000  0.00000000  0.75000000  1
  Mg  Mg3  1  0.50000000  0.50000000  0.50000000  1
  Ge  Ge4  1  0.50000000  0.50000000  0.00000000  1
  Ge  Ge5  1  0.50000000  0.00000000  0.25000000  1
  Ge  Ge6  1  0.00000000  0.00000000  0.50000000  1
  Ge  Ge7  1  0.00000000  0.50000000  0.75000000  1
  As  As8  1  0.27341600  0.75000000  0.12500000  1
  As  As9  1  0.25000000  0.22658400  0.37500000  1
  As  As10  1  0.72658400  0.25000000  0.12500000  1
  As  As11  1  0.75000000  0.77341600  0.37500000  1
  As  As12  1  0.77341600  0.25000000  0.62500000  1
  As  As13  1  0.75000000  0.72658400  0.87500000  1
  As  As14  1  0.22658400  0.75000000  0.62500000  1
  As  As15  1  0.25000000  0.27341600  0.87500000  1
