# generated using pymatgen
data_CaGa4O7
_symmetry_space_group_name_H-M   'P 1'
_cell_length_a   13.27918400
_cell_length_b   9.21925800
_cell_length_c   5.68093553
_cell_angle_alpha   90.00000000
_cell_angle_beta   104.54771014
_cell_angle_gamma   90.00000000
_symmetry_Int_Tables_number   1
_chemical_formula_structural   CaGa4O7
_chemical_formula_sum   'Ca4 Ga16 O28'
_cell_volume   673.18607437
_cell_formula_units_Z   4
loop_
 _symmetry_equiv_pos_site_id
 _symmetry_equiv_pos_as_xyz
  1  'x, y, z'
loop_
 _atom_site_type_symbol
 _atom_site_label
 _atom_site_symmetry_multiplicity
 _atom_site_fract_x
 _atom_site_fract_y
 _atom_site_fract_z
 _atom_site_occupancy
  Ca  Ca0  1  0.50000000  0.79221600  0.75000000  1
  Ca  Ca1  1  0.50000000  0.20778400  0.25000000  1
  Ca  Ca2  1  0.00000000  0.29221600  0.75000000  1
  Ca  Ca3  1  0.00000000  0.70778400  0.25000000  1
  Ga  Ga4  1  0.34000150  0.08473750  0.68526800  1
  Ga  Ga5  1  0.65999850  0.08473750  0.81473200  1
  Ga  Ga6  1  0.87906600  0.93554900  0.75485600  1
  Ga  Ga7  1  0.12093400  0.93554900  0.74514400  1
  Ga  Ga8  1  0.12093400  0.06445100  0.24514400  1
  Ga  Ga9  1  0.87906600  0.06445100  0.25485600  1
  Ga  Ga10  1  0.34000150  0.91526250  0.18526800  1
  Ga  Ga11  1  0.65999850  0.91526250  0.31473200  1
  Ga  Ga12  1  0.84000150  0.58473750  0.68526800  1
  Ga  Ga13  1  0.15999850  0.58473750  0.81473200  1
  Ga  Ga14  1  0.37906600  0.43554900  0.75485600  1
  Ga  Ga15  1  0.62093400  0.43554900  0.74514400  1
  Ga  Ga16  1  0.62093400  0.56445100  0.24514400  1
  Ga  Ga17  1  0.37906600  0.56445100  0.25485600  1
  Ga  Ga18  1  0.84000150  0.41526250  0.18526800  1
  Ga  Ga19  1  0.15999850  0.41526250  0.31473200  1
  O  O20  1  0.50000000  0.46429000  0.25000000  1
  O  O21  1  0.50000000  0.53571000  0.75000000  1
  O  O22  1  0.38693950  0.24897050  0.86449400  1
  O  O23  1  0.61306050  0.24897050  0.63550600  1
  O  O24  1  0.61306050  0.75102950  0.13550600  1
  O  O25  1  0.38693950  0.75102950  0.36449400  1
  O  O26  1  0.61407100  0.93314300  0.59583000  1
  O  O27  1  0.38592900  0.93314300  0.90417000  1
  O  O28  1  0.38592900  0.06685700  0.40417000  1
  O  O29  1  0.61407100  0.06685700  0.09583000  1
  O  O30  1  0.80719450  0.06117150  0.92001400  1
  O  O31  1  0.19280550  0.06117150  0.57998600  1
  O  O32  1  0.19280550  0.93882850  0.07998600  1
  O  O33  1  0.80719450  0.93882850  0.42001400  1
  O  O34  1  0.00000000  0.96429000  0.25000000  1
  O  O35  1  0.00000000  0.03571000  0.75000000  1
  O  O36  1  0.88693950  0.74897050  0.86449400  1
  O  O37  1  0.11306050  0.74897050  0.63550600  1
  O  O38  1  0.11306050  0.25102950  0.13550600  1
  O  O39  1  0.88693950  0.25102950  0.36449400  1
  O  O40  1  0.11407100  0.43314300  0.59583000  1
  O  O41  1  0.88592900  0.43314300  0.90417000  1
  O  O42  1  0.88592900  0.56685700  0.40417000  1
  O  O43  1  0.11407100  0.56685700  0.09583000  1
  O  O44  1  0.30719450  0.56117150  0.92001400  1
  O  O45  1  0.69280550  0.56117150  0.57998600  1
  O  O46  1  0.69280550  0.43882850  0.07998600  1
  O  O47  1  0.30719450  0.43882850  0.42001400  1
