# generated using pymatgen
data_Sr2V2O7
_symmetry_space_group_name_H-M   'P 1'
_cell_length_a   7.17932958
_cell_length_b   7.23792479
_cell_length_c   13.16761493
_cell_angle_alpha   98.87558611
_cell_angle_beta   93.57819775
_cell_angle_gamma   90.89196099
_symmetry_Int_Tables_number   1
_chemical_formula_structural   Sr2V2O7
_chemical_formula_sum   'Sr8 V8 O28'
_cell_volume   674.50323305
_cell_formula_units_Z   4
loop_
 _symmetry_equiv_pos_site_id
 _symmetry_equiv_pos_as_xyz
  1  'x, y, z'
loop_
 _atom_site_type_symbol
 _atom_site_label
 _atom_site_symmetry_multiplicity
 _atom_site_fract_x
 _atom_site_fract_y
 _atom_site_fract_z
 _atom_site_occupancy
  Sr  Sr0  1  0.74663125  0.27299740  0.34859488  1
  Sr  Sr1  1  0.25336875  0.72700260  0.65140512  1
  Sr  Sr2  1  0.07328698  0.34414102  0.84524361  1
  Sr  Sr3  1  0.92671302  0.65585898  0.15475639  1
  Sr  Sr4  1  0.67076824  0.71550774  0.86354519  1
  Sr  Sr5  1  0.32923176  0.28449226  0.13645481  1
  Sr  Sr6  1  0.63559019  0.12717681  0.63636828  1
  Sr  Sr7  1  0.36440981  0.87282319  0.36363172  1
  V  V8  1  0.83470146  0.80555212  0.41085432  1
  V  V9  1  0.16529854  0.19444788  0.58914568  1
  V  V10  1  0.84052264  0.17962819  0.08301624  1
  V  V11  1  0.15947736  0.82037181  0.91698376  1
  V  V12  1  0.55637045  0.20084750  0.88530085  1
  V  V13  1  0.44362955  0.79915250  0.11469915  1
  V  V14  1  0.78272161  0.60387054  0.61099492  1
  V  V15  1  0.21727839  0.39612946  0.38900508  1
  O  O16  1  0.69214890  0.39782622  0.54437413  1
  O  O17  1  0.30785110  0.60217378  0.45562587  1
  O  O18  1  0.93258550  0.57113478  0.71270855  1
  O  O19  1  0.06741450  0.42886522  0.28729145  1
  O  O20  1  0.69660854  0.06595446  0.96823176  1
  O  O21  1  0.30339146  0.93404554  0.03176824  1
  O  O22  1  0.46545913  0.03681983  0.78738399  1
  O  O23  1  0.53454087  0.96318017  0.21261601  1
  O  O24  1  0.99102837  0.67229201  0.95230139  1
  O  O25  1  0.00897163  0.32770799  0.04769861  1
  O  O26  1  0.60952186  0.74616518  0.66208566  1
  O  O27  1  0.39047814  0.25383482  0.33791434  1
  O  O28  1  0.30256041  0.36352415  0.66306302  1
  O  O29  1  0.69743959  0.63647585  0.33693698  1
  O  O30  1  0.05346753  0.97840311  0.85279319  1
  O  O31  1  0.94653247  0.02159689  0.14720681  1
  O  O32  1  0.00906900  0.86675539  0.33915413  1
  O  O33  1  0.99093100  0.13324461  0.66084587  1
  O  O34  1  0.30112966  0.65240229  0.17095965  1
  O  O35  1  0.69887034  0.34759771  0.82904035  1
  O  O36  1  0.92647290  0.72298069  0.52921931  1
  O  O37  1  0.07352710  0.27701931  0.47078069  1
  O  O38  1  0.30998078  0.00679429  0.55497011  1
  O  O39  1  0.61815020  0.68305108  0.05111584  1
  O  O40  1  0.69610803  0.32029908  0.16063343  1
  O  O41  1  0.30389197  0.67970092  0.83936657  1
  O  O42  1  0.69001922  0.99320571  0.44502989  1
  O  O43  1  0.38184980  0.31694892  0.94888416  1
