# generated using pymatgen
data_RbNd(PO3)4
_symmetry_space_group_name_H-M   'P 1'
_cell_length_a   8.06631400
_cell_length_b   13.09215000
_cell_length_c   10.82154896
_cell_angle_alpha   90.00000000
_cell_angle_beta   111.13967943
_cell_angle_gamma   90.00000000
_symmetry_Int_Tables_number   1
_chemical_formula_structural   RbNd(PO3)4
_chemical_formula_sum   'Rb4 Nd4 P16 O48'
_cell_volume   1065.90712271
_cell_formula_units_Z   4
loop_
 _symmetry_equiv_pos_site_id
 _symmetry_equiv_pos_as_xyz
  1  'x, y, z'
loop_
 _atom_site_type_symbol
 _atom_site_label
 _atom_site_symmetry_multiplicity
 _atom_site_fract_x
 _atom_site_fract_y
 _atom_site_fract_z
 _atom_site_occupancy
  Rb  Rb0  1  0.50000000  0.19251100  0.25000000  1
  Rb  Rb1  1  0.50000000  0.80748900  0.75000000  1
  Rb  Rb2  1  0.00000000  0.69251100  0.25000000  1
  Rb  Rb3  1  0.00000000  0.30748900  0.75000000  1
  Nd  Nd4  1  0.50000000  0.87720200  0.25000000  1
  Nd  Nd5  1  0.50000000  0.12279800  0.75000000  1
  Nd  Nd6  1  0.00000000  0.37720200  0.25000000  1
  Nd  Nd7  1  0.00000000  0.62279800  0.75000000  1
  P  P8  1  0.22127850  0.97323250  0.45050200  1
  P  P9  1  0.77872150  0.97323250  0.04949800  1
  P  P10  1  0.77872150  0.02676750  0.54949800  1
  P  P11  1  0.22127850  0.02676750  0.95050200  1
  P  P12  1  0.45627850  0.33695250  0.51101600  1
  P  P13  1  0.54372150  0.33695250  0.98898400  1
  P  P14  1  0.54372150  0.66304750  0.48898400  1
  P  P15  1  0.45627850  0.66304750  0.01101600  1
  P  P16  1  0.72127850  0.47323250  0.45050200  1
  P  P17  1  0.27872150  0.47323250  0.04949800  1
  P  P18  1  0.27872150  0.52676750  0.54949800  1
  P  P19  1  0.72127850  0.52676750  0.95050200  1
  P  P20  1  0.95627850  0.83695250  0.51101600  1
  P  P21  1  0.04372150  0.83695250  0.98898400  1
  P  P22  1  0.04372150  0.16304750  0.48898400  1
  P  P23  1  0.95627850  0.16304750  0.01101600  1
  O  O24  1  0.34755650  0.01163550  0.09061900  1
  O  O25  1  0.65244350  0.01163550  0.40938100  1
  O  O26  1  0.65244350  0.98836450  0.90938100  1
  O  O27  1  0.34755650  0.98836450  0.59061900  1
  O  O28  1  0.71061700  0.95907900  0.15933100  1
  O  O29  1  0.28938300  0.95907900  0.34066900  1
  O  O30  1  0.28938300  0.04092100  0.84066900  1
  O  O31  1  0.71061700  0.04092100  0.65933100  1
  O  O32  1  0.92320850  0.06560950  0.08977900  1
  O  O33  1  0.07679150  0.06560950  0.41022100  1
  O  O34  1  0.07679150  0.93439050  0.91022100  1
  O  O35  1  0.92320850  0.93439050  0.58977900  1
  O  O36  1  0.44705850  0.25793150  0.88812400  1
  O  O37  1  0.55294150  0.25793150  0.61187600  1
  O  O38  1  0.55294150  0.74206850  0.11187600  1
  O  O39  1  0.44705850  0.74206850  0.38812400  1
  O  O40  1  0.79331250  0.19252550  0.89559900  1
  O  O41  1  0.20668750  0.19252550  0.60440100  1
  O  O42  1  0.20668750  0.80747450  0.10440100  1
  O  O43  1  0.79331250  0.80747450  0.39559900  1
  O  O44  1  0.59700900  0.62438900  0.94492700  1
  O  O45  1  0.40299100  0.62438900  0.55507300  1
  O  O46  1  0.40299100  0.37561100  0.05507300  1
  O  O47  1  0.59700900  0.37561100  0.44492700  1
  O  O48  1  0.84755650  0.51163550  0.09061900  1
  O  O49  1  0.15244350  0.51163550  0.40938100  1
  O  O50  1  0.15244350  0.48836450  0.90938100  1
  O  O51  1  0.84755650  0.48836450  0.59061900  1
  O  O52  1  0.21061700  0.45907900  0.15933100  1
  O  O53  1  0.78938300  0.45907900  0.34066900  1
  O  O54  1  0.78938300  0.54092100  0.84066900  1
  O  O55  1  0.21061700  0.54092100  0.65933100  1
  O  O56  1  0.42320850  0.56560950  0.08977900  1
  O  O57  1  0.57679150  0.56560950  0.41022100  1
  O  O58  1  0.57679150  0.43439050  0.91022100  1
  O  O59  1  0.42320850  0.43439050  0.58977900  1
  O  O60  1  0.94705850  0.75793150  0.88812400  1
  O  O61  1  0.05294150  0.75793150  0.61187600  1
  O  O62  1  0.05294150  0.24206850  0.11187600  1
  O  O63  1  0.94705850  0.24206850  0.38812400  1
  O  O64  1  0.29331250  0.69252550  0.89559900  1
  O  O65  1  0.70668750  0.69252550  0.60440100  1
  O  O66  1  0.70668750  0.30747450  0.10440100  1
  O  O67  1  0.29331250  0.30747450  0.39559900  1
  O  O68  1  0.09700900  0.12438900  0.94492700  1
  O  O69  1  0.90299100  0.12438900  0.55507300  1
  O  O70  1  0.90299100  0.87561100  0.05507300  1
  O  O71  1  0.09700900  0.87561100  0.44492700  1
