# generated using pymatgen
data_Na3Sc2(PO4)3
_symmetry_space_group_name_H-M   'P 1'
_cell_length_a   15.55827800
_cell_length_b   9.02169400
_cell_length_c   9.22010261
_cell_angle_alpha   90.00000000
_cell_angle_beta   123.41334052
_cell_angle_gamma   90.00000000
_symmetry_Int_Tables_number   1
_chemical_formula_structural   Na3Sc2(PO4)3
_chemical_formula_sum   'Na12 Sc8 P12 O48'
_cell_volume   1080.25434395
_cell_formula_units_Z   4
loop_
 _symmetry_equiv_pos_site_id
 _symmetry_equiv_pos_as_xyz
  1  'x, y, z'
loop_
 _atom_site_type_symbol
 _atom_site_label
 _atom_site_symmetry_multiplicity
 _atom_site_fract_x
 _atom_site_fract_y
 _atom_site_fract_z
 _atom_site_occupancy
  Na  Na0  1  0.81104050  0.85165250  0.44004900  1
  Na  Na1  1  0.81104050  0.14834750  0.94004900  1
  Na  Na2  1  0.50673700  0.11069300  0.76448000  1
  Na  Na3  1  0.50673700  0.88930700  0.26448000  1
  Na  Na4  1  0.17154100  0.07452900  0.67874800  1
  Na  Na5  1  0.17154100  0.92547100  0.17874800  1
  Na  Na6  1  0.31104050  0.35165250  0.44004900  1
  Na  Na7  1  0.31104050  0.64834750  0.94004900  1
  Na  Na8  1  0.00673700  0.61069300  0.76448000  1
  Na  Na9  1  0.00673700  0.38930700  0.26448000  1
  Na  Na10  1  0.67154100  0.57452900  0.67874800  1
  Na  Na11  1  0.67154100  0.42547100  0.17874800  1
  Sc  Sc12  1  0.39851850  0.25302850  0.94452500  1
  Sc  Sc13  1  0.39851850  0.74697150  0.44452500  1
  Sc  Sc14  1  0.59781200  0.75279600  0.04735300  1
  Sc  Sc15  1  0.59781200  0.24720400  0.54735300  1
  Sc  Sc16  1  0.89851850  0.75302850  0.94452500  1
  Sc  Sc17  1  0.89851850  0.24697150  0.44452500  1
  Sc  Sc18  1  0.09781200  0.25279600  0.04735300  1
  Sc  Sc19  1  0.09781200  0.74720400  0.54735300  1
  P  P20  1  0.35776850  0.89015150  0.75858900  1
  P  P21  1  0.35776850  0.10984850  0.25858900  1
  P  P22  1  0.64043950  0.10949250  0.23779200  1
  P  P23  1  0.64043950  0.89050750  0.73779200  1
  P  P24  1  0.50228350  0.45548750  0.74935400  1
  P  P25  1  0.50228350  0.54451250  0.24935400  1
  P  P26  1  0.85776850  0.39015150  0.75858900  1
  P  P27  1  0.85776850  0.60984850  0.25858900  1
  P  P28  1  0.14043950  0.60949250  0.23779200  1
  P  P29  1  0.14043950  0.39050750  0.73779200  1
  P  P30  1  0.00228350  0.95548750  0.74935400  1
  P  P31  1  0.00228350  0.04451250  0.24935400  1
  O  O32  1  0.58109450  0.36126250  0.73528800  1
  O  O33  1  0.58109450  0.63873750  0.23528800  1
  O  O34  1  0.42635650  0.65084650  0.25781500  1
  O  O35  1  0.42635650  0.34915350  0.75781500  1
  O  O36  1  0.44207150  0.81725950  0.93413100  1
  O  O37  1  0.44207150  0.18274050  0.43413100  1
  O  O38  1  0.55567150  0.18337250  0.06487600  1
  O  O39  1  0.55567150  0.81662750  0.56487600  1
  O  O40  1  0.38156650  0.86656850  0.61853300  1
  O  O41  1  0.38156650  0.13343150  0.11853300  1
  O  O42  1  0.61473100  0.12782600  0.37676100  1
  O  O43  1  0.61473100  0.87217400  0.87676100  1
  O  O44  1  0.25291450  0.82176550  0.70600700  1
  O  O45  1  0.25291450  0.17823450  0.20600700  1
  O  O46  1  0.74351450  0.18527750  0.29538600  1
  O  O47  1  0.74351450  0.81472250  0.79538600  1
  O  O48  1  0.35365350  0.06025950  0.78196600  1
  O  O49  1  0.35365350  0.93974050  0.28196600  1
  O  O50  1  0.64673950  0.93975550  0.21677900  1
  O  O51  1  0.64673950  0.06024450  0.71677900  1
  O  O52  1  0.06343400  0.05307200  0.91328500  1
  O  O53  1  0.06343400  0.94692800  0.41328500  1
  O  O54  1  0.93751200  0.94882700  0.08348200  1
  O  O55  1  0.93751200  0.05117300  0.58348200  1
  O  O56  1  0.08109450  0.86126250  0.73528800  1
  O  O57  1  0.08109450  0.13873750  0.23528800  1
  O  O58  1  0.92635650  0.15084650  0.25781500  1
  O  O59  1  0.92635650  0.84915350  0.75781500  1
  O  O60  1  0.94207150  0.31725950  0.93413100  1
  O  O61  1  0.94207150  0.68274050  0.43413100  1
  O  O62  1  0.05567150  0.68337250  0.06487600  1
  O  O63  1  0.05567150  0.31662750  0.56487600  1
  O  O64  1  0.88156650  0.36656850  0.61853300  1
  O  O65  1  0.88156650  0.63343150  0.11853300  1
  O  O66  1  0.11473100  0.62782600  0.37676100  1
  O  O67  1  0.11473100  0.37217400  0.87676100  1
  O  O68  1  0.75291450  0.32176550  0.70600700  1
  O  O69  1  0.75291450  0.67823450  0.20600700  1
  O  O70  1  0.24351450  0.68527750  0.29538600  1
  O  O71  1  0.24351450  0.31472250  0.79538600  1
  O  O72  1  0.85365350  0.56025950  0.78196600  1
  O  O73  1  0.85365350  0.43974050  0.28196600  1
  O  O74  1  0.14673950  0.43975550  0.21677900  1
  O  O75  1  0.14673950  0.56024450  0.71677900  1
  O  O76  1  0.56343400  0.55307200  0.91328500  1
  O  O77  1  0.56343400  0.44692800  0.41328500  1
  O  O78  1  0.43751200  0.44882700  0.08348200  1
  O  O79  1  0.43751200  0.55117300  0.58348200  1
