# generated using pymatgen
data_P3RhO9
_symmetry_space_group_name_H-M   'P 1'
_cell_length_a   13.26039600
_cell_length_b   19.37642200
_cell_length_c   9.49826437
_cell_angle_alpha   90.00000000
_cell_angle_beta   127.08601752
_cell_angle_gamma   90.00000000
_symmetry_Int_Tables_number   1
_chemical_formula_structural   P3RhO9
_chemical_formula_sum   'P36 Rh12 O108'
_cell_volume   1946.84269437
_cell_formula_units_Z   12
loop_
 _symmetry_equiv_pos_site_id
 _symmetry_equiv_pos_as_xyz
  1  'x, y, z'
loop_
 _atom_site_type_symbol
 _atom_site_label
 _atom_site_symmetry_multiplicity
 _atom_site_fract_x
 _atom_site_fract_y
 _atom_site_fract_z
 _atom_site_occupancy
  P  P0  1  0.50051200  0.18616300  0.74697600  1
  P  P1  1  0.00051200  0.31383700  0.24697600  1
  P  P2  1  0.88270650  0.46789550  0.81672900  1
  P  P3  1  0.38270650  0.03210450  0.31672900  1
  P  P4  1  0.40155150  0.36255150  0.34351900  1
  P  P5  1  0.90155150  0.13744850  0.84351900  1
  P  P6  1  0.89767400  0.19644900  0.34280400  1
  P  P7  1  0.39767400  0.30355100  0.84280400  1
  P  P8  1  0.62309100  0.36423300  0.19188700  1
  P  P9  1  0.12309100  0.13576700  0.69188700  1
  P  P10  1  0.48606900  0.48153500  0.22895500  1
  P  P11  1  0.98606900  0.01846500  0.72895500  1
  P  P12  1  0.52424700  0.14584900  0.28537600  1
  P  P13  1  0.02424700  0.35415100  0.78537600  1
  P  P14  1  0.12548100  0.19659900  0.19636300  1
  P  P15  1  0.62548100  0.30340100  0.69636300  1
  P  P16  1  0.60576750  0.02585450  0.16216400  1
  P  P17  1  0.10576750  0.47414550  0.66216400  1
  P  P18  1  0.00051200  0.68616300  0.74697600  1
  P  P19  1  0.50051200  0.81383700  0.24697600  1
  P  P20  1  0.38270650  0.96789550  0.81672900  1
  P  P21  1  0.88270650  0.53210450  0.31672900  1
  P  P22  1  0.90155150  0.86255150  0.34351900  1
  P  P23  1  0.40155150  0.63744850  0.84351900  1
  P  P24  1  0.39767400  0.69644900  0.34280400  1
  P  P25  1  0.89767400  0.80355100  0.84280400  1
  P  P26  1  0.12309100  0.86423300  0.19188700  1
  P  P27  1  0.62309100  0.63576700  0.69188700  1
  P  P28  1  0.98606900  0.98153500  0.22895500  1
  P  P29  1  0.48606900  0.51846500  0.72895500  1
  P  P30  1  0.02424700  0.64584900  0.28537600  1
  P  P31  1  0.52424700  0.85415100  0.78537600  1
  P  P32  1  0.62548100  0.69659900  0.19636300  1
  P  P33  1  0.12548100  0.80340100  0.69636300  1
  P  P34  1  0.10576750  0.52585450  0.16216400  1
  P  P35  1  0.60576750  0.97414550  0.66216400  1
  Rh  Rh36  1  0.26956200  0.24502700  0.02935400  1
  Rh  Rh37  1  0.76956200  0.25497300  0.52935400  1
  Rh  Rh38  1  0.74815400  0.08778300  0.99643400  1
  Rh  Rh39  1  0.24815400  0.41221700  0.49643400  1
  Rh  Rh40  1  0.75034750  0.41944150  0.00037500  1
  Rh  Rh41  1  0.25034750  0.08055850  0.50037500  1
  Rh  Rh42  1  0.76956200  0.74502700  0.02935400  1
  Rh  Rh43  1  0.26956200  0.75497300  0.52935400  1
  Rh  Rh44  1  0.24815400  0.58778300  0.99643400  1
  Rh  Rh45  1  0.74815400  0.91221700  0.49643400  1
  Rh  Rh46  1  0.25034750  0.91944150  0.00037500  1
  Rh  Rh47  1  0.75034750  0.58055850  0.50037500  1
  O  O48  1  0.41535750  0.17757250  0.11444800  1
  O  O49  1  0.91535750  0.32242750  0.61444800  1
  O  O50  1  0.74155050  0.29033850  0.70599400  1
  O  O51  1  0.24155050  0.20966150  0.20599400  1
  O  O52  1  0.29133100  0.29248500  0.85608700  1
  O  O53  1  0.79133100  0.20751500  0.35608700  1
  O  O54  1  0.39519000  0.31300700  0.21636600  1
  O  O55  1  0.89519000  0.18699300  0.71636600  1
  O  O56  1  0.41486600  0.13367800  0.60946700  1
  O  O57  1  0.91486600  0.36632200  0.10946700  1
  O  O58  1  0.03240150  0.07232050  0.65098200  1
  O  O59  1  0.53240150  0.42767950  0.15098200  1
  O  O60  1  0.15758500  0.16809300  0.85948600  1
  O  O61  1  0.65758500  0.33190700  0.35948600  1
  O  O62  1  0.03123250  0.18724550  0.53137800  1
  O  O63  1  0.53123250  0.31275450  0.03137800  1
  O  O64  1  0.53302250  0.35359150  0.53466400  1
  O  O65  1  0.03302250  0.14640850  0.03466400  1
  O  O66  1  0.41809300  0.23179200  0.78142700  1
  O  O67  1  0.91809300  0.26820800  0.28142700  1
  O  O68  1  0.15256750  0.16681550  0.36292400  1
  O  O69  1  0.65256750  0.33318450  0.86292400  1
  O  O70  1  0.42121300  0.43804600  0.29795800  1
  O  O71  1  0.92121300  0.06195400  0.79795800  1
  O  O72  1  0.09584300  0.40223000  0.73495400  1
  O  O73  1  0.59584300  0.09777000  0.23495400  1
  O  O74  1  0.35016600  0.00450900  0.14535100  1
  O  O75  1  0.85016600  0.49549100  0.64535100  1
  O  O76  1  0.96941850  0.47825050  0.47367800  1
  O  O77  1  0.46941850  0.02174950  0.97367800  1
  O  O78  1  0.97732300  0.40458800  0.87039700  1
  O  O79  1  0.47732300  0.09541200  0.37039700  1
  O  O80  1  0.26992600  0.05135900  0.31102900  1
  O  O81  1  0.76992600  0.44864100  0.81102900  1
  O  O82  1  0.09110500  0.02053400  0.38698500  1
  O  O83  1  0.59110500  0.47946600  0.88698500  1
  O  O84  1  0.73085200  0.38703700  0.18979500  1
  O  O85  1  0.23085200  0.11296300  0.68979500  1
  O  O86  1  0.03933450  0.26353350  0.15057800  1
  O  O87  1  0.53933450  0.23646650  0.65057800  1
  O  O88  1  0.88299200  0.01790700  0.06109300  1
  O  O89  1  0.38299200  0.48209300  0.56109300  1
  O  O90  1  0.11541350  0.33701750  0.42574900  1
  O  O91  1  0.61541350  0.16298250  0.92574900  1
  O  O92  1  0.70868100  0.03159800  0.14041600  1
  O  O93  1  0.20868100  0.46840200  0.64041600  1
  O  O94  1  0.29173450  0.36055250  0.35181800  1
  O  O95  1  0.79173450  0.13944750  0.85181800  1
  O  O96  1  0.11668150  0.46729150  0.27447400  1
  O  O97  1  0.61668150  0.03270850  0.77447400  1
  O  O98  1  0.88197700  0.13940900  0.22378700  1
  O  O99  1  0.38197700  0.36059100  0.72378700  1
  O  O100  1  0.62029100  0.19002500  0.43978100  1
  O  O101  1  0.12029100  0.30997500  0.93978100  1
  O  O102  1  0.91535750  0.67757250  0.11444800  1
  O  O103  1  0.41535750  0.82242750  0.61444800  1
  O  O104  1  0.24155050  0.79033850  0.70599400  1
  O  O105  1  0.74155050  0.70966150  0.20599400  1
  O  O106  1  0.79133100  0.79248500  0.85608700  1
  O  O107  1  0.29133100  0.70751500  0.35608700  1
  O  O108  1  0.89519000  0.81300700  0.21636600  1
  O  O109  1  0.39519000  0.68699300  0.71636600  1
  O  O110  1  0.91486600  0.63367800  0.60946700  1
  O  O111  1  0.41486600  0.86632200  0.10946700  1
  O  O112  1  0.53240150  0.57232050  0.65098200  1
  O  O113  1  0.03240150  0.92767950  0.15098200  1
  O  O114  1  0.65758500  0.66809300  0.85948600  1
  O  O115  1  0.15758500  0.83190700  0.35948600  1
  O  O116  1  0.53123250  0.68724550  0.53137800  1
  O  O117  1  0.03123250  0.81275450  0.03137800  1
  O  O118  1  0.03302250  0.85359150  0.53466400  1
  O  O119  1  0.53302250  0.64640850  0.03466400  1
  O  O120  1  0.91809300  0.73179200  0.78142700  1
  O  O121  1  0.41809300  0.76820800  0.28142700  1
  O  O122  1  0.65256750  0.66681550  0.36292400  1
  O  O123  1  0.15256750  0.83318450  0.86292400  1
  O  O124  1  0.92121300  0.93804600  0.29795800  1
  O  O125  1  0.42121300  0.56195400  0.79795800  1
  O  O126  1  0.59584300  0.90223000  0.73495400  1
  O  O127  1  0.09584300  0.59777000  0.23495400  1
  O  O128  1  0.85016600  0.50450900  0.14535100  1
  O  O129  1  0.35016600  0.99549100  0.64535100  1
  O  O130  1  0.46941850  0.97825050  0.47367800  1
  O  O131  1  0.96941850  0.52174950  0.97367800  1
  O  O132  1  0.47732300  0.90458800  0.87039700  1
  O  O133  1  0.97732300  0.59541200  0.37039700  1
  O  O134  1  0.76992600  0.55135900  0.31102900  1
  O  O135  1  0.26992600  0.94864100  0.81102900  1
  O  O136  1  0.59110500  0.52053400  0.38698500  1
  O  O137  1  0.09110500  0.97946600  0.88698500  1
  O  O138  1  0.23085200  0.88703700  0.18979500  1
  O  O139  1  0.73085200  0.61296300  0.68979500  1
  O  O140  1  0.53933450  0.76353350  0.15057800  1
  O  O141  1  0.03933450  0.73646650  0.65057800  1
  O  O142  1  0.38299200  0.51790700  0.06109300  1
  O  O143  1  0.88299200  0.98209300  0.56109300  1
  O  O144  1  0.61541350  0.83701750  0.42574900  1
  O  O145  1  0.11541350  0.66298250  0.92574900  1
  O  O146  1  0.20868100  0.53159800  0.14041600  1
  O  O147  1  0.70868100  0.96840200  0.64041600  1
  O  O148  1  0.79173450  0.86055250  0.35181800  1
  O  O149  1  0.29173450  0.63944750  0.85181800  1
  O  O150  1  0.61668150  0.96729150  0.27447400  1
  O  O151  1  0.11668150  0.53270850  0.77447400  1
  O  O152  1  0.38197700  0.63940900  0.22378700  1
  O  O153  1  0.88197700  0.86059100  0.72378700  1
  O  O154  1  0.12029100  0.69002500  0.43978100  1
  O  O155  1  0.62029100  0.80997500  0.93978100  1
