# generated using pymatgen
data_La2MgGeO6
_symmetry_space_group_name_H-M   'P 1'
_cell_length_a   5.58068033
_cell_length_b   5.58068033
_cell_length_c   13.43869561
_cell_angle_alpha   90.00000000
_cell_angle_beta   90.00000000
_cell_angle_gamma   120.00000000
_symmetry_Int_Tables_number   1
_chemical_formula_structural   La2MgGeO6
_chemical_formula_sum   'La6 Mg3 Ge3 O18'
_cell_volume   362.46163224
_cell_formula_units_Z   3
loop_
 _symmetry_equiv_pos_site_id
 _symmetry_equiv_pos_as_xyz
  1  'x, y, z'
loop_
 _atom_site_type_symbol
 _atom_site_label
 _atom_site_symmetry_multiplicity
 _atom_site_fract_x
 _atom_site_fract_y
 _atom_site_fract_z
 _atom_site_occupancy
  La  La0  1  0.33333333  0.66666667  0.41608367  1
  La  La1  1  0.33333333  0.66666667  0.91724967  1
  La  La2  1  0.00000000  0.00000000  0.74941700  1
  La  La3  1  0.00000000  0.00000000  0.25058300  1
  La  La4  1  0.66666667  0.33333333  0.08275033  1
  La  La5  1  0.66666667  0.33333333  0.58391633  1
  Mg  Mg6  1  0.00000000  0.00000000  0.00000000  1
  Mg  Mg7  1  0.66666667  0.33333333  0.33333333  1
  Mg  Mg8  1  0.33333333  0.66666667  0.66666667  1
  Ge  Ge9  1  0.33333333  0.66666667  0.16666667  1
  Ge  Ge10  1  1.00000000  0.00000000  0.50000000  1
  Ge  Ge11  1  0.66666667  0.33333333  0.83333333  1
  O  O12  1  0.55820267  0.57331033  0.24840933  1
  O  O13  1  0.42668967  0.98489233  0.24840933  1
  O  O14  1  0.01510767  0.44179733  0.24840933  1
  O  O15  1  0.65155900  0.89153600  0.08492400  1
  O  O16  1  0.23997700  0.34844100  0.08492400  1
  O  O17  1  0.10846400  0.76002300  0.08492400  1
  O  O18  1  0.22486933  0.90664367  0.58174267  1
  O  O19  1  0.09335633  0.31822567  0.58174267  1
  O  O20  1  0.68177433  0.77513067  0.58174267  1
  O  O21  1  0.31822567  0.22486933  0.41825733  1
  O  O22  1  0.90664367  0.68177433  0.41825733  1
  O  O23  1  0.77513067  0.09335633  0.41825733  1
  O  O24  1  0.89153600  0.23997700  0.91507600  1
  O  O25  1  0.76002300  0.65155900  0.91507600  1
  O  O26  1  0.34844100  0.10846400  0.91507600  1
  O  O27  1  0.98489233  0.55820267  0.75159067  1
  O  O28  1  0.57331033  0.01510767  0.75159067  1
  O  O29  1  0.44179733  0.42668967  0.75159067  1
