# generated using pymatgen
data_BaCa2(SiO3)3
_symmetry_space_group_name_H-M   'P 1'
_cell_length_a   6.76417000
_cell_length_b   6.86518441
_cell_length_c   9.72126109
_cell_angle_alpha   88.35249216
_cell_angle_beta   110.04256766
_cell_angle_gamma   102.26304266
_symmetry_Int_Tables_number   1
_chemical_formula_structural   BaCa2(SiO3)3
_chemical_formula_sum   'Ba2 Ca4 Si6 O18'
_cell_volume   413.93578814
_cell_formula_units_Z   2
loop_
 _symmetry_equiv_pos_site_id
 _symmetry_equiv_pos_as_xyz
  1  'x, y, z'
loop_
 _atom_site_type_symbol
 _atom_site_label
 _atom_site_symmetry_multiplicity
 _atom_site_fract_x
 _atom_site_fract_y
 _atom_site_fract_z
 _atom_site_occupancy
  Ba  Ba0  1  0.16705200  0.05178200  0.84783800  1
  Ba  Ba1  1  0.83294800  0.94821800  0.15216200  1
  Ca  Ca2  1  0.27731900  0.28385800  0.51148100  1
  Ca  Ca3  1  0.72268100  0.71614200  0.48851900  1
  Ca  Ca4  1  0.22617100  0.56325400  0.17198700  1
  Ca  Ca5  1  0.77382900  0.43674600  0.82801300  1
  Si  Si6  1  0.29263600  0.55958800  0.80551000  1
  Si  Si7  1  0.70736400  0.44041200  0.19449000  1
  Si  Si8  1  0.22996300  0.76370200  0.51979200  1
  Si  Si9  1  0.77003700  0.23629800  0.48020800  1
  Si  Si10  1  0.62213700  0.90247500  0.77572400  1
  Si  Si11  1  0.37786300  0.09752500  0.22427600  1
  O  O12  1  0.48219200  0.77097800  0.87633400  1
  O  O13  1  0.51780800  0.22902200  0.12366600  1
  O  O14  1  0.15293800  0.49218600  0.91064300  1
  O  O15  1  0.84706200  0.50781400  0.08935700  1
  O  O16  1  0.40199100  0.38836600  0.76856900  1
  O  O17  1  0.59800900  0.61163400  0.23143100  1
  O  O18  1  0.13912700  0.63696800  0.64609700  1
  O  O19  1  0.86087300  0.36303200  0.35390300  1
  O  O20  1  0.03519400  0.85418000  0.41506900  1
  O  O21  1  0.96480600  0.14582000  0.58493100  1
  O  O22  1  0.33686300  0.62756300  0.44419500  1
  O  O23  1  0.66313700  0.37243700  0.55580500  1
  O  O24  1  0.23490400  0.23375000  0.26418800  1
  O  O25  1  0.76509600  0.76625000  0.73581200  1
  O  O26  1  0.22878300  0.90031100  0.12590300  1
  O  O27  1  0.77121700  0.09968900  0.87409700  1
  O  O28  1  0.57617300  0.04674300  0.37218700  1
  O  O29  1  0.42382700  0.95325700  0.62781300  1
