# generated using pymatgen
data_Sr2CdWO6
_symmetry_space_group_name_H-M   'P 1'
_cell_length_a   5.81956000
_cell_length_b   5.81956000
_cell_length_c   8.43195800
_cell_angle_alpha   90.00000000
_cell_angle_beta   90.00000000
_cell_angle_gamma   90.00000000
_symmetry_Int_Tables_number   1
_chemical_formula_structural   Sr2CdWO6
_chemical_formula_sum   'Sr4 Cd2 W2 O12'
_cell_volume   285.56747068
_cell_formula_units_Z   2
loop_
 _symmetry_equiv_pos_site_id
 _symmetry_equiv_pos_as_xyz
  1  'x, y, z'
loop_
 _atom_site_type_symbol
 _atom_site_label
 _atom_site_symmetry_multiplicity
 _atom_site_fract_x
 _atom_site_fract_y
 _atom_site_fract_z
 _atom_site_occupancy
  Sr  Sr0  1  0.50000000  0.00000000  0.25000000  1
  Sr  Sr1  1  0.00000000  0.50000000  0.25000000  1
  Sr  Sr2  1  0.00000000  0.50000000  0.75000000  1
  Sr  Sr3  1  0.50000000  0.00000000  0.75000000  1
  Cd  Cd4  1  0.50000000  0.50000000  0.00000000  1
  Cd  Cd5  1  0.00000000  0.00000000  0.50000000  1
  W  W6  1  0.00000000  0.00000000  0.00000000  1
  W  W7  1  0.50000000  0.50000000  0.50000000  1
  O  O8  1  0.16162300  0.29427700  0.00000000  1
  O  O9  1  0.29427700  0.83837700  0.00000000  1
  O  O10  1  0.70572300  0.16162300  0.00000000  1
  O  O11  1  0.83837700  0.70572300  0.00000000  1
  O  O12  1  0.50000000  0.50000000  0.26830600  1
  O  O13  1  0.00000000  0.00000000  0.23169400  1
  O  O14  1  0.66162300  0.79427700  0.50000000  1
  O  O15  1  0.79427700  0.33837700  0.50000000  1
  O  O16  1  0.20572300  0.66162300  0.50000000  1
  O  O17  1  0.33837700  0.20572300  0.50000000  1
  O  O18  1  0.00000000  0.00000000  0.76830600  1
  O  O19  1  0.50000000  0.50000000  0.73169400  1
