# generated using pymatgen
data_Ca2NiWO6
_symmetry_space_group_name_H-M   'P 1'
_cell_length_a   5.45414792
_cell_length_b   5.64538800
_cell_length_c   9.46750716
_cell_angle_alpha   90.00000000
_cell_angle_beta   124.64273409
_cell_angle_gamma   90.00000000
_symmetry_Int_Tables_number   1
_chemical_formula_structural   Ca2NiWO6
_chemical_formula_sum   'Ca4 Ni2 W2 O12'
_cell_volume   239.83055138
_cell_formula_units_Z   2
loop_
 _symmetry_equiv_pos_site_id
 _symmetry_equiv_pos_as_xyz
  1  'x, y, z'
loop_
 _atom_site_type_symbol
 _atom_site_label
 _atom_site_symmetry_multiplicity
 _atom_site_fract_x
 _atom_site_fract_y
 _atom_site_fract_z
 _atom_site_occupancy
  Ca  Ca0  1  0.26788300  0.05540800  0.25337400  1
  Ca  Ca1  1  0.73211700  0.55540800  0.24662600  1
  Ca  Ca2  1  0.73211700  0.94459200  0.74662600  1
  Ca  Ca3  1  0.26788300  0.44459200  0.75337400  1
  Ni  Ni4  1  0.50000000  0.50000000  0.50000000  1
  Ni  Ni5  1  0.50000000  0.00000000  0.00000000  1
  W  W6  1  0.00000000  0.50000000  0.00000000  1
  W  W7  1  0.00000000  0.00000000  0.50000000  1
  O  O8  1  0.75617000  0.28450400  0.44654600  1
  O  O9  1  0.24383000  0.78450400  0.05345400  1
  O  O10  1  0.24383000  0.71549600  0.55345400  1
  O  O11  1  0.75617000  0.21549600  0.94654600  1
  O  O12  1  0.33450600  0.19402500  0.54518400  1
  O  O13  1  0.66549400  0.69402500  0.95481600  1
  O  O14  1  0.66549400  0.80597500  0.45481600  1
  O  O15  1  0.33450600  0.30597500  0.04518400  1
  O  O16  1  0.14573400  0.46805600  0.24126200  1
  O  O17  1  0.85426600  0.96805600  0.25873800  1
  O  O18  1  0.14573400  0.03194400  0.74126200  1
  O  O19  1  0.85426600  0.53194400  0.75873800  1
