# generated using pymatgen
data_Sr6YSc(BO3)6
_symmetry_space_group_name_H-M   'P 1'
_cell_length_a   12.43738576
_cell_length_b   12.43738576
_cell_length_c   9.37941245
_cell_angle_alpha   90.00000000
_cell_angle_beta   90.00000000
_cell_angle_gamma   120.00000000
_symmetry_Int_Tables_number   1
_chemical_formula_structural   Sr6YSc(BO3)6
_chemical_formula_sum   'Sr18 Y3 Sc3 B18 O54'
_cell_volume   1256.50573462
_cell_formula_units_Z   3
loop_
 _symmetry_equiv_pos_site_id
 _symmetry_equiv_pos_as_xyz
  1  'x, y, z'
loop_
 _atom_site_type_symbol
 _atom_site_label
 _atom_site_symmetry_multiplicity
 _atom_site_fract_x
 _atom_site_fract_y
 _atom_site_fract_z
 _atom_site_occupancy
  Sr  Sr0  1  0.08879233  0.28935067  0.64517467  1
  Sr  Sr1  1  0.71064933  0.79944167  0.64517467  1
  Sr  Sr2  1  0.20055833  0.91120767  0.64517467  1
  Sr  Sr3  1  0.91120767  0.71064933  0.35482533  1
  Sr  Sr4  1  0.28935067  0.20055833  0.35482533  1
  Sr  Sr5  1  0.79944167  0.08879233  0.35482533  1
  Sr  Sr6  1  0.75545900  0.62268400  0.97850800  1
  Sr  Sr7  1  0.37731600  0.13277500  0.97850800  1
  Sr  Sr8  1  0.86722500  0.24454100  0.97850800  1
  Sr  Sr9  1  0.57787433  0.04398267  0.68815867  1
  Sr  Sr10  1  0.95601733  0.53389167  0.68815867  1
  Sr  Sr11  1  0.46610833  0.42212567  0.68815867  1
  Sr  Sr12  1  0.42212567  0.95601733  0.31184133  1
  Sr  Sr13  1  0.04398267  0.46610833  0.31184133  1
  Sr  Sr14  1  0.53389167  0.57787433  0.31184133  1
  Sr  Sr15  1  0.24454100  0.37731600  0.02149200  1
  Sr  Sr16  1  0.62268400  0.86722500  0.02149200  1
  Sr  Sr17  1  0.13277500  0.75545900  0.02149200  1
  Y  Y18  1  0.00000000  0.00000000  0.00000000  1
  Y  Y19  1  0.66666667  0.33333333  0.33333333  1
  Y  Y20  1  0.33333333  0.66666667  0.66666667  1
  Sc  Sc21  1  0.00000000  0.00000000  0.50000000  1
  Sc  Sc22  1  0.66666667  0.33333333  0.83333333  1
  Sc  Sc23  1  0.33333333  0.66666667  0.16666667  1
  B  B24  1  0.80361200  0.85665500  0.23983700  1
  B  B25  1  0.14334500  0.94695700  0.23983700  1
  B  B26  1  0.05304300  0.19638800  0.23983700  1
  B  B27  1  0.85665500  0.05304300  0.76016300  1
  B  B28  1  0.94695700  0.80361200  0.76016300  1
  B  B29  1  0.19638800  0.14334500  0.76016300  1
  B  B30  1  0.47027867  0.18998833  0.57317033  1
  B  B31  1  0.81001167  0.28029033  0.57317033  1
  B  B32  1  0.71970967  0.52972133  0.57317033  1
  B  B33  1  0.52332167  0.38637633  0.09349633  1
  B  B34  1  0.61362367  0.13694533  0.09349633  1
  B  B35  1  0.86305467  0.47667833  0.09349633  1
  B  B36  1  0.13694533  0.52332167  0.90650367  1
  B  B37  1  0.47667833  0.61362367  0.90650367  1
  B  B38  1  0.38637633  0.86305467  0.90650367  1
  B  B39  1  0.18998833  0.71970967  0.42682967  1
  B  B40  1  0.28029033  0.47027867  0.42682967  1
  B  B41  1  0.52972133  0.81001167  0.42682967  1
  O  O42  1  0.11337267  0.95019933  0.38303833  1
  O  O43  1  0.04980067  0.16317333  0.38303833  1
  O  O44  1  0.50077333  0.71322167  0.52222867  1
  O  O45  1  0.21244833  0.49922667  0.52222867  1
  O  O46  1  0.28677833  0.78755167  0.52222867  1
  O  O47  1  0.71322167  0.21244833  0.47777133  1
  O  O48  1  0.49922667  0.28677833  0.47777133  1
  O  O49  1  0.78755167  0.50077333  0.47777133  1
  O  O50  1  0.59174233  0.93202867  0.46909267  1
  O  O51  1  0.34028633  0.40825767  0.46909267  1
  O  O52  1  0.06797133  0.65971367  0.46909267  1
  O  O53  1  0.40825767  0.06797133  0.53090733  1
  O  O54  1  0.65971367  0.59174233  0.53090733  1
  O  O55  1  0.93202867  0.34028633  0.53090733  1
  O  O56  1  0.16317333  0.11337267  0.61696167  1
  O  O57  1  0.95019933  0.83682667  0.61696167  1
  O  O58  1  0.88662733  0.04980067  0.61696167  1
  O  O59  1  0.83682667  0.88662733  0.38303833  1
  O  O60  1  0.78003933  0.28353267  0.71637167  1
  O  O61  1  0.71646733  0.49650667  0.71637167  1
  O  O62  1  0.16744000  0.04655500  0.85556200  1
  O  O63  1  0.87911500  0.83256000  0.85556200  1
  O  O64  1  0.95344500  0.12088500  0.85556200  1
  O  O65  1  0.37988833  0.54578167  0.81110467  1
  O  O66  1  0.16589333  0.62011167  0.81110467  1
  O  O67  1  0.45421833  0.83410667  0.81110467  1
  O  O68  1  0.25840900  0.26536200  0.80242600  1
  O  O69  1  0.00695300  0.74159100  0.80242600  1
  O  O70  1  0.73463800  0.99304700  0.80242600  1
  O  O71  1  0.07492433  0.40130467  0.86424067  1
  O  O72  1  0.32638033  0.92507567  0.86424067  1
  O  O73  1  0.59869533  0.67361967  0.86424067  1
  O  O74  1  0.82984000  0.44670600  0.95029500  1
  O  O75  1  0.61686600  0.17016000  0.95029500  1
  O  O76  1  0.55329400  0.38313400  0.95029500  1
  O  O77  1  0.50349333  0.21996067  0.71637167  1
  O  O78  1  0.44670600  0.61686600  0.04970500  1
  O  O79  1  0.38313400  0.82984000  0.04970500  1
  O  O80  1  0.83410667  0.37988833  0.18889533  1
  O  O81  1  0.54578167  0.16589333  0.18889533  1
  O  O82  1  0.62011167  0.45421833  0.18889533  1
  O  O83  1  0.04655500  0.87911500  0.14443800  1
  O  O84  1  0.83256000  0.95344500  0.14443800  1
  O  O85  1  0.12088500  0.16744000  0.14443800  1
  O  O86  1  0.92507567  0.59869533  0.13575933  1
  O  O87  1  0.67361967  0.07492433  0.13575933  1
  O  O88  1  0.40130467  0.32638033  0.13575933  1
  O  O89  1  0.74159100  0.73463800  0.19757400  1
  O  O90  1  0.99304700  0.25840900  0.19757400  1
  O  O91  1  0.26536200  0.00695300  0.19757400  1
  O  O92  1  0.49650667  0.78003933  0.28362833  1
  O  O93  1  0.28353267  0.50349333  0.28362833  1
  O  O94  1  0.21996067  0.71646733  0.28362833  1
  O  O95  1  0.17016000  0.55329400  0.04970500  1
