# generated using pymatgen
data_LiAuF4
_symmetry_space_group_name_H-M   'P 1'
_cell_length_a   11.11094600
_cell_length_b   6.41597400
_cell_length_c   5.01090369
_cell_angle_alpha   90.00000000
_cell_angle_beta   113.23209997
_cell_angle_gamma   90.00000000
_symmetry_Int_Tables_number   1
_chemical_formula_structural   LiAuF4
_chemical_formula_sum   'Li4 Au4 F16'
_cell_volume   328.25003938
_cell_formula_units_Z   4
loop_
 _symmetry_equiv_pos_site_id
 _symmetry_equiv_pos_as_xyz
  1  'x, y, z'
loop_
 _atom_site_type_symbol
 _atom_site_label
 _atom_site_symmetry_multiplicity
 _atom_site_fract_x
 _atom_site_fract_y
 _atom_site_fract_z
 _atom_site_occupancy
  Li  Li0  1  0.50000000  0.16827300  0.75000000  1
  Li  Li1  1  0.50000000  0.83172700  0.25000000  1
  Li  Li2  1  0.00000000  0.66827300  0.75000000  1
  Li  Li3  1  0.00000000  0.33172700  0.25000000  1
  Au  Au4  1  0.25000000  0.25000000  0.00000000  1
  Au  Au5  1  0.25000000  0.75000000  0.50000000  1
  Au  Au6  1  0.75000000  0.75000000  0.00000000  1
  Au  Au7  1  0.75000000  0.25000000  0.50000000  1
  F  F8  1  0.37394850  0.35370850  0.83772600  1
  F  F9  1  0.37394850  0.64629150  0.33772600  1
  F  F10  1  0.38956300  0.89619500  0.82121700  1
  F  F11  1  0.38956300  0.10380500  0.32121700  1
  F  F12  1  0.61043700  0.10380500  0.17878300  1
  F  F13  1  0.61043700  0.89619500  0.67878300  1
  F  F14  1  0.62605150  0.64629150  0.16227400  1
  F  F15  1  0.62605150  0.35370850  0.66227400  1
  F  F16  1  0.87394850  0.85370850  0.83772600  1
  F  F17  1  0.87394850  0.14629150  0.33772600  1
  F  F18  1  0.88956300  0.39619500  0.82121700  1
  F  F19  1  0.88956300  0.60380500  0.32121700  1
  F  F20  1  0.11043700  0.60380500  0.17878300  1
  F  F21  1  0.11043700  0.39619500  0.67878300  1
  F  F22  1  0.12605150  0.14629150  0.16227400  1
  F  F23  1  0.12605150  0.85370850  0.66227400  1
