# generated using pymatgen
data_K3LiP2O7
_symmetry_space_group_name_H-M   'P 1'
_cell_length_a   6.13622000
_cell_length_b   9.49876800
_cell_length_c   13.53049400
_cell_angle_alpha   90.00000000
_cell_angle_beta   90.00000000
_cell_angle_gamma   90.00000000
_symmetry_Int_Tables_number   1
_chemical_formula_structural   K3LiP2O7
_chemical_formula_sum   'K12 Li4 P8 O28'
_cell_volume   788.64554684
_cell_formula_units_Z   4
loop_
 _symmetry_equiv_pos_site_id
 _symmetry_equiv_pos_as_xyz
  1  'x, y, z'
loop_
 _atom_site_type_symbol
 _atom_site_label
 _atom_site_symmetry_multiplicity
 _atom_site_fract_x
 _atom_site_fract_y
 _atom_site_fract_z
 _atom_site_occupancy
  K  K0  1  0.13415200  0.00000000  0.00000000  1
  K  K1  1  0.86584800  0.00000000  0.50000000  1
  K  K2  1  0.61935950  0.84294250  0.12267200  1
  K  K3  1  0.61935950  0.15705750  0.87732800  1
  K  K4  1  0.38064050  0.15705750  0.62267200  1
  K  K5  1  0.38064050  0.84294250  0.37732800  1
  K  K6  1  0.63415200  0.50000000  0.00000000  1
  K  K7  1  0.36584800  0.50000000  0.50000000  1
  K  K8  1  0.11935950  0.34294250  0.12267200  1
  K  K9  1  0.11935950  0.65705750  0.87732800  1
  K  K10  1  0.88064050  0.65705750  0.62267200  1
  K  K11  1  0.88064050  0.34294250  0.37732800  1
  Li  Li12  1  0.50000000  0.48790800  0.25000000  1
  Li  Li13  1  0.50000000  0.51209200  0.75000000  1
  Li  Li14  1  0.00000000  0.98790800  0.25000000  1
  Li  Li15  1  0.00000000  0.01209200  0.75000000  1
  P  P16  1  0.63303850  0.19110450  0.15546300  1
  P  P17  1  0.63303850  0.80889550  0.84453700  1
  P  P18  1  0.36696150  0.80889550  0.65546300  1
  P  P19  1  0.36696150  0.19110450  0.34453700  1
  P  P20  1  0.13303850  0.69110450  0.15546300  1
  P  P21  1  0.13303850  0.30889550  0.84453700  1
  P  P22  1  0.86696150  0.30889550  0.65546300  1
  P  P23  1  0.86696150  0.69110450  0.34453700  1
  O  O24  1  0.18606750  0.84533850  0.18050600  1
  O  O25  1  0.18606750  0.15466150  0.81949400  1
  O  O26  1  0.81393250  0.15466150  0.68050600  1
  O  O27  1  0.81393250  0.84533850  0.31949400  1
  O  O28  1  0.83968000  0.09936200  0.14804500  1
  O  O29  1  0.83968000  0.90063800  0.85195500  1
  O  O30  1  0.16032000  0.90063800  0.64804500  1
  O  O31  1  0.16032000  0.09936200  0.35195500  1
  O  O32  1  0.47999300  0.17508500  0.06683200  1
  O  O33  1  0.47999300  0.82491500  0.93316800  1
  O  O34  1  0.52000700  0.82491500  0.56683200  1
  O  O35  1  0.52000700  0.17508500  0.43316800  1
  O  O36  1  0.50000000  0.12278900  0.25000000  1
  O  O37  1  0.50000000  0.87721100  0.75000000  1
  O  O38  1  0.68606750  0.34533850  0.18050600  1
  O  O39  1  0.68606750  0.65466150  0.81949400  1
  O  O40  1  0.31393250  0.65466150  0.68050600  1
  O  O41  1  0.31393250  0.34533850  0.31949400  1
  O  O42  1  0.33968000  0.59936200  0.14804500  1
  O  O43  1  0.33968000  0.40063800  0.85195500  1
  O  O44  1  0.66032000  0.40063800  0.64804500  1
  O  O45  1  0.66032000  0.59936200  0.35195500  1
  O  O46  1  0.97999300  0.67508500  0.06683200  1
  O  O47  1  0.97999300  0.32491500  0.93316800  1
  O  O48  1  0.02000700  0.32491500  0.56683200  1
  O  O49  1  0.02000700  0.67508500  0.43316800  1
  O  O50  1  0.00000000  0.62278900  0.25000000  1
  O  O51  1  0.00000000  0.37721100  0.75000000  1
