# generated using pymatgen
data_Tm6ReO12
_symmetry_space_group_name_H-M   'P 1'
_cell_length_a   9.70023799
_cell_length_b   9.70023799
_cell_length_c   9.21200632
_cell_angle_alpha   90.00000000
_cell_angle_beta   90.00000000
_cell_angle_gamma   120.00000000
_symmetry_Int_Tables_number   1
_chemical_formula_structural   Tm6ReO12
_chemical_formula_sum   'Tm18 Re3 O36'
_cell_volume   750.67099949
_cell_formula_units_Z   3
loop_
 _symmetry_equiv_pos_site_id
 _symmetry_equiv_pos_as_xyz
  1  'x, y, z'
loop_
 _atom_site_type_symbol
 _atom_site_label
 _atom_site_symmetry_multiplicity
 _atom_site_fract_x
 _atom_site_fract_y
 _atom_site_fract_z
 _atom_site_occupancy
  Tm  Tm0  1  0.21324067  0.96034633  0.64286933  1
  Tm  Tm1  1  0.03965367  0.25289433  0.64286933  1
  Tm  Tm2  1  0.74710567  0.78675933  0.64286933  1
  Tm  Tm3  1  0.78675933  0.03965367  0.35713067  1
  Tm  Tm4  1  0.96034633  0.74710567  0.35713067  1
  Tm  Tm5  1  0.25289433  0.21324067  0.35713067  1
  Tm  Tm6  1  0.87990733  0.29367967  0.97620267  1
  Tm  Tm7  1  0.70632033  0.58622767  0.97620267  1
  Tm  Tm8  1  0.41377233  0.12009267  0.97620267  1
  Tm  Tm9  1  0.45342600  0.37298700  0.69046400  1
  Tm  Tm10  1  0.62701300  0.08043900  0.69046400  1
  Tm  Tm11  1  0.91956100  0.54657400  0.69046400  1
  Tm  Tm12  1  0.54657400  0.62701300  0.30953600  1
  Tm  Tm13  1  0.37298700  0.91956100  0.30953600  1
  Tm  Tm14  1  0.08043900  0.45342600  0.30953600  1
  Tm  Tm15  1  0.12009267  0.70632033  0.02379733  1
  Tm  Tm16  1  0.29367967  0.41377233  0.02379733  1
  Tm  Tm17  1  0.58622767  0.87990733  0.02379733  1
  Re  Re18  1  0.00000000  0.00000000  0.00000000  1
  Re  Re19  1  0.66666667  0.33333333  0.33333333  1
  Re  Re20  1  0.33333333  0.66666667  0.66666667  1
  O  O21  1  0.19078000  0.96896500  0.39915700  1
  O  O22  1  0.03103500  0.22181500  0.39915700  1
  O  O23  1  0.77818500  0.80922000  0.39915700  1
  O  O24  1  0.80922000  0.03103500  0.60084300  1
  O  O25  1  0.96896500  0.77818500  0.60084300  1
  O  O26  1  0.22181500  0.19078000  0.60084300  1
  O  O27  1  0.48434367  0.63178633  0.55409333  1
  O  O28  1  0.85255733  0.48434367  0.44590667  1
  O  O29  1  0.63178633  0.14744267  0.44590667  1
  O  O30  1  0.51565633  0.36821367  0.44590667  1
  O  O31  1  0.14744267  0.51565633  0.55409333  1
  O  O32  1  0.36821367  0.85255733  0.55409333  1
  O  O33  1  0.85744667  0.30229833  0.73249033  1
  O  O34  1  0.69770167  0.55514833  0.73249033  1
  O  O35  1  0.44485167  0.14255333  0.73249033  1
  O  O36  1  0.47588667  0.36436833  0.93417633  1
  O  O37  1  0.63563167  0.11151833  0.93417633  1
  O  O38  1  0.88848167  0.52411333  0.93417633  1
  O  O39  1  0.15101033  0.96511967  0.88742667  1
  O  O40  1  0.51922400  0.81767700  0.77924000  1
  O  O41  1  0.29845300  0.48077600  0.77924000  1
  O  O42  1  0.18232300  0.70154700  0.77924000  1
  O  O43  1  0.81410933  0.84898967  0.88742667  1
  O  O44  1  0.03488033  0.18589067  0.88742667  1
  O  O45  1  0.52411333  0.63563167  0.06582367  1
  O  O46  1  0.36436833  0.88848167  0.06582367  1
  O  O47  1  0.11151833  0.47588667  0.06582367  1
  O  O48  1  0.14255333  0.69770167  0.26750967  1
  O  O49  1  0.30229833  0.44485167  0.26750967  1
  O  O50  1  0.55514833  0.85744667  0.26750967  1
  O  O51  1  0.81767700  0.29845300  0.22076000  1
  O  O52  1  0.18589067  0.15101033  0.11257333  1
  O  O53  1  0.96511967  0.81410933  0.11257333  1
  O  O54  1  0.84898967  0.03488033  0.11257333  1
  O  O55  1  0.48077600  0.18232300  0.22076000  1
  O  O56  1  0.70154700  0.51922400  0.22076000  1
