# generated using pymatgen
data_Co4B6O13
_symmetry_space_group_name_H-M   'P 1'
_cell_length_a   7.54325006
_cell_length_b   7.54325006
_cell_length_c   7.54325006
_cell_angle_alpha   90.00000000
_cell_angle_beta   90.00000000
_cell_angle_gamma   90.00000000
_symmetry_Int_Tables_number   1
_chemical_formula_structural   Co4B6O13
_chemical_formula_sum   'Co8 B12 O26'
_cell_volume   429.21561593
_cell_formula_units_Z   2
loop_
 _symmetry_equiv_pos_site_id
 _symmetry_equiv_pos_as_xyz
  1  'x, y, z'
loop_
 _atom_site_type_symbol
 _atom_site_label
 _atom_site_symmetry_multiplicity
 _atom_site_fract_x
 _atom_site_fract_y
 _atom_site_fract_z
 _atom_site_occupancy
  Co  Co0  1  0.34631800  0.65368200  0.65368200  1
  Co  Co1  1  0.15368200  0.15368200  0.84631800  1
  Co  Co2  1  0.34631800  0.34631800  0.34631800  1
  Co  Co3  1  0.65368200  0.34631800  0.65368200  1
  Co  Co4  1  0.84631800  0.15368200  0.15368200  1
  Co  Co5  1  0.65368200  0.65368200  0.34631800  1
  Co  Co6  1  0.84631800  0.84631800  0.84631800  1
  Co  Co7  1  0.15368200  0.84631800  0.15368200  1
  B  B8  1  0.50000000  0.75000000  0.00000000  1
  B  B9  1  0.00000000  0.50000000  0.75000000  1
  B  B10  1  0.50000000  0.00000000  0.75000000  1
  B  B11  1  0.25000000  0.50000000  0.00000000  1
  B  B12  1  0.25000000  0.00000000  0.50000000  1
  B  B13  1  0.00000000  0.75000000  0.50000000  1
  B  B14  1  0.00000000  0.25000000  0.50000000  1
  B  B15  1  0.50000000  0.00000000  0.25000000  1
  B  B16  1  0.00000000  0.50000000  0.25000000  1
  B  B17  1  0.75000000  0.00000000  0.50000000  1
  B  B18  1  0.75000000  0.50000000  0.00000000  1
  B  B19  1  0.50000000  0.25000000  0.00000000  1
  O  O20  1  0.00000000  0.00000000  0.00000000  1
  O  O21  1  0.64105650  0.64105650  0.08289350  1
  O  O22  1  0.14105650  0.85894350  0.41710650  1
  O  O23  1  0.85894350  0.58289350  0.85894350  1
  O  O24  1  0.35894350  0.64105650  0.91710650  1
  O  O25  1  0.41710650  0.85894350  0.14105650  1
  O  O26  1  0.58289350  0.85894350  0.85894350  1
  O  O27  1  0.08289350  0.64105650  0.64105650  1
  O  O28  1  0.14105650  0.58289350  0.14105650  1
  O  O29  1  0.14105650  0.41710650  0.85894350  1
  O  O30  1  0.91710650  0.64105650  0.35894350  1
  O  O31  1  0.85894350  0.85894350  0.58289350  1
  O  O32  1  0.35894350  0.91710650  0.64105650  1
  O  O33  1  0.50000000  0.50000000  0.50000000  1
  O  O34  1  0.14105650  0.14105650  0.58289350  1
  O  O35  1  0.64105650  0.35894350  0.91710650  1
  O  O36  1  0.35894350  0.08289350  0.35894350  1
  O  O37  1  0.85894350  0.14105650  0.41710650  1
  O  O38  1  0.91710650  0.35894350  0.64105650  1
  O  O39  1  0.08289350  0.35894350  0.35894350  1
  O  O40  1  0.58289350  0.14105650  0.14105650  1
  O  O41  1  0.64105650  0.08289350  0.64105650  1
  O  O42  1  0.64105650  0.91710650  0.35894350  1
  O  O43  1  0.41710650  0.14105650  0.85894350  1
  O  O44  1  0.35894350  0.35894350  0.08289350  1
  O  O45  1  0.85894350  0.41710650  0.14105650  1
