# generated using pymatgen
data_Ca5(SiN3)2
_symmetry_space_group_name_H-M   'P 1'
_cell_length_a   6.27457600
_cell_length_b   10.05950000
_cell_length_c   12.05918089
_cell_angle_alpha   90.00000000
_cell_angle_beta   99.13231860
_cell_angle_gamma   90.00000000
_symmetry_Int_Tables_number   1
_chemical_formula_structural   Ca5(SiN3)2
_chemical_formula_sum   'Ca20 Si8 N24'
_cell_volume   751.51642271
_cell_formula_units_Z   4
loop_
 _symmetry_equiv_pos_site_id
 _symmetry_equiv_pos_as_xyz
  1  'x, y, z'
loop_
 _atom_site_type_symbol
 _atom_site_label
 _atom_site_symmetry_multiplicity
 _atom_site_fract_x
 _atom_site_fract_y
 _atom_site_fract_z
 _atom_site_occupancy
  Ca  Ca0  1  0.44378700  0.82463900  0.73826400  1
  Ca  Ca1  1  0.44378700  0.17536100  0.73826400  1
  Ca  Ca2  1  0.55621300  0.17536100  0.26173600  1
  Ca  Ca3  1  0.55621300  0.82463900  0.26173600  1
  Ca  Ca4  1  0.91124700  0.00000000  0.79309400  1
  Ca  Ca5  1  0.08875300  0.00000000  0.20690600  1
  Ca  Ca6  1  0.50000000  0.68666300  0.50000000  1
  Ca  Ca7  1  0.50000000  0.31333700  0.50000000  1
  Ca  Ca8  1  0.50000000  0.74167500  0.00000000  1
  Ca  Ca9  1  0.50000000  0.25832500  0.00000000  1
  Ca  Ca10  1  0.94378700  0.32463900  0.73826400  1
  Ca  Ca11  1  0.94378700  0.67536100  0.73826400  1
  Ca  Ca12  1  0.05621300  0.67536100  0.26173600  1
  Ca  Ca13  1  0.05621300  0.32463900  0.26173600  1
  Ca  Ca14  1  0.41124700  0.50000000  0.79309400  1
  Ca  Ca15  1  0.58875300  0.50000000  0.20690600  1
  Ca  Ca16  1  0.00000000  0.18666300  0.50000000  1
  Ca  Ca17  1  0.00000000  0.81333700  0.50000000  1
  Ca  Ca18  1  0.00000000  0.24167500  0.00000000  1
  Ca  Ca19  1  0.00000000  0.75832500  0.00000000  1
  Si  Si20  1  0.64903700  0.00000000  0.57505100  1
  Si  Si21  1  0.35096300  0.00000000  0.42494900  1
  Si  Si22  1  0.32479200  0.00000000  0.93159700  1
  Si  Si23  1  0.67520800  0.00000000  0.06840300  1
  Si  Si24  1  0.14903700  0.50000000  0.57505100  1
  Si  Si25  1  0.85096300  0.50000000  0.42494900  1
  Si  Si26  1  0.82479200  0.50000000  0.93159700  1
  Si  Si27  1  0.17520800  0.50000000  0.06840300  1
  N  N28  1  0.75789150  0.14656750  0.63824900  1
  N  N29  1  0.75789150  0.85343250  0.63824900  1
  N  N30  1  0.24210850  0.85343250  0.36175100  1
  N  N31  1  0.24210850  0.14656750  0.36175100  1
  N  N32  1  0.19835550  0.85571850  0.87329500  1
  N  N33  1  0.19835550  0.14428150  0.87329500  1
  N  N34  1  0.80164450  0.14428150  0.12670500  1
  N  N35  1  0.80164450  0.85571850  0.12670500  1
  N  N36  1  0.60944200  0.00000000  0.91509400  1
  N  N37  1  0.39055800  0.00000000  0.08490600  1
  N  N38  1  0.64434700  0.00000000  0.42588100  1
  N  N39  1  0.35565300  0.00000000  0.57411900  1
  N  N40  1  0.25789150  0.64656750  0.63824900  1
  N  N41  1  0.25789150  0.35343250  0.63824900  1
  N  N42  1  0.74210850  0.35343250  0.36175100  1
  N  N43  1  0.74210850  0.64656750  0.36175100  1
  N  N44  1  0.69835550  0.35571850  0.87329500  1
  N  N45  1  0.69835550  0.64428150  0.87329500  1
  N  N46  1  0.30164450  0.64428150  0.12670500  1
  N  N47  1  0.30164450  0.35571850  0.12670500  1
  N  N48  1  0.10944200  0.50000000  0.91509400  1
  N  N49  1  0.89055800  0.50000000  0.08490600  1
  N  N50  1  0.14434700  0.50000000  0.42588100  1
  N  N51  1  0.85565300  0.50000000  0.57411900  1
