# generated using pymatgen
data_Ba3Mn2O8
_symmetry_space_group_name_H-M   'P 1'
_cell_length_a   5.80882701
_cell_length_b   5.80882701
_cell_length_c   21.75151231
_cell_angle_alpha   90.00000000
_cell_angle_beta   90.00000000
_cell_angle_gamma   120.00000000
_symmetry_Int_Tables_number   1
_chemical_formula_structural   Ba3Mn2O8
_chemical_formula_sum   'Ba9 Mn6 O24'
_cell_volume   635.61915260
_cell_formula_units_Z   3
loop_
 _symmetry_equiv_pos_site_id
 _symmetry_equiv_pos_as_xyz
  1  'x, y, z'
loop_
 _atom_site_type_symbol
 _atom_site_label
 _atom_site_symmetry_multiplicity
 _atom_site_fract_x
 _atom_site_fract_y
 _atom_site_fract_z
 _atom_site_occupancy
  Ba  Ba0  1  0.00000000  0.00000000  0.00000000  1
  Ba  Ba1  1  0.00000000  0.00000000  0.79248333  1
  Ba  Ba2  1  0.33333333  0.66666667  0.87418333  1
  Ba  Ba3  1  0.66666667  0.33333333  0.33333333  1
  Ba  Ba4  1  0.66666667  0.33333333  0.12581667  1
  Ba  Ba5  1  1.00000000  0.00000000  0.20751667  1
  Ba  Ba6  1  0.33333333  0.66666667  0.66666667  1
  Ba  Ba7  1  0.33333333  0.66666667  0.45915000  1
  Ba  Ba8  1  0.66666667  0.33333333  0.54085000  1
  Mn  Mn9  1  0.66666667  0.33333333  0.92612533  1
  Mn  Mn10  1  0.66666667  0.33333333  0.74054133  1
  Mn  Mn11  1  0.33333333  0.66666667  0.25945867  1
  Mn  Mn12  1  0.33333333  0.66666667  0.07387467  1
  Mn  Mn13  1  0.00000000  0.00000000  0.59279200  1
  Mn  Mn14  1  0.00000000  0.00000000  0.40720800  1
  O  O15  1  0.00000000  0.00000000  0.67095600  1
  O  O16  1  0.33333333  0.66666667  0.99571067  1
  O  O17  1  0.50548767  0.49451233  0.76767233  1
  O  O18  1  0.98902467  0.49451233  0.76767233  1
  O  O19  1  0.50548767  0.01097533  0.76767233  1
  O  O20  1  0.82784567  0.65569133  0.89899433  1
  O  O21  1  0.34430867  0.17215433  0.89899433  1
  O  O22  1  0.82784567  0.17215433  0.89899433  1
  O  O23  1  0.66666667  0.33333333  0.00428933  1
  O  O24  1  0.00000000  0.00000000  0.32904400  1
  O  O25  1  0.17215433  0.82784567  0.10100567  1
  O  O26  1  0.65569133  0.82784567  0.10100567  1
  O  O27  1  0.17215433  0.34430867  0.10100567  1
  O  O28  1  0.49451233  0.98902467  0.23232767  1
  O  O29  1  0.01097533  0.50548767  0.23232767  1
  O  O30  1  0.49451233  0.50548767  0.23232767  1
  O  O31  1  0.33333333  0.66666667  0.33762267  1
  O  O32  1  0.66666667  0.33333333  0.66237733  1
  O  O33  1  0.83882100  0.16117900  0.43433900  1
  O  O34  1  0.32235800  0.16117900  0.43433900  1
  O  O35  1  0.83882100  0.67764200  0.43433900  1
  O  O36  1  0.16117900  0.32235800  0.56566100  1
  O  O37  1  0.67764200  0.83882100  0.56566100  1
  O  O38  1  0.16117900  0.83882100  0.56566100  1
