# generated using pymatgen
data_Pr3TaO7
_symmetry_space_group_name_H-M   'P 1'
_cell_length_a   7.61891200
_cell_length_b   11.10264600
_cell_length_c   7.76880800
_cell_angle_alpha   90.00000000
_cell_angle_beta   90.00000000
_cell_angle_gamma   90.00000000
_symmetry_Int_Tables_number   1
_chemical_formula_structural   Pr3TaO7
_chemical_formula_sum   'Pr12 Ta4 O28'
_cell_volume   657.16411230
_cell_formula_units_Z   4
loop_
 _symmetry_equiv_pos_site_id
 _symmetry_equiv_pos_as_xyz
  1  'x, y, z'
loop_
 _atom_site_type_symbol
 _atom_site_label
 _atom_site_symmetry_multiplicity
 _atom_site_fract_x
 _atom_site_fract_y
 _atom_site_fract_z
 _atom_site_occupancy
  Pr  Pr0  1  0.00000000  0.00000000  0.00000000  1
  Pr  Pr1  1  0.00000000  0.00000000  0.50000000  1
  Pr  Pr2  1  0.70558500  0.77327300  0.75000000  1
  Pr  Pr3  1  0.29441500  0.22672700  0.25000000  1
  Pr  Pr4  1  0.70558500  0.22672700  0.75000000  1
  Pr  Pr5  1  0.29441500  0.77327300  0.25000000  1
  Pr  Pr6  1  0.50000000  0.50000000  0.00000000  1
  Pr  Pr7  1  0.50000000  0.50000000  0.50000000  1
  Pr  Pr8  1  0.20558500  0.27327300  0.75000000  1
  Pr  Pr9  1  0.79441500  0.72672700  0.25000000  1
  Pr  Pr10  1  0.20558500  0.72672700  0.75000000  1
  Pr  Pr11  1  0.79441500  0.27327300  0.25000000  1
  Ta  Ta12  1  0.50000000  0.00000000  0.00000000  1
  Ta  Ta13  1  0.50000000  0.00000000  0.50000000  1
  Ta  Ta14  1  0.00000000  0.50000000  0.00000000  1
  Ta  Ta15  1  0.00000000  0.50000000  0.50000000  1
  O  O16  1  0.56482700  0.00000000  0.75000000  1
  O  O17  1  0.43517300  0.00000000  0.25000000  1
  O  O18  1  0.47808750  0.36882250  0.75000000  1
  O  O19  1  0.52191250  0.63117750  0.25000000  1
  O  O20  1  0.47808750  0.63117750  0.75000000  1
  O  O21  1  0.52191250  0.36882250  0.25000000  1
  O  O22  1  0.31366100  0.12561800  0.96696900  1
  O  O23  1  0.68633900  0.87438200  0.46696900  1
  O  O24  1  0.31366100  0.87438200  0.96696900  1
  O  O25  1  0.68633900  0.12561800  0.46696900  1
  O  O26  1  0.31366100  0.12561800  0.53303100  1
  O  O27  1  0.68633900  0.87438200  0.03303100  1
  O  O28  1  0.68633900  0.12561800  0.03303100  1
  O  O29  1  0.31366100  0.87438200  0.53303100  1
  O  O30  1  0.06482700  0.50000000  0.75000000  1
  O  O31  1  0.93517300  0.50000000  0.25000000  1
  O  O32  1  0.97808750  0.86882250  0.75000000  1
  O  O33  1  0.02191250  0.13117750  0.25000000  1
  O  O34  1  0.97808750  0.13117750  0.75000000  1
  O  O35  1  0.02191250  0.86882250  0.25000000  1
  O  O36  1  0.81366100  0.62561800  0.96696900  1
  O  O37  1  0.18633900  0.37438200  0.46696900  1
  O  O38  1  0.81366100  0.37438200  0.96696900  1
  O  O39  1  0.18633900  0.62561800  0.46696900  1
  O  O40  1  0.81366100  0.62561800  0.53303100  1
  O  O41  1  0.18633900  0.37438200  0.03303100  1
  O  O42  1  0.18633900  0.62561800  0.03303100  1
  O  O43  1  0.81366100  0.37438200  0.53303100  1
