# generated using pymatgen
data_Cs2NaAl3F12
_symmetry_space_group_name_H-M   'P 1'
_cell_length_a   7.14561389
_cell_length_b   7.14561389
_cell_length_c   18.54408677
_cell_angle_alpha   90.00000000
_cell_angle_beta   90.00000000
_cell_angle_gamma   120.00000000
_symmetry_Int_Tables_number   1
_chemical_formula_structural   Cs2NaAl3F12
_chemical_formula_sum   'Cs6 Na3 Al9 F36'
_cell_volume   820.00249549
_cell_formula_units_Z   3
loop_
 _symmetry_equiv_pos_site_id
 _symmetry_equiv_pos_as_xyz
  1  'x, y, z'
loop_
 _atom_site_type_symbol
 _atom_site_label
 _atom_site_symmetry_multiplicity
 _atom_site_fract_x
 _atom_site_fract_y
 _atom_site_fract_z
 _atom_site_occupancy
  Cs  Cs0  1  0.33333333  0.66666667  0.28965567  1
  Cs  Cs1  1  0.33333333  0.66666667  0.04367767  1
  Cs  Cs2  1  0.00000000  0.00000000  0.62298900  1
  Cs  Cs3  1  0.00000000  0.00000000  0.37701100  1
  Cs  Cs4  1  0.66666667  0.33333333  0.95632233  1
  Cs  Cs5  1  0.66666667  0.33333333  0.71034433  1
  Na  Na6  1  0.00000000  0.00000000  0.00000000  1
  Na  Na7  1  0.66666667  0.33333333  0.33333333  1
  Na  Na8  1  0.33333333  0.66666667  0.66666667  1
  Al  Al9  1  0.33333333  0.16666667  0.16666667  1
  Al  Al10  1  0.83333333  0.66666667  0.16666667  1
  Al  Al11  1  0.83333333  0.16666667  0.16666667  1
  Al  Al12  1  0.00000000  0.50000000  0.50000000  1
  Al  Al13  1  0.50000000  0.00000000  0.50000000  1
  Al  Al14  1  0.50000000  0.50000000  0.50000000  1
  Al  Al15  1  0.66666667  0.83333333  0.83333333  1
  Al  Al16  1  0.16666667  0.33333333  0.83333333  1
  Al  Al17  1  0.16666667  0.83333333  0.83333333  1
  F  F18  1  0.82243333  0.64486667  0.26232067  1
  F  F19  1  0.35513333  0.17756667  0.26232067  1
  F  F20  1  0.82243333  0.17756667  0.26232067  1
  F  F21  1  0.84423333  0.15576667  0.07101267  1
  F  F22  1  0.84423333  0.68846667  0.07101267  1
  F  F23  1  0.31153333  0.15576667  0.07101267  1
  F  F24  1  0.75028467  0.87514233  0.17225533  1
  F  F25  1  0.12485767  0.24971533  0.17225533  1
  F  F26  1  0.12485767  0.87514233  0.17225533  1
  F  F27  1  0.54180900  0.45819100  0.16107800  1
  F  F28  1  0.91638200  0.45819100  0.16107800  1
  F  F29  1  0.54180900  0.08361800  0.16107800  1
  F  F30  1  0.48910000  0.97820000  0.59565400  1
  F  F31  1  0.02180000  0.51090000  0.59565400  1
  F  F32  1  0.48910000  0.51090000  0.59565400  1
  F  F33  1  0.51090000  0.48910000  0.40434600  1
  F  F34  1  0.51090000  0.02180000  0.40434600  1
  F  F35  1  0.97820000  0.48910000  0.40434600  1
  F  F36  1  0.41695133  0.20847567  0.50558867  1
  F  F37  1  0.79152433  0.58304867  0.50558867  1
  F  F38  1  0.79152433  0.20847567  0.50558867  1
  F  F39  1  0.20847567  0.79152433  0.49441133  1
  F  F40  1  0.58304867  0.79152433  0.49441133  1
  F  F41  1  0.20847567  0.41695133  0.49441133  1
  F  F42  1  0.15576667  0.31153333  0.92898733  1
  F  F43  1  0.68846667  0.84423333  0.92898733  1
  F  F44  1  0.15576667  0.84423333  0.92898733  1
  F  F45  1  0.17756667  0.82243333  0.73767933  1
  F  F46  1  0.17756667  0.35513333  0.73767933  1
  F  F47  1  0.64486667  0.82243333  0.73767933  1
  F  F48  1  0.08361800  0.54180900  0.83892200  1
  F  F49  1  0.45819100  0.91638200  0.83892200  1
  F  F50  1  0.45819100  0.54180900  0.83892200  1
  F  F51  1  0.87514233  0.12485767  0.82774467  1
  F  F52  1  0.24971533  0.12485767  0.82774467  1
  F  F53  1  0.87514233  0.75028467  0.82774467  1
