# generated using pymatgen
data_Rb2VCuS4
_symmetry_space_group_name_H-M   'P 1'
_cell_length_a   5.45237200
_cell_length_b   13.62831800
_cell_length_c   23.91100600
_cell_angle_alpha   90.00000000
_cell_angle_beta   90.00000000
_cell_angle_gamma   90.00000000
_symmetry_Int_Tables_number   1
_chemical_formula_structural   Rb2VCuS4
_chemical_formula_sum   'Rb16 V8 Cu8 S32'
_cell_volume   1776.74698043
_cell_formula_units_Z   8
loop_
 _symmetry_equiv_pos_site_id
 _symmetry_equiv_pos_as_xyz
  1  'x, y, z'
loop_
 _atom_site_type_symbol
 _atom_site_label
 _atom_site_symmetry_multiplicity
 _atom_site_fract_x
 _atom_site_fract_y
 _atom_site_fract_z
 _atom_site_occupancy
  Rb  Rb0  1  0.75000000  0.75000000  0.57241700  1
  Rb  Rb1  1  0.75000000  0.75000000  0.92758300  1
  Rb  Rb2  1  0.50000000  0.00000000  0.82241700  1
  Rb  Rb3  1  0.00000000  0.00000000  0.67758300  1
  Rb  Rb4  1  0.75000000  0.25000000  0.07241700  1
  Rb  Rb5  1  0.75000000  0.25000000  0.42758300  1
  Rb  Rb6  1  0.50000000  0.50000000  0.32241700  1
  Rb  Rb7  1  0.00000000  0.50000000  0.17758300  1
  Rb  Rb8  1  0.25000000  0.75000000  0.07241700  1
  Rb  Rb9  1  0.25000000  0.75000000  0.42758300  1
  Rb  Rb10  1  0.00000000  0.00000000  0.32241700  1
  Rb  Rb11  1  0.50000000  0.00000000  0.17758300  1
  Rb  Rb12  1  0.25000000  0.25000000  0.57241700  1
  Rb  Rb13  1  0.25000000  0.25000000  0.92758300  1
  Rb  Rb14  1  0.00000000  0.50000000  0.82241700  1
  Rb  Rb15  1  0.50000000  0.50000000  0.67758300  1
  V  V16  1  0.75000000  0.75000000  0.75000000  1
  V  V17  1  0.50000000  0.00000000  0.00000000  1
  V  V18  1  0.75000000  0.25000000  0.25000000  1
  V  V19  1  0.50000000  0.50000000  0.50000000  1
  V  V20  1  0.25000000  0.75000000  0.25000000  1
  V  V21  1  0.00000000  0.00000000  0.50000000  1
  V  V22  1  0.25000000  0.25000000  0.75000000  1
  V  V23  1  0.00000000  0.50000000  0.00000000  1
  Cu  Cu24  1  0.00000000  0.00000000  0.00000000  1
  Cu  Cu25  1  0.25000000  0.75000000  0.75000000  1
  Cu  Cu26  1  0.00000000  0.50000000  0.50000000  1
  Cu  Cu27  1  0.25000000  0.25000000  0.25000000  1
  Cu  Cu28  1  0.50000000  0.00000000  0.50000000  1
  Cu  Cu29  1  0.75000000  0.75000000  0.25000000  1
  Cu  Cu30  1  0.50000000  0.50000000  0.00000000  1
  Cu  Cu31  1  0.75000000  0.25000000  0.75000000  1
  S  S32  1  0.23106300  0.90708950  0.55236750  1
  S  S33  1  0.23106300  0.59291050  0.94763250  1
  S  S34  1  0.26893700  0.90708950  0.94763250  1
  S  S35  1  0.26893700  0.59291050  0.55236750  1
  S  S36  1  0.98106300  0.65708950  0.69763250  1
  S  S37  1  0.51893700  0.65708950  0.80236750  1
  S  S38  1  0.98106300  0.84291050  0.80236750  1
  S  S39  1  0.51893700  0.84291050  0.69763250  1
  S  S40  1  0.23106300  0.40708950  0.05236750  1
  S  S41  1  0.23106300  0.09291050  0.44763250  1
  S  S42  1  0.26893700  0.40708950  0.44763250  1
  S  S43  1  0.26893700  0.09291050  0.05236750  1
  S  S44  1  0.98106300  0.15708950  0.19763250  1
  S  S45  1  0.51893700  0.15708950  0.30236750  1
  S  S46  1  0.98106300  0.34291050  0.30236750  1
  S  S47  1  0.51893700  0.34291050  0.19763250  1
  S  S48  1  0.73106300  0.90708950  0.05236750  1
  S  S49  1  0.73106300  0.59291050  0.44763250  1
  S  S50  1  0.76893700  0.90708950  0.44763250  1
  S  S51  1  0.76893700  0.59291050  0.05236750  1
  S  S52  1  0.48106300  0.65708950  0.19763250  1
  S  S53  1  0.01893700  0.65708950  0.30236750  1
  S  S54  1  0.48106300  0.84291050  0.30236750  1
  S  S55  1  0.01893700  0.84291050  0.19763250  1
  S  S56  1  0.73106300  0.40708950  0.55236750  1
  S  S57  1  0.73106300  0.09291050  0.94763250  1
  S  S58  1  0.76893700  0.40708950  0.94763250  1
  S  S59  1  0.76893700  0.09291050  0.55236750  1
  S  S60  1  0.48106300  0.15708950  0.69763250  1
  S  S61  1  0.01893700  0.15708950  0.80236750  1
  S  S62  1  0.48106300  0.34291050  0.80236750  1
  S  S63  1  0.01893700  0.34291050  0.69763250  1
