# generated using pymatgen
data_Ca2Al2O5
_symmetry_space_group_name_H-M   'P 1'
_cell_length_a   5.28545400
_cell_length_b   5.46463600
_cell_length_c   14.49220800
_cell_angle_alpha   90.00000000
_cell_angle_beta   90.00000000
_cell_angle_gamma   90.00000000
_symmetry_Int_Tables_number   1
_chemical_formula_structural   Ca2Al2O5
_chemical_formula_sum   'Ca8 Al8 O20'
_cell_volume   418.57963499
_cell_formula_units_Z   4
loop_
 _symmetry_equiv_pos_site_id
 _symmetry_equiv_pos_as_xyz
  1  'x, y, z'
loop_
 _atom_site_type_symbol
 _atom_site_label
 _atom_site_symmetry_multiplicity
 _atom_site_fract_x
 _atom_site_fract_y
 _atom_site_fract_z
 _atom_site_occupancy
  Ca  Ca0  1  0.00394900  0.02557400  0.89237200  1
  Ca  Ca1  1  0.50394900  0.47442600  0.60762800  1
  Ca  Ca2  1  0.50394900  0.47442600  0.89237200  1
  Ca  Ca3  1  0.00394900  0.02557400  0.60762800  1
  Ca  Ca4  1  0.50394900  0.52557400  0.39237200  1
  Ca  Ca5  1  0.00394900  0.97442600  0.10762800  1
  Ca  Ca6  1  0.00394900  0.97442600  0.39237200  1
  Ca  Ca7  1  0.50394900  0.52557400  0.10762800  1
  Al  Al8  1  0.99708200  0.50000000  0.00000000  1
  Al  Al9  1  0.49708200  0.00000000  0.00000000  1
  Al  Al10  1  0.54553900  0.92515800  0.75000000  1
  Al  Al11  1  0.04553900  0.57484200  0.75000000  1
  Al  Al12  1  0.49708200  0.00000000  0.50000000  1
  Al  Al13  1  0.99708200  0.50000000  0.50000000  1
  Al  Al14  1  0.04553900  0.42515800  0.25000000  1
  Al  Al15  1  0.54553900  0.07484200  0.25000000  1
  O  O16  1  0.24811200  0.74756500  0.51061200  1
  O  O17  1  0.74811200  0.75243500  0.98938800  1
  O  O18  1  0.74811200  0.75243500  0.51061200  1
  O  O19  1  0.24811200  0.74756500  0.98938800  1
  O  O20  1  0.88155600  0.86303900  0.75000000  1
  O  O21  1  0.38155600  0.63696100  0.75000000  1
  O  O22  1  0.48149800  0.05748400  0.85847900  1
  O  O23  1  0.98149800  0.44251600  0.64152100  1
  O  O24  1  0.48149800  0.05748400  0.64152100  1
  O  O25  1  0.98149800  0.44251600  0.85847900  1
  O  O26  1  0.74811200  0.24756500  0.01061200  1
  O  O27  1  0.24811200  0.25243500  0.48938800  1
  O  O28  1  0.24811200  0.25243500  0.01061200  1
  O  O29  1  0.74811200  0.24756500  0.48938800  1
  O  O30  1  0.38155600  0.36303900  0.25000000  1
  O  O31  1  0.88155600  0.13696100  0.25000000  1
  O  O32  1  0.98149800  0.55748400  0.35847900  1
  O  O33  1  0.48149800  0.94251600  0.14152100  1
  O  O34  1  0.98149800  0.55748400  0.14152100  1
  O  O35  1  0.48149800  0.94251600  0.35847900  1
