# generated using pymatgen
data_Na4Hf2(GeO4)3
_symmetry_space_group_name_H-M   'P 1'
_cell_length_a   9.52840754
_cell_length_b   9.52840754
_cell_length_c   22.63423255
_cell_angle_alpha   90.00000000
_cell_angle_beta   90.00000000
_cell_angle_gamma   120.00000000
_symmetry_Int_Tables_number   1
_chemical_formula_structural   Na4Hf2(GeO4)3
_chemical_formula_sum   'Na24 Hf12 Ge18 O72'
_cell_volume   1779.66005791
_cell_formula_units_Z   6
loop_
 _symmetry_equiv_pos_site_id
 _symmetry_equiv_pos_as_xyz
  1  'x, y, z'
loop_
 _atom_site_type_symbol
 _atom_site_label
 _atom_site_symmetry_multiplicity
 _atom_site_fract_x
 _atom_site_fract_y
 _atom_site_fract_z
 _atom_site_occupancy
  Na  Na0  1  0.00000000  0.00000000  0.00000000  1
  Na  Na1  1  0.28751267  0.33333333  0.08333333  1
  Na  Na2  1  0.04582067  0.71248733  0.08333333  1
  Na  Na3  1  0.66666667  0.95417933  0.08333333  1
  Na  Na4  1  0.00000000  0.37915400  0.25000000  1
  Na  Na5  1  0.62084600  0.62084600  0.25000000  1
  Na  Na6  1  0.33333333  0.66666667  0.16666667  1
  Na  Na7  1  0.37915400  0.00000000  0.25000000  1
  Na  Na8  1  0.66666667  0.33333333  0.33333333  1
  Na  Na9  1  0.95417933  0.66666667  0.41666667  1
  Na  Na10  1  0.71248733  0.04582067  0.41666667  1
  Na  Na11  1  0.33333333  0.28751267  0.41666667  1
  Na  Na12  1  0.66666667  0.71248733  0.58333333  1
  Na  Na13  1  0.28751267  0.95417933  0.58333333  1
  Na  Na14  1  0.00000000  0.00000000  0.50000000  1
  Na  Na15  1  0.04582067  0.33333333  0.58333333  1
  Na  Na16  1  0.33333333  0.66666667  0.66666667  1
  Na  Na17  1  0.62084600  0.00000000  0.75000000  1
  Na  Na18  1  0.37915400  0.37915400  0.75000000  1
  Na  Na19  1  0.00000000  0.62084600  0.75000000  1
  Na  Na20  1  0.33333333  0.04582067  0.91666667  1
  Na  Na21  1  0.95417933  0.28751267  0.91666667  1
  Na  Na22  1  0.66666667  0.33333333  0.83333333  1
  Na  Na23  1  0.71248733  0.66666667  0.91666667  1
  Hf  Hf24  1  0.33333333  0.66666667  0.02281167  1
  Hf  Hf25  1  0.33333333  0.66666667  0.52281167  1
  Hf  Hf26  1  0.33333333  0.66666667  0.31052167  1
  Hf  Hf27  1  0.33333333  0.66666667  0.81052167  1
  Hf  Hf28  1  0.00000000  0.00000000  0.35614500  1
  Hf  Hf29  1  0.00000000  0.00000000  0.85614500  1
  Hf  Hf30  1  0.00000000  0.00000000  0.64385500  1
  Hf  Hf31  1  1.00000000  0.00000000  0.14385500  1
  Hf  Hf32  1  0.66666667  0.33333333  0.68947833  1
  Hf  Hf33  1  0.66666667  0.33333333  0.18947833  1
  Hf  Hf34  1  0.66666667  0.33333333  0.97718833  1
  Hf  Hf35  1  0.66666667  0.33333333  0.47718833  1
  Ge  Ge36  1  0.70731100  0.00000000  0.25000000  1
  Ge  Ge37  1  0.66666667  0.62602233  0.08333333  1
  Ge  Ge38  1  0.00000000  0.70731100  0.25000000  1
  Ge  Ge39  1  0.95935567  0.33333333  0.08333333  1
  Ge  Ge40  1  0.37397767  0.04064433  0.08333333  1
  Ge  Ge41  1  0.29268900  0.29268900  0.25000000  1
  Ge  Ge42  1  0.37397767  0.33333333  0.58333333  1
  Ge  Ge43  1  0.33333333  0.95935567  0.41666667  1
  Ge  Ge44  1  0.66666667  0.04064433  0.58333333  1
  Ge  Ge45  1  0.62602233  0.66666667  0.41666667  1
  Ge  Ge46  1  0.04064433  0.37397767  0.41666667  1
  Ge  Ge47  1  0.95935567  0.62602233  0.58333333  1
  Ge  Ge48  1  0.04064433  0.66666667  0.91666667  1
  Ge  Ge49  1  0.00000000  0.29268900  0.75000000  1
  Ge  Ge50  1  0.33333333  0.37397767  0.91666667  1
  Ge  Ge51  1  0.29268900  0.00000000  0.75000000  1
  Ge  Ge52  1  0.70731100  0.70731100  0.75000000  1
  Ge  Ge53  1  0.62602233  0.95935567  0.91666667  1
  O  O54  1  0.35326700  0.86307400  0.35333200  1
  O  O55  1  0.13692600  0.49019300  0.35333200  1
  O  O56  1  0.50980700  0.64673300  0.35333200  1
  O  O57  1  0.64673300  0.50980700  0.14666800  1
  O  O58  1  0.49019300  0.13692600  0.14666800  1
  O  O59  1  0.86307400  0.35326700  0.14666800  1
  O  O60  1  0.31339967  0.47025933  0.98000133  1
  O  O61  1  0.52974067  0.84314033  0.98000133  1
  O  O62  1  0.15685967  0.68660033  0.98000133  1
  O  O63  1  0.01993367  0.82352633  0.18666533  1
  O  O64  1  0.17647367  0.19640733  0.18666533  1
  O  O65  1  0.80359267  0.98006633  0.18666533  1
  O  O66  1  0.17502800  0.68783100  0.24904300  1
  O  O67  1  0.31216900  0.48719700  0.24904300  1
  O  O68  1  0.51280300  0.82497200  0.24904300  1
  O  O69  1  0.82497200  0.51280300  0.25095700  1
  O  O70  1  0.48719700  0.31216900  0.25095700  1
  O  O71  1  0.68783100  0.17502800  0.25095700  1
  O  O72  1  0.97883567  0.15830533  0.08237633  1
  O  O73  1  0.17946967  0.02116433  0.08237633  1
  O  O74  1  0.84169467  0.82053033  0.08237633  1
  O  O75  1  0.15386367  0.50836133  0.08429033  1
  O  O76  1  0.35449767  0.84613633  0.08429033  1
  O  O77  1  0.49163867  0.64550233  0.08429033  1
  O  O78  1  0.01993367  0.19640733  0.68666533  1
  O  O79  1  0.80359267  0.82352633  0.68666533  1
  O  O80  1  0.17647367  0.98006633  0.68666533  1
  O  O81  1  0.31339967  0.84314033  0.48000133  1
  O  O82  1  0.15685967  0.47025933  0.48000133  1
  O  O83  1  0.52974067  0.68660033  0.48000133  1
  O  O84  1  0.98006633  0.80359267  0.31333467  1
  O  O85  1  0.19640733  0.17647367  0.31333467  1
  O  O86  1  0.82352633  0.01993367  0.31333467  1
  O  O87  1  0.68660033  0.15685967  0.51999867  1
  O  O88  1  0.84314033  0.52974067  0.51999867  1
  O  O89  1  0.47025933  0.31339967  0.51999867  1
  O  O90  1  0.84169467  0.02116433  0.58237633  1
  O  O91  1  0.97883567  0.82053033  0.58237633  1
  O  O92  1  0.17946967  0.15830533  0.58237633  1
  O  O93  1  0.49163867  0.84613633  0.58429033  1
  O  O94  1  0.15386367  0.64550233  0.58429033  1
  O  O95  1  0.35449767  0.50836133  0.58429033  1
  O  O96  1  0.64550233  0.49163867  0.41570967  1
  O  O97  1  0.84613633  0.35449767  0.41570967  1
  O  O98  1  0.50836133  0.15386367  0.41570967  1
  O  O99  1  0.82053033  0.84169467  0.41762367  1
  O  O100  1  0.02116433  0.17946967  0.41762367  1
  O  O101  1  0.15830533  0.97883567  0.41762367  1
  O  O102  1  0.68660033  0.52974067  0.01999867  1
  O  O103  1  0.47025933  0.15685967  0.01999867  1
  O  O104  1  0.84314033  0.31339967  0.01999867  1
  O  O105  1  0.98006633  0.17647367  0.81333467  1
  O  O106  1  0.82352633  0.80359267  0.81333467  1
  O  O107  1  0.19640733  0.01993367  0.81333467  1
  O  O108  1  0.64673300  0.13692600  0.64666800  1
  O  O109  1  0.86307400  0.50980700  0.64666800  1
  O  O110  1  0.49019300  0.35326700  0.64666800  1
  O  O111  1  0.35326700  0.49019300  0.85333200  1
  O  O112  1  0.50980700  0.86307400  0.85333200  1
  O  O113  1  0.13692600  0.64673300  0.85333200  1
  O  O114  1  0.50836133  0.35449767  0.91570967  1
  O  O115  1  0.64550233  0.15386367  0.91570967  1
  O  O116  1  0.84613633  0.49163867  0.91570967  1
  O  O117  1  0.15830533  0.17946967  0.91762367  1
  O  O118  1  0.82053033  0.97883567  0.91762367  1
  O  O119  1  0.02116433  0.84169467  0.91762367  1
  O  O120  1  0.31216900  0.82497200  0.74904300  1
  O  O121  1  0.51280300  0.68783100  0.74904300  1
  O  O122  1  0.17502800  0.48719700  0.74904300  1
  O  O123  1  0.48719700  0.17502800  0.75095700  1
  O  O124  1  0.68783100  0.51280300  0.75095700  1
  O  O125  1  0.82497200  0.31216900  0.75095700  1
