# generated using pymatgen
data_CsNdTe2
_symmetry_space_group_name_H-M   'P 1'
_cell_length_a   4.68329593
_cell_length_b   4.68329593
_cell_length_c   26.85864313
_cell_angle_alpha   90.00000000
_cell_angle_beta   90.00000000
_cell_angle_gamma   120.00000000
_symmetry_Int_Tables_number   1
_chemical_formula_structural   CsNdTe2
_chemical_formula_sum   'Cs3 Nd3 Te6'
_cell_volume   510.17350804
_cell_formula_units_Z   3
loop_
 _symmetry_equiv_pos_site_id
 _symmetry_equiv_pos_as_xyz
  1  'x, y, z'
loop_
 _atom_site_type_symbol
 _atom_site_label
 _atom_site_symmetry_multiplicity
 _atom_site_fract_x
 _atom_site_fract_y
 _atom_site_fract_z
 _atom_site_occupancy
  Cs  Cs0  1  0.33333333  0.66666667  0.16666667  1
  Cs  Cs1  1  1.00000000  1.00000000  0.50000000  1
  Cs  Cs2  1  0.66666667  0.33333333  0.83333333  1
  Nd  Nd3  1  0.00000000  0.00000000  0.00000000  1
  Nd  Nd4  1  0.66666667  0.33333333  0.33333333  1
  Nd  Nd5  1  0.33333333  0.66666667  0.66666667  1
  Te  Te6  1  0.66666667  0.33333333  0.06492933  1
  Te  Te7  1  0.00000000  0.00000000  0.26840400  1
  Te  Te8  1  0.33333333  0.66666667  0.39826267  1
  Te  Te9  1  0.66666667  0.33333333  0.60173733  1
  Te  Te10  1  0.00000000  0.00000000  0.73159600  1
  Te  Te11  1  0.33333333  0.66666667  0.93507067  1
