# generated using pymatgen
data_Ba3(SiAs2)2
_symmetry_space_group_name_H-M   'P 1'
_cell_length_a   9.67967200
_cell_length_b   17.70527200
_cell_length_c   7.83271010
_cell_angle_alpha   90.00000000
_cell_angle_beta   122.67545703
_cell_angle_gamma   90.00000000
_symmetry_Int_Tables_number   1
_chemical_formula_structural   Ba3(SiAs2)2
_chemical_formula_sum   'Ba12 Si8 As16'
_cell_volume   1129.93732909
_cell_formula_units_Z   4
loop_
 _symmetry_equiv_pos_site_id
 _symmetry_equiv_pos_as_xyz
  1  'x, y, z'
loop_
 _atom_site_type_symbol
 _atom_site_label
 _atom_site_symmetry_multiplicity
 _atom_site_fract_x
 _atom_site_fract_y
 _atom_site_fract_z
 _atom_site_occupancy
  Ba  Ba0  1  0.00000000  0.05780000  0.25000000  1
  Ba  Ba1  1  0.50000000  0.44220000  0.75000000  1
  Ba  Ba2  1  0.00000000  0.43541600  0.75000000  1
  Ba  Ba3  1  0.50000000  0.06458400  0.25000000  1
  Ba  Ba4  1  0.00000000  0.18969000  0.75000000  1
  Ba  Ba5  1  0.50000000  0.31031000  0.25000000  1
  Ba  Ba6  1  0.50000000  0.55780000  0.25000000  1
  Ba  Ba7  1  0.00000000  0.94220000  0.75000000  1
  Ba  Ba8  1  0.50000000  0.93541600  0.75000000  1
  Ba  Ba9  1  0.00000000  0.56458400  0.25000000  1
  Ba  Ba10  1  0.50000000  0.68969000  0.75000000  1
  Ba  Ba11  1  0.00000000  0.81031000  0.25000000  1
  Si  Si12  1  0.64779200  0.18177600  0.84342900  1
  Si  Si13  1  0.35220800  0.18177600  0.65657100  1
  Si  Si14  1  0.85220800  0.31822400  0.15657100  1
  Si  Si15  1  0.14779200  0.31822400  0.34342900  1
  Si  Si16  1  0.14779200  0.68177600  0.84342900  1
  Si  Si17  1  0.85220800  0.68177600  0.65657100  1
  Si  Si18  1  0.35220800  0.81822400  0.15657100  1
  Si  Si19  1  0.64779200  0.81822400  0.34342900  1
  As  As20  1  0.74730050  0.30177950  0.79651000  1
  As  As21  1  0.25269950  0.30177950  0.70349000  1
  As  As22  1  0.26111950  0.07266450  0.74577700  1
  As  As23  1  0.73888050  0.07266450  0.75422300  1
  As  As24  1  0.23888050  0.42733550  0.25422300  1
  As  As25  1  0.76111950  0.42733550  0.24577700  1
  As  As26  1  0.24730050  0.19822050  0.29651000  1
  As  As27  1  0.75269950  0.19822050  0.20349000  1
  As  As28  1  0.24730050  0.80177950  0.79651000  1
  As  As29  1  0.75269950  0.80177950  0.70349000  1
  As  As30  1  0.76111950  0.57266450  0.74577700  1
  As  As31  1  0.23888050  0.57266450  0.75422300  1
  As  As32  1  0.73888050  0.92733550  0.25422300  1
  As  As33  1  0.26111950  0.92733550  0.24577700  1
  As  As34  1  0.74730050  0.69822050  0.29651000  1
  As  As35  1  0.25269950  0.69822050  0.20349000  1
