# generated using pymatgen
data_CsPr(PO3)4
_symmetry_space_group_name_H-M   'P 1'
_cell_length_a   7.26237400
_cell_length_b   9.35403400
_cell_length_c   8.93772281
_cell_angle_alpha   90.00000000
_cell_angle_beta   99.49414544
_cell_angle_gamma   90.00000000
_symmetry_Int_Tables_number   1
_chemical_formula_structural   CsPr(PO3)4
_chemical_formula_sum   'Cs2 Pr2 P8 O24'
_cell_volume   598.84517247
_cell_formula_units_Z   2
loop_
 _symmetry_equiv_pos_site_id
 _symmetry_equiv_pos_as_xyz
  1  'x, y, z'
loop_
 _atom_site_type_symbol
 _atom_site_label
 _atom_site_symmetry_multiplicity
 _atom_site_fract_x
 _atom_site_fract_y
 _atom_site_fract_z
 _atom_site_occupancy
  Cs  Cs0  1  0.66987600  0.66908000  0.17266300  1
  Cs  Cs1  1  0.33012400  0.16908000  0.82733700  1
  Pr  Pr2  1  0.79965700  0.50386500  0.69776200  1
  Pr  Pr3  1  0.20034300  0.00386500  0.30223800  1
  P  P4  1  0.64502800  0.13009300  0.54306200  1
  P  P5  1  0.35497200  0.63009300  0.45693800  1
  P  P6  1  0.06150100  0.39457100  0.37553900  1
  P  P7  1  0.93849900  0.89457100  0.62446100  1
  P  P8  1  0.30768000  0.57751400  0.77326500  1
  P  P9  1  0.69232000  0.07751400  0.22673500  1
  P  P10  1  0.08417800  0.77905000  0.92776100  1
  P  P11  1  0.91582200  0.27905000  0.07223900  1
  O  O12  1  0.84785600  0.75141400  0.59434400  1
  O  O13  1  0.15214400  0.25141400  0.40565600  1
  O  O14  1  0.21286600  0.51765700  0.36221700  1
  O  O15  1  0.78713400  0.01765700  0.63778300  1
  O  O16  1  0.27476400  0.66105000  0.61208500  1
  O  O17  1  0.72523600  0.16105000  0.38791500  1
  O  O18  1  0.54200900  0.55897100  0.49146900  1
  O  O19  1  0.45799100  0.05897100  0.50853100  1
  O  O20  1  0.50885400  0.53425300  0.81658200  1
  O  O21  1  0.49114600  0.03425300  0.18341800  1
  O  O22  1  0.04626100  0.90293600  0.79964900  1
  O  O23  1  0.95373900  0.40293600  0.20035100  1
  O  O24  1  0.07378100  0.17344700  0.09162300  1
  O  O25  1  0.92621900  0.67344700  0.90837700  1
  O  O26  1  0.14167300  0.85194500  0.07579300  1
  O  O27  1  0.85832700  0.35194500  0.92420700  1
  O  O28  1  0.92677100  0.44872900  0.47210200  1
  O  O29  1  0.07322900  0.94872900  0.52789800  1
  O  O30  1  0.72483600  0.20601400  0.11275600  1
  O  O31  1  0.27516400  0.70601400  0.88724400  1
  O  O32  1  0.33777300  0.76551800  0.36682800  1
  O  O33  1  0.66222700  0.26551800  0.63317200  1
  O  O34  1  0.84307600  0.96713100  0.23039800  1
  O  O35  1  0.15692400  0.46713100  0.76960200  1
