# generated using pymatgen
data_Sr3HoRhO6
_symmetry_space_group_name_H-M   'P 1'
_cell_length_a   9.87312719
_cell_length_b   9.87312719
_cell_length_c   11.40465857
_cell_angle_alpha   90.00000000
_cell_angle_beta   90.00000000
_cell_angle_gamma   120.00000000
_symmetry_Int_Tables_number   1
_chemical_formula_structural   Sr3HoRhO6
_chemical_formula_sum   'Sr18 Ho6 Rh6 O36'
_cell_volume   962.76963332
_cell_formula_units_Z   6
loop_
 _symmetry_equiv_pos_site_id
 _symmetry_equiv_pos_as_xyz
  1  'x, y, z'
loop_
 _atom_site_type_symbol
 _atom_site_label
 _atom_site_symmetry_multiplicity
 _atom_site_fract_x
 _atom_site_fract_y
 _atom_site_fract_z
 _atom_site_occupancy
  Sr  Sr0  1  0.03546967  0.70213633  0.58333333  1
  Sr  Sr1  1  0.66666667  0.96453033  0.58333333  1
  Sr  Sr2  1  0.29786367  0.33333333  0.58333333  1
  Sr  Sr3  1  0.96453033  0.29786367  0.41666667  1
  Sr  Sr4  1  0.70213633  0.66666667  0.41666667  1
  Sr  Sr5  1  0.33333333  0.03546967  0.41666667  1
  Sr  Sr6  1  0.70213633  0.03546967  0.91666667  1
  Sr  Sr7  1  0.33333333  0.29786367  0.91666667  1
  Sr  Sr8  1  0.96453033  0.66666667  0.91666667  1
  Sr  Sr9  1  0.63119700  0.63119700  0.75000000  1
  Sr  Sr10  1  0.36880300  0.00000000  0.75000000  1
  Sr  Sr11  1  1.00000000  0.36880300  0.75000000  1
  Sr  Sr12  1  0.36880300  0.36880300  0.25000000  1
  Sr  Sr13  1  0.00000000  0.63119700  0.25000000  1
  Sr  Sr14  1  0.63119700  1.00000000  0.25000000  1
  Sr  Sr15  1  0.29786367  0.96453033  0.08333333  1
  Sr  Sr16  1  0.03546967  0.33333333  0.08333333  1
  Sr  Sr17  1  0.66666667  0.70213633  0.08333333  1
  Ho  Ho18  1  0.00000000  0.00000000  0.75000000  1
  Ho  Ho19  1  0.00000000  0.00000000  0.25000000  1
  Ho  Ho20  1  0.66666667  0.33333333  0.08333333  1
  Ho  Ho21  1  0.66666667  0.33333333  0.58333333  1
  Ho  Ho22  1  0.33333333  0.66666667  0.41666667  1
  Ho  Ho23  1  0.33333333  0.66666667  0.91666667  1
  Rh  Rh24  1  0.00000000  0.00000000  0.50000000  1
  Rh  Rh25  1  0.00000000  0.00000000  0.00000000  1
  Rh  Rh26  1  0.66666667  0.33333333  0.83333333  1
  Rh  Rh27  1  0.66666667  0.33333333  0.33333333  1
  Rh  Rh28  1  0.33333333  0.66666667  0.16666667  1
  Rh  Rh29  1  0.33333333  0.66666667  0.66666667  1
  O  O30  1  0.17856067  0.02219333  0.61361233  1
  O  O31  1  0.97780667  0.15636733  0.61361233  1
  O  O32  1  0.84363267  0.82143933  0.61361233  1
  O  O33  1  0.48970067  0.64447333  0.55305433  1
  O  O34  1  0.35552667  0.84522733  0.55305433  1
  O  O35  1  0.15477267  0.51029933  0.55305433  1
  O  O36  1  0.82143933  0.97780667  0.38638767  1
  O  O37  1  0.02219333  0.84363267  0.38638767  1
  O  O38  1  0.15636733  0.17856067  0.38638767  1
  O  O39  1  0.51029933  0.35552667  0.44694567  1
  O  O40  1  0.84522733  0.48970067  0.44694567  1
  O  O41  1  0.64447333  0.15477267  0.44694567  1
  O  O42  1  0.84522733  0.35552667  0.94694567  1
  O  O43  1  0.64447333  0.48970067  0.94694567  1
  O  O44  1  0.51029933  0.15477267  0.94694567  1
  O  O45  1  0.15636733  0.97780667  0.88638767  1
  O  O46  1  0.02219333  0.17856067  0.88638767  1
  O  O47  1  0.82143933  0.84363267  0.88638767  1
  O  O48  1  0.48810600  0.31114000  0.71972100  1
  O  O49  1  0.68886000  0.17696600  0.71972100  1
  O  O50  1  0.82303400  0.51189400  0.71972100  1
  O  O51  1  0.17696600  0.68886000  0.78027900  1
  O  O52  1  0.51189400  0.82303400  0.78027900  1
  O  O53  1  0.31114000  0.48810600  0.78027900  1
  O  O54  1  0.51189400  0.68886000  0.28027900  1
  O  O55  1  0.31114000  0.82303400  0.28027900  1
  O  O56  1  0.17696600  0.48810600  0.28027900  1
  O  O57  1  0.82303400  0.31114000  0.21972100  1
  O  O58  1  0.68886000  0.51189400  0.21972100  1
  O  O59  1  0.48810600  0.17696600  0.21972100  1
  O  O60  1  0.15477267  0.64447333  0.05305433  1
  O  O61  1  0.35552667  0.51029933  0.05305433  1
  O  O62  1  0.48970067  0.84522733  0.05305433  1
  O  O63  1  0.84363267  0.02219333  0.11361233  1
  O  O64  1  0.17856067  0.15636733  0.11361233  1
  O  O65  1  0.97780667  0.82143933  0.11361233  1
