# generated using pymatgen
data_Ba6Mg7F26
_symmetry_space_group_name_H-M   'P 1'
_cell_length_a   5.92149000
_cell_length_b   12.31461800
_cell_length_c   15.38574800
_cell_angle_alpha   90.00000000
_cell_angle_beta   90.00000000
_cell_angle_gamma   90.00000000
_symmetry_Int_Tables_number   1
_chemical_formula_structural   Ba6Mg7F26
_chemical_formula_sum   'Ba12 Mg14 F52'
_cell_volume   1121.94239656
_cell_formula_units_Z   2
loop_
 _symmetry_equiv_pos_site_id
 _symmetry_equiv_pos_as_xyz
  1  'x, y, z'
loop_
 _atom_site_type_symbol
 _atom_site_label
 _atom_site_symmetry_multiplicity
 _atom_site_fract_x
 _atom_site_fract_y
 _atom_site_fract_z
 _atom_site_occupancy
  Ba  Ba0  1  0.00000000  0.50000000  0.14719700  1
  Ba  Ba1  1  0.00000000  0.50000000  0.85280300  1
  Ba  Ba2  1  0.50000000  0.23828700  0.14908300  1
  Ba  Ba3  1  0.50000000  0.76171300  0.14908300  1
  Ba  Ba4  1  0.50000000  0.23828700  0.85091700  1
  Ba  Ba5  1  0.50000000  0.76171300  0.85091700  1
  Ba  Ba6  1  0.50000000  0.00000000  0.64719700  1
  Ba  Ba7  1  0.50000000  0.00000000  0.35280300  1
  Ba  Ba8  1  0.00000000  0.73828700  0.64908300  1
  Ba  Ba9  1  0.00000000  0.26171300  0.64908300  1
  Ba  Ba10  1  0.00000000  0.73828700  0.35091700  1
  Ba  Ba11  1  0.00000000  0.26171300  0.35091700  1
  Mg  Mg12  1  0.25264300  0.00000000  0.00000000  1
  Mg  Mg13  1  0.00000000  0.26852400  0.00000000  1
  Mg  Mg14  1  0.74735700  0.00000000  0.00000000  1
  Mg  Mg15  1  0.00000000  0.73147600  0.00000000  1
  Mg  Mg16  1  0.50000000  0.50000000  0.72054800  1
  Mg  Mg17  1  0.50000000  0.50000000  0.27945200  1
  Mg  Mg18  1  0.50000000  0.50000000  0.00000000  1
  Mg  Mg19  1  0.75264300  0.50000000  0.50000000  1
  Mg  Mg20  1  0.50000000  0.76852400  0.50000000  1
  Mg  Mg21  1  0.24735700  0.50000000  0.50000000  1
  Mg  Mg22  1  0.50000000  0.23147600  0.50000000  1
  Mg  Mg23  1  0.00000000  0.00000000  0.22054800  1
  Mg  Mg24  1  0.00000000  0.00000000  0.77945200  1
  Mg  Mg25  1  0.00000000  0.00000000  0.50000000  1
  F  F26  1  0.26827650  0.38652250  0.74221850  1
  F  F27  1  0.26827650  0.61347750  0.25778150  1
  F  F28  1  0.73172350  0.38652250  0.25778150  1
  F  F29  1  0.73172350  0.61347750  0.74221850  1
  F  F30  1  0.73172350  0.61347750  0.25778150  1
  F  F31  1  0.73172350  0.38652250  0.74221850  1
  F  F32  1  0.26827650  0.61347750  0.74221850  1
  F  F33  1  0.26827650  0.38652250  0.25778150  1
  F  F34  1  0.74919700  0.61186000  0.00000000  1
  F  F35  1  0.74919700  0.38814000  0.00000000  1
  F  F36  1  0.25080300  0.61186000  0.00000000  1
  F  F37  1  0.25080300  0.38814000  0.00000000  1
  F  F38  1  0.74426250  0.83655150  0.00000000  1
  F  F39  1  0.74426250  0.16344850  0.00000000  1
  F  F40  1  0.25573750  0.83655150  0.00000000  1
  F  F41  1  0.25573750  0.16344850  0.00000000  1
  F  F42  1  0.50000000  0.50000000  0.41092700  1
  F  F43  1  0.50000000  0.50000000  0.58907300  1
  F  F44  1  0.50000000  0.50000000  0.12945100  1
  F  F45  1  0.00000000  0.50000000  0.41250300  1
  F  F46  1  0.00000000  0.71796400  0.12594500  1
  F  F47  1  0.00000000  0.28203600  0.87405500  1
  F  F48  1  0.00000000  0.71796400  0.87405500  1
  F  F49  1  0.00000000  0.28203600  0.12594500  1
  F  F50  1  0.00000000  0.50000000  0.58749700  1
  F  F51  1  0.50000000  0.50000000  0.87054900  1
  F  F52  1  0.76827650  0.88652250  0.24221850  1
  F  F53  1  0.76827650  0.11347750  0.75778150  1
  F  F54  1  0.23172350  0.88652250  0.75778150  1
  F  F55  1  0.23172350  0.11347750  0.24221850  1
  F  F56  1  0.23172350  0.11347750  0.75778150  1
  F  F57  1  0.23172350  0.88652250  0.24221850  1
  F  F58  1  0.76827650  0.11347750  0.24221850  1
  F  F59  1  0.76827650  0.88652250  0.75778150  1
  F  F60  1  0.24919700  0.11186000  0.50000000  1
  F  F61  1  0.24919700  0.88814000  0.50000000  1
  F  F62  1  0.75080300  0.11186000  0.50000000  1
  F  F63  1  0.75080300  0.88814000  0.50000000  1
  F  F64  1  0.24426250  0.33655150  0.50000000  1
  F  F65  1  0.24426250  0.66344850  0.50000000  1
  F  F66  1  0.75573750  0.33655150  0.50000000  1
  F  F67  1  0.75573750  0.66344850  0.50000000  1
  F  F68  1  0.00000000  0.00000000  0.91092700  1
  F  F69  1  0.00000000  0.00000000  0.08907300  1
  F  F70  1  0.00000000  0.00000000  0.62945100  1
  F  F71  1  0.50000000  0.00000000  0.91250300  1
  F  F72  1  0.50000000  0.21796400  0.62594500  1
  F  F73  1  0.50000000  0.78203600  0.37405500  1
  F  F74  1  0.50000000  0.21796400  0.37405500  1
  F  F75  1  0.50000000  0.78203600  0.62594500  1
  F  F76  1  0.50000000  0.00000000  0.08749700  1
  F  F77  1  0.00000000  0.00000000  0.37054900  1
