# generated using pymatgen
data_LiFePO4
_symmetry_space_group_name_H-M   'P 1'
_cell_length_a   4.74644100
_cell_length_b   6.09022600
_cell_length_c   10.44373000
_cell_angle_alpha   90.00000000
_cell_angle_beta   90.00000000
_cell_angle_gamma   90.00000000
_symmetry_Int_Tables_number   1
_chemical_formula_structural   LiFePO4
_chemical_formula_sum   'Li4 Fe4 P4 O16'
_cell_volume   301.89584207
_cell_formula_units_Z   4
loop_
 _symmetry_equiv_pos_site_id
 _symmetry_equiv_pos_as_xyz
  1  'x, y, z'
loop_
 _atom_site_type_symbol
 _atom_site_label
 _atom_site_symmetry_multiplicity
 _atom_site_fract_x
 _atom_site_fract_y
 _atom_site_fract_z
 _atom_site_occupancy
  Li  Li0  1  0.00000000  0.00000000  0.50000000  1
  Li  Li1  1  0.50000000  0.00000000  0.00000000  1
  Li  Li2  1  0.50000000  0.50000000  0.00000000  1
  Li  Li3  1  0.00000000  0.50000000  0.50000000  1
  Fe  Fe4  1  0.47524700  0.75000000  0.71802350  1
  Fe  Fe5  1  0.02475300  0.75000000  0.21802350  1
  Fe  Fe6  1  0.97524700  0.25000000  0.78197650  1
  Fe  Fe7  1  0.52475300  0.25000000  0.28197650  1
  P  P8  1  0.41781600  0.25000000  0.59475450  1
  P  P9  1  0.91781600  0.75000000  0.90524550  1
  P  P10  1  0.08218400  0.25000000  0.09475450  1
  P  P11  1  0.58218400  0.75000000  0.40524550  1
  O  O12  1  0.74186600  0.25000000  0.59672250  1
  O  O13  1  0.24186600  0.75000000  0.90327750  1
  O  O14  1  0.75813400  0.25000000  0.09672250  1
  O  O15  1  0.25813400  0.75000000  0.40327750  1
  O  O16  1  0.20694600  0.25000000  0.95706850  1
  O  O17  1  0.70694600  0.75000000  0.54293150  1
  O  O18  1  0.29305400  0.25000000  0.45706850  1
  O  O19  1  0.79305400  0.75000000  0.04293150  1
  O  O20  1  0.28451200  0.04700300  0.66548750  1
  O  O21  1  0.78451200  0.95299700  0.83451250  1
  O  O22  1  0.78451200  0.54700300  0.83451250  1
  O  O23  1  0.28451200  0.45299700  0.66548750  1
  O  O24  1  0.21548800  0.45299700  0.16548750  1
  O  O25  1  0.71548800  0.54700300  0.33451250  1
  O  O26  1  0.71548800  0.95299700  0.33451250  1
  O  O27  1  0.21548800  0.04700300  0.16548750  1
