# generated using pymatgen
data_BaCu2GeS4
_symmetry_space_group_name_H-M   'P 1'
_cell_length_a   6.27703272
_cell_length_b   6.27703272
_cell_length_c   15.55798300
_cell_angle_alpha   90.00000000
_cell_angle_beta   90.00000000
_cell_angle_gamma   120.00000000
_symmetry_Int_Tables_number   1
_chemical_formula_structural   BaCu2GeS4
_chemical_formula_sum   'Ba3 Cu6 Ge3 S12'
_cell_volume   530.87553152
_cell_formula_units_Z   3
loop_
 _symmetry_equiv_pos_site_id
 _symmetry_equiv_pos_as_xyz
  1  'x, y, z'
loop_
 _atom_site_type_symbol
 _atom_site_label
 _atom_site_symmetry_multiplicity
 _atom_site_fract_x
 _atom_site_fract_y
 _atom_site_fract_z
 _atom_site_occupancy
  Ba  Ba0  1  0.43187500  0.43187500  0.50000000  1
  Ba  Ba1  1  0.00000000  0.56812500  0.16666667  1
  Ba  Ba2  1  0.56812500  0.00000000  0.83333333  1
  Cu  Cu3  1  0.35431500  0.42340400  0.74429700  1
  Cu  Cu4  1  0.93091100  0.57659600  0.92236967  1
  Cu  Cu5  1  0.42340400  0.35431500  0.25570300  1
  Cu  Cu6  1  0.06908900  0.64568500  0.41096367  1
  Cu  Cu7  1  0.57659600  0.93091100  0.07763033  1
  Cu  Cu8  1  0.64568500  0.06908900  0.58903633  1
  Ge  Ge9  1  0.71083400  0.00000000  0.33333333  1
  Ge  Ge10  1  0.00000000  0.71083400  0.66666667  1
  Ge  Ge11  1  0.28916600  0.28916600  0.00000000  1
  S  S12  1  0.76295300  0.66769600  0.33165000  1
  S  S13  1  0.90474300  0.23704700  0.99831667  1
  S  S14  1  0.33230400  0.09525700  0.66498333  1
  S  S15  1  0.09525700  0.33230400  0.33501667  1
  S  S16  1  0.23704700  0.90474300  0.00168333  1
  S  S17  1  0.66769600  0.76295300  0.66835000  1
  S  S18  1  0.95301800  0.46788500  0.55233500  1
  S  S19  1  0.51486700  0.04698200  0.21900167  1
  S  S20  1  0.04698200  0.51486700  0.78099833  1
  S  S21  1  0.46788500  0.95301800  0.44766500  1
  S  S22  1  0.48513300  0.53211500  0.11433167  1
  S  S23  1  0.53211500  0.48513300  0.88566833  1
