# generated using pymatgen
data_LiZnAsO4
_symmetry_space_group_name_H-M   'P 1'
_cell_length_a   14.33108900
_cell_length_b   14.33108900
_cell_length_c   9.55106275
_cell_angle_alpha   90.00000000
_cell_angle_beta   90.00000000
_cell_angle_gamma   120.00000000
_symmetry_Int_Tables_number   1
_chemical_formula_structural   LiZnAsO4
_chemical_formula_sum   'Li18 Zn18 As18 O72'
_cell_volume   1698.79399289
_cell_formula_units_Z   18
loop_
 _symmetry_equiv_pos_site_id
 _symmetry_equiv_pos_as_xyz
  1  'x, y, z'
loop_
 _atom_site_type_symbol
 _atom_site_label
 _atom_site_symmetry_multiplicity
 _atom_site_fract_x
 _atom_site_fract_y
 _atom_site_fract_z
 _atom_site_occupancy
  Li  Li0  1  0.14102800  0.45796100  0.52447300  1
  Li  Li1  1  0.78704367  0.97894233  0.35946433  1
  Li  Li2  1  0.19189867  0.21295633  0.35946433  1
  Li  Li3  1  0.02105767  0.80810133  0.35946433  1
  Li  Li4  1  0.31693300  0.85897200  0.52447300  1
  Li  Li5  1  0.54203900  0.68306700  0.52447300  1
  Li  Li6  1  0.80769467  0.79129433  0.85780633  1
  Li  Li7  1  0.45371033  0.31227567  0.69279767  1
  Li  Li8  1  0.85856533  0.54628967  0.69279767  1
  Li  Li9  1  0.68772433  0.14143467  0.69279767  1
  Li  Li10  1  0.98359967  0.19230533  0.85780633  1
  Li  Li11  1  0.20870567  0.01640033  0.85780633  1
  Li  Li12  1  0.47436133  0.12462767  0.19113967  1
  Li  Li13  1  0.12037700  0.64560900  0.02613100  1
  Li  Li14  1  0.52523200  0.87962300  0.02613100  1
  Li  Li15  1  0.35439100  0.47476800  0.02613100  1
  Li  Li16  1  0.65026633  0.52563867  0.19113967  1
  Li  Li17  1  0.87537233  0.34973367  0.19113967  1
  Zn  Zn18  1  0.80826933  0.78684867  0.52658367  1
  Zn  Zn19  1  0.97857933  0.19173067  0.52658367  1
  Zn  Zn20  1  0.21315133  0.02142067  0.52658367  1
  Zn  Zn21  1  0.45771700  0.31699700  0.36020400  1
  Zn  Zn22  1  0.85928000  0.54228300  0.36020400  1
  Zn  Zn23  1  0.68300300  0.14072000  0.36020400  1
  Zn  Zn24  1  0.47493600  0.12018200  0.85991700  1
  Zn  Zn25  1  0.64524600  0.52506400  0.85991700  1
  Zn  Zn26  1  0.87981800  0.35475400  0.85991700  1
  Zn  Zn27  1  0.12438367  0.65033033  0.69353733  1
  Zn  Zn28  1  0.52594667  0.87561633  0.69353733  1
  Zn  Zn29  1  0.34966967  0.47405333  0.69353733  1
  Zn  Zn30  1  0.14160267  0.45351533  0.19325033  1
  Zn  Zn31  1  0.31191267  0.85839733  0.19325033  1
  Zn  Zn32  1  0.54648467  0.68808733  0.19325033  1
  Zn  Zn33  1  0.79105033  0.98366367  0.02687067  1
  Zn  Zn34  1  0.19261333  0.20894967  0.02687067  1
  Zn  Zn35  1  0.01633633  0.80738667  0.02687067  1
  As  As36  1  0.01638933  0.80409167  0.69228067  1
  As  As37  1  0.78770233  0.98361067  0.69228067  1
  As  As38  1  0.19590833  0.21229767  0.69228067  1
  As  As39  1  0.46929433  0.12206567  0.52512367  1
  As  As40  1  0.65277133  0.53070567  0.52512367  1
  As  As41  1  0.87793433  0.34722867  0.52512367  1
  As  As42  1  0.68305600  0.13742500  0.02561400  1
  As  As43  1  0.45436900  0.31694400  0.02561400  1
  As  As44  1  0.86257500  0.54563100  0.02561400  1
  As  As45  1  0.13596100  0.45539900  0.85845700  1
  As  As46  1  0.31943800  0.86403900  0.85845700  1
  As  As47  1  0.54460100  0.68056200  0.85845700  1
  As  As48  1  0.34972267  0.47075833  0.35894733  1
  As  As49  1  0.12103567  0.65027733  0.35894733  1
  As  As50  1  0.52924167  0.87896433  0.35894733  1
  As  As51  1  0.80262767  0.78873233  0.19179033  1
  As  As52  1  0.98610467  0.19737233  0.19179033  1
  As  As53  1  0.21126767  0.01389533  0.19179033  1
  O  O54  1  0.88833000  0.78667800  0.69351800  1
  O  O55  1  0.89834800  0.11167000  0.69351800  1
  O  O56  1  0.21332200  0.10165200  0.69351800  1
  O  O57  1  0.25547467  0.79505933  0.70885933  1
  O  O58  1  0.53958467  0.74452533  0.70885933  1
  O  O59  1  0.20494067  0.46041533  0.70885933  1
  O  O60  1  0.76849700  0.21804500  0.52550200  1
  O  O61  1  0.78195500  0.55045200  0.52550200  1
  O  O62  1  0.33532500  0.34415100  0.35661300  1
  O  O63  1  0.44954800  0.23150300  0.52550200  1
  O  O64  1  0.65584900  0.99117400  0.35661300  1
  O  O65  1  0.00882600  0.66467500  0.35661300  1
  O  O66  1  0.12519600  0.20883100  0.54450200  1
  O  O67  1  0.79116900  0.91636500  0.54450200  1
  O  O68  1  0.08363500  0.87480400  0.54450200  1
  O  O69  1  0.12768700  0.20818100  0.84307500  1
  O  O70  1  0.79181900  0.91950600  0.84307500  1
  O  O71  1  0.08049400  0.87231300  0.84307500  1
  O  O72  1  0.34435767  0.00751733  0.52697933  1
  O  O73  1  0.99248267  0.33684033  0.52697933  1
  O  O74  1  0.66315967  0.65564233  0.52697933  1
  O  O75  1  0.20659000  0.08074100  0.33992200  1
  O  O76  1  0.91925900  0.12584900  0.33992200  1
  O  O77  1  0.87415100  0.79341000  0.33992200  1
  O  O78  1  0.55499667  0.12001133  0.02685133  1
  O  O79  1  0.56501467  0.44500333  0.02685133  1
  O  O80  1  0.87998867  0.43498533  0.02685133  1
  O  O81  1  0.92214133  0.12839267  0.04219267  1
  O  O82  1  0.20625133  0.07785867  0.04219267  1
  O  O83  1  0.87160733  0.79374867  0.04219267  1
  O  O84  1  0.43516367  0.55137833  0.85883533  1
  O  O85  1  0.44862167  0.88378533  0.85883533  1
  O  O86  1  0.00199167  0.67748433  0.68994633  1
  O  O87  1  0.11621467  0.56483633  0.85883533  1
  O  O88  1  0.32251567  0.32450733  0.68994633  1
  O  O89  1  0.67549267  0.99800833  0.68994633  1
  O  O90  1  0.79186267  0.54216433  0.87783533  1
  O  O91  1  0.45783567  0.24969833  0.87783533  1
  O  O92  1  0.75030167  0.20813733  0.87783533  1
  O  O93  1  0.79435367  0.54151433  0.17640833  1
  O  O94  1  0.45848567  0.25283933  0.17640833  1
  O  O95  1  0.74716067  0.20564633  0.17640833  1
  O  O96  1  0.01102433  0.34085067  0.86031267  1
  O  O97  1  0.65914933  0.67017367  0.86031267  1
  O  O98  1  0.32982633  0.98897567  0.86031267  1
  O  O99  1  0.87325667  0.41407433  0.67325533  1
  O  O100  1  0.58592567  0.45918233  0.67325533  1
  O  O101  1  0.54081767  0.12674333  0.67325533  1
  O  O102  1  0.22166333  0.45334467  0.36018467  1
  O  O103  1  0.23168133  0.77833667  0.36018467  1
  O  O104  1  0.54665533  0.76831867  0.36018467  1
  O  O105  1  0.58880800  0.46172600  0.37552600  1
  O  O106  1  0.87291800  0.41119200  0.37552600  1
  O  O107  1  0.53827400  0.12708200  0.37552600  1
  O  O108  1  0.10183033  0.88471167  0.19216867  1
  O  O109  1  0.11528833  0.21711867  0.19216867  1
  O  O110  1  0.66865833  0.01081767  0.02327967  1
  O  O111  1  0.78288133  0.89816967  0.19216867  1
  O  O112  1  0.98918233  0.65784067  0.02327967  1
  O  O113  1  0.34215933  0.33134167  0.02327967  1
  O  O114  1  0.45852933  0.87549767  0.21116867  1
  O  O115  1  0.12450233  0.58303167  0.21116867  1
  O  O116  1  0.41696833  0.54147067  0.21116867  1
  O  O117  1  0.46102033  0.87484767  0.50974167  1
  O  O118  1  0.12515233  0.58617267  0.50974167  1
  O  O119  1  0.41382733  0.53897967  0.50974167  1
  O  O120  1  0.67769100  0.67418400  0.19364600  1
  O  O121  1  0.32581600  0.00350700  0.19364600  1
  O  O122  1  0.99649300  0.32230900  0.19364600  1
  O  O123  1  0.53992333  0.74740767  0.00658867  1
  O  O124  1  0.25259233  0.79251567  0.00658867  1
  O  O125  1  0.20748433  0.46007667  0.00658867  1
