# generated using pymatgen
data_Sc2Te3
_symmetry_space_group_name_H-M   'P 1'
_cell_length_a   8.32272800
_cell_length_b   11.74939400
_cell_length_c   24.83492000
_cell_angle_alpha   90.00000000
_cell_angle_beta   90.00000000
_cell_angle_gamma   90.00000000
_symmetry_Int_Tables_number   1
_chemical_formula_structural   Sc2Te3
_chemical_formula_sum   'Sc32 Te48'
_cell_volume   2428.53258099
_cell_formula_units_Z   16
loop_
 _symmetry_equiv_pos_site_id
 _symmetry_equiv_pos_as_xyz
  1  'x, y, z'
loop_
 _atom_site_type_symbol
 _atom_site_label
 _atom_site_symmetry_multiplicity
 _atom_site_fract_x
 _atom_site_fract_y
 _atom_site_fract_z
 _atom_site_occupancy
  Sc  Sc0  1  0.75000000  0.75000000  0.33204900  1
  Sc  Sc1  1  0.75000000  0.75000000  0.16795100  1
  Sc  Sc2  1  0.50000000  0.00000000  0.41795100  1
  Sc  Sc3  1  0.00000000  0.00000000  0.08204900  1
  Sc  Sc4  1  0.75000000  0.75000000  0.00042700  1
  Sc  Sc5  1  0.75000000  0.75000000  0.49957300  1
  Sc  Sc6  1  0.00000000  0.00000000  0.24957300  1
  Sc  Sc7  1  0.50000000  0.00000000  0.25042700  1
  Sc  Sc8  1  0.75000000  0.25000000  0.83204900  1
  Sc  Sc9  1  0.75000000  0.25000000  0.66795100  1
  Sc  Sc10  1  0.50000000  0.50000000  0.91795100  1
  Sc  Sc11  1  0.00000000  0.50000000  0.58204900  1
  Sc  Sc12  1  0.75000000  0.25000000  0.50042700  1
  Sc  Sc13  1  0.75000000  0.25000000  0.99957300  1
  Sc  Sc14  1  0.00000000  0.50000000  0.74957300  1
  Sc  Sc15  1  0.50000000  0.50000000  0.75042700  1
  Sc  Sc16  1  0.25000000  0.75000000  0.83204900  1
  Sc  Sc17  1  0.25000000  0.75000000  0.66795100  1
  Sc  Sc18  1  0.00000000  0.00000000  0.91795100  1
  Sc  Sc19  1  0.50000000  0.00000000  0.58204900  1
  Sc  Sc20  1  0.25000000  0.75000000  0.50042700  1
  Sc  Sc21  1  0.25000000  0.75000000  0.99957300  1
  Sc  Sc22  1  0.50000000  0.00000000  0.74957300  1
  Sc  Sc23  1  0.00000000  0.00000000  0.75042700  1
  Sc  Sc24  1  0.25000000  0.25000000  0.33204900  1
  Sc  Sc25  1  0.25000000  0.25000000  0.16795100  1
  Sc  Sc26  1  0.00000000  0.50000000  0.41795100  1
  Sc  Sc27  1  0.50000000  0.50000000  0.08204900  1
  Sc  Sc28  1  0.25000000  0.25000000  0.00042700  1
  Sc  Sc29  1  0.25000000  0.25000000  0.49957300  1
  Sc  Sc30  1  0.50000000  0.50000000  0.24957300  1
  Sc  Sc31  1  0.00000000  0.50000000  0.25042700  1
  Te  Te32  1  0.50241800  0.25000000  0.25000000  1
  Te  Te33  1  0.99758200  0.25000000  0.25000000  1
  Te  Te34  1  0.74758200  0.00000000  0.00000000  1
  Te  Te35  1  0.25241800  0.00000000  0.00000000  1
  Te  Te36  1  0.00080500  0.25044500  0.41700600  1
  Te  Te37  1  0.50080500  0.74955500  0.08299400  1
  Te  Te38  1  0.49919500  0.25044500  0.08299400  1
  Te  Te39  1  0.99919500  0.74955500  0.41700600  1
  Te  Te40  1  0.74919500  0.99955500  0.33299400  1
  Te  Te41  1  0.24919500  0.00044500  0.16700600  1
  Te  Te42  1  0.75080500  0.99955500  0.16700600  1
  Te  Te43  1  0.25080500  0.00044500  0.33299400  1
  Te  Te44  1  0.50241800  0.75000000  0.75000000  1
  Te  Te45  1  0.99758200  0.75000000  0.75000000  1
  Te  Te46  1  0.74758200  0.50000000  0.50000000  1
  Te  Te47  1  0.25241800  0.50000000  0.50000000  1
  Te  Te48  1  0.00080500  0.75044500  0.91700600  1
  Te  Te49  1  0.50080500  0.24955500  0.58299400  1
  Te  Te50  1  0.49919500  0.75044500  0.58299400  1
  Te  Te51  1  0.99919500  0.24955500  0.91700600  1
  Te  Te52  1  0.74919500  0.49955500  0.83299400  1
  Te  Te53  1  0.24919500  0.50044500  0.66700600  1
  Te  Te54  1  0.75080500  0.49955500  0.66700600  1
  Te  Te55  1  0.25080500  0.50044500  0.83299400  1
  Te  Te56  1  0.00241800  0.25000000  0.75000000  1
  Te  Te57  1  0.49758200  0.25000000  0.75000000  1
  Te  Te58  1  0.24758200  0.00000000  0.50000000  1
  Te  Te59  1  0.75241800  0.00000000  0.50000000  1
  Te  Te60  1  0.50080500  0.25044500  0.91700600  1
  Te  Te61  1  0.00080500  0.74955500  0.58299400  1
  Te  Te62  1  0.99919500  0.25044500  0.58299400  1
  Te  Te63  1  0.49919500  0.74955500  0.91700600  1
  Te  Te64  1  0.24919500  0.99955500  0.83299400  1
  Te  Te65  1  0.74919500  0.00044500  0.66700600  1
  Te  Te66  1  0.25080500  0.99955500  0.66700600  1
  Te  Te67  1  0.75080500  0.00044500  0.83299400  1
  Te  Te68  1  0.00241800  0.75000000  0.25000000  1
  Te  Te69  1  0.49758200  0.75000000  0.25000000  1
  Te  Te70  1  0.24758200  0.50000000  0.00000000  1
  Te  Te71  1  0.75241800  0.50000000  0.00000000  1
  Te  Te72  1  0.50080500  0.75044500  0.41700600  1
  Te  Te73  1  0.00080500  0.24955500  0.08299400  1
  Te  Te74  1  0.99919500  0.75044500  0.08299400  1
  Te  Te75  1  0.49919500  0.24955500  0.41700600  1
  Te  Te76  1  0.24919500  0.49955500  0.33299400  1
  Te  Te77  1  0.74919500  0.50044500  0.16700600  1
  Te  Te78  1  0.25080500  0.49955500  0.16700600  1
  Te  Te79  1  0.75080500  0.50044500  0.33299400  1
