# generated using pymatgen
data_Sr2MnWO6
_symmetry_space_group_name_H-M   'P 1'
_cell_length_a   5.74659981
_cell_length_b   5.79004100
_cell_length_c   9.94953970
_cell_angle_alpha   90.00000000
_cell_angle_beta   125.20376425
_cell_angle_gamma   90.00000000
_symmetry_Int_Tables_number   1
_chemical_formula_structural   Sr2MnWO6
_chemical_formula_sum   'Sr4 Mn2 W2 O12'
_cell_volume   270.50452054
_cell_formula_units_Z   2
loop_
 _symmetry_equiv_pos_site_id
 _symmetry_equiv_pos_as_xyz
  1  'x, y, z'
loop_
 _atom_site_type_symbol
 _atom_site_label
 _atom_site_symmetry_multiplicity
 _atom_site_fract_x
 _atom_site_fract_y
 _atom_site_fract_z
 _atom_site_occupancy
  Sr  Sr0  1  0.75529200  0.96783400  0.74925800  1
  Sr  Sr1  1  0.24470800  0.46783400  0.75074200  1
  Sr  Sr2  1  0.75529200  0.53216600  0.24925800  1
  Sr  Sr3  1  0.24470800  0.03216600  0.25074200  1
  Mn  Mn4  1  0.50000000  0.00000000  0.00000000  1
  Mn  Mn5  1  0.50000000  0.50000000  0.50000000  1
  W  W6  1  0.00000000  0.50000000  0.00000000  1
  W  W7  1  0.00000000  0.00000000  0.50000000  1
  O  O8  1  0.83890000  0.72984500  0.53795600  1
  O  O9  1  0.16110000  0.22984500  0.96204400  1
  O  O10  1  0.16110000  0.27015500  0.46204400  1
  O  O11  1  0.83890000  0.77015500  0.03795600  1
  O  O12  1  0.23493400  0.79815900  0.46556700  1
  O  O13  1  0.76506600  0.29815900  0.03443300  1
  O  O14  1  0.76506600  0.20184100  0.53443300  1
  O  O15  1  0.23493400  0.70184100  0.96556700  1
  O  O16  1  0.69553100  0.98285000  0.26449300  1
  O  O17  1  0.30446900  0.48285000  0.23550700  1
  O  O18  1  0.30446900  0.01715000  0.73550700  1
  O  O19  1  0.69553100  0.51715000  0.76449300  1
