# generated using pymatgen
data_Lu2O3
_symmetry_space_group_name_H-M   'P 1'
_cell_length_a   3.56783993
_cell_length_b   3.56783993
_cell_length_c   5.76748600
_cell_angle_alpha   90.00000000
_cell_angle_beta   90.00000000
_cell_angle_gamma   120.00000000
_symmetry_Int_Tables_number   1
_chemical_formula_structural   Lu2O3
_chemical_formula_sum   'Lu2 O3'
_cell_volume   63.58108062
_cell_formula_units_Z   1
loop_
 _symmetry_equiv_pos_site_id
 _symmetry_equiv_pos_as_xyz
  1  'x, y, z'
loop_
 _atom_site_type_symbol
 _atom_site_label
 _atom_site_symmetry_multiplicity
 _atom_site_fract_x
 _atom_site_fract_y
 _atom_site_fract_z
 _atom_site_occupancy
  Lu  Lu0  1  0.66666667  0.33333333  0.74947300  1
  Lu  Lu1  1  0.33333333  0.66666667  0.25052700  1
  O  O2  1  0.66666667  0.33333333  0.35397300  1
  O  O3  1  0.33333333  0.66666667  0.64602700  1
  O  O4  1  0.00000000  0.00000000  0.00000000  1
