# generated using pymatgen
data_TiMnO3
_symmetry_space_group_name_H-M   'P 1'
_cell_length_a   5.25334573
_cell_length_b   5.25334573
_cell_length_c   13.99563187
_cell_angle_alpha   90.00000000
_cell_angle_beta   90.00000000
_cell_angle_gamma   120.00000000
_symmetry_Int_Tables_number   1
_chemical_formula_structural   TiMnO3
_chemical_formula_sum   'Ti6 Mn6 O18'
_cell_volume   334.49921976
_cell_formula_units_Z   6
loop_
 _symmetry_equiv_pos_site_id
 _symmetry_equiv_pos_as_xyz
  1  'x, y, z'
loop_
 _atom_site_type_symbol
 _atom_site_label
 _atom_site_symmetry_multiplicity
 _atom_site_fract_x
 _atom_site_fract_y
 _atom_site_fract_z
 _atom_site_occupancy
  Ti  Ti0  1  0.66666667  0.33333333  0.32904533  1
  Ti  Ti1  1  0.33333333  0.66666667  0.16237867  1
  Ti  Ti2  1  0.33333333  0.66666667  0.66237867  1
  Ti  Ti3  1  0.00000000  0.00000000  0.49571200  1
  Ti  Ti4  1  0.00000000  0.00000000  0.99571200  1
  Ti  Ti5  1  0.66666667  0.33333333  0.82904533  1
  Mn  Mn6  1  0.00000000  0.00000000  0.21771633  1
  Mn  Mn7  1  0.66666667  0.33333333  0.05104967  1
  Mn  Mn8  1  0.66666667  0.33333333  0.55104967  1
  Mn  Mn9  1  0.33333333  0.66666667  0.38438300  1
  Mn  Mn10  1  0.33333333  0.66666667  0.88438300  1
  Mn  Mn11  1  0.00000000  1.00000000  0.71771633  1
  O  O12  1  0.60988033  0.61764567  0.26810767  1
  O  O13  1  0.04902100  0.72345300  0.10144100  1
  O  O14  1  0.00776533  0.39011967  0.26810767  1
  O  O15  1  0.27654700  0.32556800  0.10144100  1
  O  O16  1  0.38235433  0.99223467  0.26810767  1
  O  O17  1  0.67443200  0.95097900  0.10144100  1
  O  O18  1  0.27654700  0.95097900  0.60144100  1
  O  O19  1  0.71568767  0.05678633  0.43477433  1
  O  O20  1  0.67443200  0.72345300  0.60144100  1
  O  O21  1  0.94321367  0.65890133  0.43477433  1
  O  O22  1  0.04902100  0.32556800  0.60144100  1
  O  O23  1  0.34109867  0.28431233  0.43477433  1
  O  O24  1  0.94321367  0.28431233  0.93477433  1
  O  O25  1  0.38235433  0.39011967  0.76810767  1
  O  O26  1  0.34109867  0.05678633  0.93477433  1
  O  O27  1  0.60988033  0.99223467  0.76810767  1
  O  O28  1  0.71568767  0.65890133  0.93477433  1
  O  O29  1  0.00776533  0.61764567  0.76810767  1
