# generated using pymatgen
data_HoP5O14
_symmetry_space_group_name_H-M   'P 1'
_cell_length_a   13.04610000
_cell_length_b   12.95286200
_cell_length_c   12.57842551
_cell_angle_alpha   90.00000000
_cell_angle_beta   91.56392706
_cell_angle_gamma   90.00000000
_symmetry_Int_Tables_number   1
_chemical_formula_structural   HoP5O14
_chemical_formula_sum   'Ho8 P40 O112'
_cell_volume   2124.76506644
_cell_formula_units_Z   8
loop_
 _symmetry_equiv_pos_site_id
 _symmetry_equiv_pos_as_xyz
  1  'x, y, z'
loop_
 _atom_site_type_symbol
 _atom_site_label
 _atom_site_symmetry_multiplicity
 _atom_site_fract_x
 _atom_site_fract_y
 _atom_site_fract_z
 _atom_site_occupancy
  Ho  Ho0  1  0.00000000  0.52050300  0.25000000  1
  Ho  Ho1  1  0.00000000  0.47949700  0.75000000  1
  Ho  Ho2  1  0.00000000  0.96616900  0.25000000  1
  Ho  Ho3  1  0.00000000  0.03383100  0.75000000  1
  Ho  Ho4  1  0.50000000  0.02050300  0.25000000  1
  Ho  Ho5  1  0.50000000  0.97949700  0.75000000  1
  Ho  Ho6  1  0.50000000  0.46616900  0.25000000  1
  Ho  Ho7  1  0.50000000  0.53383100  0.75000000  1
  P  P8  1  0.85417900  0.53002100  0.49872000  1
  P  P9  1  0.14582100  0.53002100  0.00128000  1
  P  P10  1  0.14582100  0.46997900  0.50128000  1
  P  P11  1  0.85417900  0.46997900  0.99872000  1
  P  P12  1  0.14778150  0.33014750  0.10706400  1
  P  P13  1  0.85221850  0.33014750  0.39293600  1
  P  P14  1  0.85221850  0.66985250  0.89293600  1
  P  P15  1  0.14778150  0.66985250  0.60706400  1
  P  P16  1  0.02300350  0.14931050  0.03413600  1
  P  P17  1  0.97699650  0.14931050  0.46586400  1
  P  P18  1  0.97699650  0.85068950  0.96586400  1
  P  P19  1  0.02300350  0.85068950  0.53413600  1
  P  P20  1  0.68287550  0.63377150  0.39012900  1
  P  P21  1  0.31712450  0.63377150  0.10987100  1
  P  P22  1  0.31712450  0.36622850  0.60987100  1
  P  P23  1  0.68287550  0.36622850  0.89012900  1
  P  P24  1  0.82315500  0.74733400  0.24191000  1
  P  P25  1  0.17684500  0.74733400  0.25809000  1
  P  P26  1  0.17684500  0.25266600  0.75809000  1
  P  P27  1  0.82315500  0.25266600  0.74191000  1
  P  P28  1  0.35417900  0.03002100  0.49872000  1
  P  P29  1  0.64582100  0.03002100  0.00128000  1
  P  P30  1  0.64582100  0.96997900  0.50128000  1
  P  P31  1  0.35417900  0.96997900  0.99872000  1
  P  P32  1  0.64778150  0.83014750  0.10706400  1
  P  P33  1  0.35221850  0.83014750  0.39293600  1
  P  P34  1  0.35221850  0.16985250  0.89293600  1
  P  P35  1  0.64778150  0.16985250  0.60706400  1
  P  P36  1  0.52300350  0.64931050  0.03413600  1
  P  P37  1  0.47699650  0.64931050  0.46586400  1
  P  P38  1  0.47699650  0.35068950  0.96586400  1
  P  P39  1  0.52300350  0.35068950  0.53413600  1
  P  P40  1  0.18287550  0.13377150  0.39012900  1
  P  P41  1  0.81712450  0.13377150  0.10987100  1
  P  P42  1  0.81712450  0.86622850  0.60987100  1
  P  P43  1  0.18287550  0.86622850  0.89012900  1
  P  P44  1  0.32315500  0.24733400  0.24191000  1
  P  P45  1  0.67684500  0.24733400  0.25809000  1
  P  P46  1  0.67684500  0.75266600  0.75809000  1
  P  P47  1  0.32315500  0.75266600  0.74191000  1
  O  O48  1  0.88759850  0.53351150  0.61190700  1
  O  O49  1  0.11240150  0.53351150  0.88809300  1
  O  O50  1  0.11240150  0.46648850  0.38809300  1
  O  O51  1  0.88759850  0.46648850  0.11190700  1
  O  O52  1  0.92180750  0.56276250  0.41109900  1
  O  O53  1  0.07819250  0.56276250  0.08890100  1
  O  O54  1  0.07819250  0.43723750  0.58890100  1
  O  O55  1  0.92180750  0.43723750  0.91109900  1
  O  O56  1  0.09006400  0.37209400  0.19644500  1
  O  O57  1  0.90993600  0.37209400  0.30355500  1
  O  O58  1  0.90993600  0.62790600  0.80355500  1
  O  O59  1  0.09006400  0.62790600  0.69644500  1
  O  O60  1  0.02499950  0.10405550  0.92613300  1
  O  O61  1  0.97500050  0.10405550  0.57386700  1
  O  O62  1  0.97500050  0.89594450  0.07386700  1
  O  O63  1  0.02499950  0.89594450  0.42613300  1
  O  O64  1  0.05788250  0.09210350  0.13164000  1
  O  O65  1  0.94211750  0.09210350  0.36836000  1
  O  O66  1  0.94211750  0.90789650  0.86836000  1
  O  O67  1  0.87122000  0.84826000  0.26894300  1
  O  O68  1  0.05788250  0.90789650  0.63164000  1
  O  O69  1  0.34782400  0.54815900  0.18123300  1
  O  O70  1  0.34782400  0.45184100  0.68123300  1
  O  O71  1  0.65217600  0.45184100  0.81876700  1
  O  O72  1  0.74456050  0.27545650  0.83833600  1
  O  O73  1  0.25543950  0.27545650  0.66166400  1
  O  O74  1  0.25543950  0.72454350  0.16166400  1
  O  O75  1  0.74456050  0.72454350  0.33833600  1
  O  O76  1  0.24259450  0.73946050  0.64005100  1
  O  O77  1  0.75740550  0.73946050  0.85994900  1
  O  O78  1  0.75740550  0.26053950  0.35994900  1
  O  O79  1  0.24259450  0.26053950  0.14005100  1
  O  O80  1  0.90687150  0.80484250  0.55607900  1
  O  O81  1  0.09312850  0.80484250  0.94392100  1
  O  O82  1  0.09312850  0.19515750  0.44392100  1
  O  O83  1  0.90687150  0.19515750  0.05607900  1
  O  O84  1  0.74866000  0.40250700  0.99126700  1
  O  O85  1  0.25134000  0.40250700  0.50873300  1
  O  O86  1  0.25134000  0.59749300  0.00873300  1
  O  O87  1  0.74866000  0.59749300  0.49126700  1
  O  O88  1  0.08382050  0.74104150  0.52747500  1
  O  O89  1  0.91617950  0.74104150  0.97252500  1
  O  O90  1  0.91617950  0.25895850  0.47252500  1
  O  O91  1  0.08382050  0.25895850  0.02747500  1
  O  O92  1  0.80727700  0.58609100  0.97059800  1
  O  O93  1  0.19272300  0.58609100  0.52940200  1
  O  O94  1  0.19272300  0.41390900  0.02940200  1
  O  O95  1  0.80727700  0.41390900  0.47059800  1
  O  O96  1  0.88542050  0.34487850  0.71692900  1
  O  O97  1  0.11457950  0.34487850  0.78307100  1
  O  O98  1  0.11457950  0.65512150  0.28307100  1
  O  O99  1  0.88542050  0.65512150  0.21692900  1
  O  O100  1  0.87122000  0.15174000  0.76894300  1
  O  O101  1  0.12878000  0.15174000  0.73105700  1
  O  O102  1  0.12878000  0.84826000  0.23105700  1
  O  O103  1  0.65217600  0.54815900  0.31876700  1
  O  O104  1  0.38759850  0.03351150  0.61190700  1
  O  O105  1  0.61240150  0.03351150  0.88809300  1
  O  O106  1  0.61240150  0.96648850  0.38809300  1
  O  O107  1  0.38759850  0.96648850  0.11190700  1
  O  O108  1  0.42180750  0.06276250  0.41109900  1
  O  O109  1  0.57819250  0.06276250  0.08890100  1
  O  O110  1  0.57819250  0.93723750  0.58890100  1
  O  O111  1  0.42180750  0.93723750  0.91109900  1
  O  O112  1  0.59006400  0.87209400  0.19644500  1
  O  O113  1  0.40993600  0.87209400  0.30355500  1
  O  O114  1  0.40993600  0.12790600  0.80355500  1
  O  O115  1  0.59006400  0.12790600  0.69644500  1
  O  O116  1  0.52499950  0.60405550  0.92613300  1
  O  O117  1  0.47500050  0.60405550  0.57386700  1
  O  O118  1  0.47500050  0.39594450  0.07386700  1
  O  O119  1  0.52499950  0.39594450  0.42613300  1
  O  O120  1  0.55788250  0.59210350  0.13164000  1
  O  O121  1  0.44211750  0.59210350  0.36836000  1
  O  O122  1  0.44211750  0.40789650  0.86836000  1
  O  O123  1  0.37122000  0.34826000  0.26894300  1
  O  O124  1  0.55788250  0.40789650  0.63164000  1
  O  O125  1  0.84782400  0.04815900  0.18123300  1
  O  O126  1  0.84782400  0.95184100  0.68123300  1
  O  O127  1  0.15217600  0.95184100  0.81876700  1
  O  O128  1  0.24456050  0.77545650  0.83833600  1
  O  O129  1  0.75543950  0.77545650  0.66166400  1
  O  O130  1  0.75543950  0.22454350  0.16166400  1
  O  O131  1  0.24456050  0.22454350  0.33833600  1
  O  O132  1  0.74259450  0.23946050  0.64005100  1
  O  O133  1  0.25740550  0.23946050  0.85994900  1
  O  O134  1  0.25740550  0.76053950  0.35994900  1
  O  O135  1  0.74259450  0.76053950  0.14005100  1
  O  O136  1  0.40687150  0.30484250  0.55607900  1
  O  O137  1  0.59312850  0.30484250  0.94392100  1
  O  O138  1  0.59312850  0.69515750  0.44392100  1
  O  O139  1  0.40687150  0.69515750  0.05607900  1
  O  O140  1  0.24866000  0.90250700  0.99126700  1
  O  O141  1  0.75134000  0.90250700  0.50873300  1
  O  O142  1  0.75134000  0.09749300  0.00873300  1
  O  O143  1  0.24866000  0.09749300  0.49126700  1
  O  O144  1  0.58382050  0.24104150  0.52747500  1
  O  O145  1  0.41617950  0.24104150  0.97252500  1
  O  O146  1  0.41617950  0.75895850  0.47252500  1
  O  O147  1  0.58382050  0.75895850  0.02747500  1
  O  O148  1  0.30727700  0.08609100  0.97059800  1
  O  O149  1  0.69272300  0.08609100  0.52940200  1
  O  O150  1  0.69272300  0.91390900  0.02940200  1
  O  O151  1  0.30727700  0.91390900  0.47059800  1
  O  O152  1  0.38542050  0.84487850  0.71692900  1
  O  O153  1  0.61457950  0.84487850  0.78307100  1
  O  O154  1  0.61457950  0.15512150  0.28307100  1
  O  O155  1  0.38542050  0.15512150  0.21692900  1
  O  O156  1  0.37122000  0.65174000  0.76894300  1
  O  O157  1  0.62878000  0.65174000  0.73105700  1
  O  O158  1  0.62878000  0.34826000  0.23105700  1
  O  O159  1  0.15217600  0.04815900  0.31876700  1
