# generated using pymatgen
data_Ca3Zn3(TeO6)2
_symmetry_space_group_name_H-M   'P 1'
_cell_length_a   12.75290800
_cell_length_b   12.75290800
_cell_length_c   12.75290800
_cell_angle_alpha   90.00000000
_cell_angle_beta   90.00000000
_cell_angle_gamma   90.00000000
_symmetry_Int_Tables_number   1
_chemical_formula_structural   Ca3Zn3(TeO6)2
_chemical_formula_sum   'Ca24 Zn24 Te16 O96'
_cell_volume   2074.09039373
_cell_formula_units_Z   8
loop_
 _symmetry_equiv_pos_site_id
 _symmetry_equiv_pos_as_xyz
  1  'x, y, z'
loop_
 _atom_site_type_symbol
 _atom_site_label
 _atom_site_symmetry_multiplicity
 _atom_site_fract_x
 _atom_site_fract_y
 _atom_site_fract_z
 _atom_site_occupancy
  Ca  Ca0  1  0.25000000  0.62500000  0.00000000  1
  Ca  Ca1  1  0.25000000  0.12500000  0.00000000  1
  Ca  Ca2  1  0.25000000  0.87500000  0.50000000  1
  Ca  Ca3  1  0.50000000  0.25000000  0.87500000  1
  Ca  Ca4  1  0.00000000  0.25000000  0.12500000  1
  Ca  Ca5  1  0.12500000  0.00000000  0.25000000  1
  Ca  Ca6  1  0.87500000  0.50000000  0.25000000  1
  Ca  Ca7  1  0.25000000  0.37500000  0.50000000  1
  Ca  Ca8  1  0.00000000  0.25000000  0.62500000  1
  Ca  Ca9  1  0.50000000  0.25000000  0.37500000  1
  Ca  Ca10  1  0.37500000  0.50000000  0.25000000  1
  Ca  Ca11  1  0.62500000  0.00000000  0.25000000  1
  Ca  Ca12  1  0.75000000  0.12500000  0.50000000  1
  Ca  Ca13  1  0.75000000  0.62500000  0.50000000  1
  Ca  Ca14  1  0.75000000  0.37500000  0.00000000  1
  Ca  Ca15  1  0.00000000  0.75000000  0.37500000  1
  Ca  Ca16  1  0.50000000  0.75000000  0.62500000  1
  Ca  Ca17  1  0.62500000  0.50000000  0.75000000  1
  Ca  Ca18  1  0.37500000  0.00000000  0.75000000  1
  Ca  Ca19  1  0.75000000  0.87500000  0.00000000  1
  Ca  Ca20  1  0.50000000  0.75000000  0.12500000  1
  Ca  Ca21  1  0.00000000  0.75000000  0.87500000  1
  Ca  Ca22  1  0.87500000  0.00000000  0.75000000  1
  Ca  Ca23  1  0.12500000  0.50000000  0.75000000  1
  Zn  Zn24  1  0.75000000  0.12500000  0.00000000  1
  Zn  Zn25  1  0.25000000  0.12500000  0.50000000  1
  Zn  Zn26  1  0.50000000  0.25000000  0.12500000  1
  Zn  Zn27  1  0.50000000  0.75000000  0.37500000  1
  Zn  Zn28  1  0.25000000  0.37500000  0.00000000  1
  Zn  Zn29  1  0.37500000  0.50000000  0.75000000  1
  Zn  Zn30  1  0.12500000  0.50000000  0.25000000  1
  Zn  Zn31  1  0.37500000  0.00000000  0.25000000  1
  Zn  Zn32  1  0.00000000  0.75000000  0.12500000  1
  Zn  Zn33  1  0.12500000  0.00000000  0.75000000  1
  Zn  Zn34  1  0.75000000  0.37500000  0.50000000  1
  Zn  Zn35  1  0.00000000  0.25000000  0.37500000  1
  Zn  Zn36  1  0.25000000  0.62500000  0.50000000  1
  Zn  Zn37  1  0.75000000  0.62500000  0.00000000  1
  Zn  Zn38  1  0.00000000  0.75000000  0.62500000  1
  Zn  Zn39  1  0.00000000  0.25000000  0.87500000  1
  Zn  Zn40  1  0.75000000  0.87500000  0.50000000  1
  Zn  Zn41  1  0.87500000  0.00000000  0.25000000  1
  Zn  Zn42  1  0.62500000  0.00000000  0.75000000  1
  Zn  Zn43  1  0.87500000  0.50000000  0.75000000  1
  Zn  Zn44  1  0.50000000  0.25000000  0.62500000  1
  Zn  Zn45  1  0.62500000  0.50000000  0.25000000  1
  Zn  Zn46  1  0.25000000  0.87500000  0.00000000  1
  Zn  Zn47  1  0.50000000  0.75000000  0.87500000  1
  Te  Te48  1  0.25000000  0.25000000  0.25000000  1
  Te  Te49  1  0.00000000  0.50000000  0.00000000  1
  Te  Te50  1  0.50000000  0.00000000  0.00000000  1
  Te  Te51  1  0.00000000  0.00000000  0.50000000  1
  Te  Te52  1  0.25000000  0.25000000  0.75000000  1
  Te  Te53  1  0.25000000  0.75000000  0.25000000  1
  Te  Te54  1  0.75000000  0.25000000  0.25000000  1
  Te  Te55  1  0.00000000  0.00000000  0.00000000  1
  Te  Te56  1  0.75000000  0.75000000  0.75000000  1
  Te  Te57  1  0.50000000  0.00000000  0.50000000  1
  Te  Te58  1  0.00000000  0.50000000  0.50000000  1
  Te  Te59  1  0.50000000  0.50000000  0.00000000  1
  Te  Te60  1  0.75000000  0.75000000  0.25000000  1
  Te  Te61  1  0.75000000  0.25000000  0.75000000  1
  Te  Te62  1  0.25000000  0.75000000  0.75000000  1
  Te  Te63  1  0.50000000  0.50000000  0.50000000  1
  O  O64  1  0.60670650  0.20050350  0.22418850  1
  O  O65  1  0.79949650  0.27581150  0.60670650  1
  O  O66  1  0.77581150  0.89329350  0.20050350  1
  O  O67  1  0.39329350  0.29949650  0.22418850  1
  O  O68  1  0.04949650  0.64329350  0.02581150  1
  O  O69  1  0.29949650  0.22418850  0.39329350  1
  O  O70  1  0.95050350  0.14329350  0.47418850  1
  O  O71  1  0.22418850  0.39329350  0.29949650  1
  O  O72  1  0.04949650  0.35670650  0.47418850  1
  O  O73  1  0.35670650  0.52581150  0.45050350  1
  O  O74  1  0.52581150  0.45050350  0.35670650  1
  O  O75  1  0.02581150  0.04949650  0.64329350  1
  O  O76  1  0.14329350  0.47418850  0.95050350  1
  O  O77  1  0.47418850  0.04949650  0.35670650  1
  O  O78  1  0.64329350  0.02581150  0.04949650  1
  O  O79  1  0.47418850  0.95050350  0.14329350  1
  O  O80  1  0.35670650  0.47418850  0.04949650  1
  O  O81  1  0.60670650  0.79949650  0.27581150  1
  O  O82  1  0.89329350  0.20050350  0.77581150  1
  O  O83  1  0.45050350  0.14329350  0.02581150  1
  O  O84  1  0.20050350  0.77581150  0.89329350  1
  O  O85  1  0.22418850  0.60670650  0.20050350  1
  O  O86  1  0.27581150  0.60670650  0.79949650  1
  O  O87  1  0.45050350  0.35670650  0.52581150  1
  O  O88  1  0.89329350  0.29949650  0.27581150  1
  O  O89  1  0.70050350  0.22418850  0.89329350  1
  O  O90  1  0.72418850  0.60670650  0.29949650  1
  O  O91  1  0.10670650  0.20050350  0.27581150  1
  O  O92  1  0.45050350  0.85670650  0.47418850  1
  O  O93  1  0.20050350  0.27581150  0.10670650  1
  O  O94  1  0.54949650  0.35670650  0.02581150  1
  O  O95  1  0.27581150  0.10670650  0.20050350  1
  O  O96  1  0.04949650  0.14329350  0.97418850  1
  O  O97  1  0.22418850  0.89329350  0.70050350  1
  O  O98  1  0.27581150  0.89329350  0.29949650  1
  O  O99  1  0.29949650  0.27581150  0.89329350  1
  O  O100  1  0.29949650  0.72418850  0.60670650  1
  O  O101  1  0.60670650  0.29949650  0.72418850  1
  O  O102  1  0.89329350  0.70050350  0.22418850  1
  O  O103  1  0.14329350  0.02581150  0.45050350  1
  O  O104  1  0.02581150  0.54949650  0.35670650  1
  O  O105  1  0.85670650  0.47418850  0.45050350  1
  O  O106  1  0.02581150  0.45050350  0.14329350  1
  O  O107  1  0.35670650  0.02581150  0.54949650  1
  O  O108  1  0.47418850  0.45050350  0.85670650  1
  O  O109  1  0.97418850  0.04949650  0.14329350  1
  O  O110  1  0.14329350  0.97418850  0.04949650  1
  O  O111  1  0.20050350  0.22418850  0.60670650  1
  O  O112  1  0.10670650  0.70050350  0.72418850  1
  O  O113  1  0.29949650  0.77581150  0.10670650  1
  O  O114  1  0.27581150  0.39329350  0.70050350  1
  O  O115  1  0.89329350  0.79949650  0.72418850  1
  O  O116  1  0.54949650  0.14329350  0.52581150  1
  O  O117  1  0.79949650  0.72418850  0.89329350  1
  O  O118  1  0.45050350  0.64329350  0.97418850  1
  O  O119  1  0.72418850  0.89329350  0.79949650  1
  O  O120  1  0.54949650  0.85670650  0.97418850  1
  O  O121  1  0.85670650  0.02581150  0.95050350  1
  O  O122  1  0.02581150  0.95050350  0.85670650  1
  O  O123  1  0.52581150  0.54949650  0.14329350  1
  O  O124  1  0.64329350  0.97418850  0.45050350  1
  O  O125  1  0.97418850  0.54949650  0.85670650  1
  O  O126  1  0.14329350  0.52581150  0.54949650  1
  O  O127  1  0.97418850  0.45050350  0.64329350  1
  O  O128  1  0.85670650  0.97418850  0.54949650  1
  O  O129  1  0.10670650  0.29949650  0.77581150  1
  O  O130  1  0.39329350  0.70050350  0.27581150  1
  O  O131  1  0.95050350  0.64329350  0.52581150  1
  O  O132  1  0.70050350  0.27581150  0.39329350  1
  O  O133  1  0.72418850  0.10670650  0.70050350  1
  O  O134  1  0.77581150  0.10670650  0.29949650  1
  O  O135  1  0.95050350  0.85670650  0.02581150  1
  O  O136  1  0.39329350  0.79949650  0.77581150  1
  O  O137  1  0.20050350  0.72418850  0.39329350  1
  O  O138  1  0.22418850  0.10670650  0.79949650  1
  O  O139  1  0.60670650  0.70050350  0.77581150  1
  O  O140  1  0.95050350  0.35670650  0.97418850  1
  O  O141  1  0.70050350  0.77581150  0.60670650  1
  O  O142  1  0.04949650  0.85670650  0.52581150  1
  O  O143  1  0.77581150  0.60670650  0.70050350  1
  O  O144  1  0.54949650  0.64329350  0.47418850  1
  O  O145  1  0.72418850  0.39329350  0.20050350  1
  O  O146  1  0.77581150  0.39329350  0.79949650  1
  O  O147  1  0.79949650  0.77581150  0.39329350  1
  O  O148  1  0.79949650  0.22418850  0.10670650  1
  O  O149  1  0.10670650  0.79949650  0.22418850  1
  O  O150  1  0.39329350  0.20050350  0.72418850  1
  O  O151  1  0.64329350  0.52581150  0.95050350  1
  O  O152  1  0.52581150  0.04949650  0.85670650  1
  O  O153  1  0.35670650  0.97418850  0.95050350  1
  O  O154  1  0.52581150  0.95050350  0.64329350  1
  O  O155  1  0.85670650  0.52581150  0.04949650  1
  O  O156  1  0.97418850  0.95050350  0.35670650  1
  O  O157  1  0.47418850  0.54949650  0.64329350  1
  O  O158  1  0.64329350  0.47418850  0.54949650  1
  O  O159  1  0.70050350  0.72418850  0.10670650  1
