# generated using pymatgen
data_Ba3V2O8
_symmetry_space_group_name_H-M   'P 1'
_cell_length_a   5.90020805
_cell_length_b   5.90020805
_cell_length_c   21.59292019
_cell_angle_alpha   90.00000000
_cell_angle_beta   90.00000000
_cell_angle_gamma   120.00000000
_symmetry_Int_Tables_number   1
_chemical_formula_structural   Ba3V2O8
_chemical_formula_sum   'Ba9 V6 O24'
_cell_volume   650.99351623
_cell_formula_units_Z   3
loop_
 _symmetry_equiv_pos_site_id
 _symmetry_equiv_pos_as_xyz
  1  'x, y, z'
loop_
 _atom_site_type_symbol
 _atom_site_label
 _atom_site_symmetry_multiplicity
 _atom_site_fract_x
 _atom_site_fract_y
 _atom_site_fract_z
 _atom_site_occupancy
  Ba  Ba0  1  0.66666667  0.33333333  0.12806433  1
  Ba  Ba1  1  0.00000000  0.00000000  0.20526900  1
  Ba  Ba2  1  0.00000000  0.00000000  0.00000000  1
  Ba  Ba3  1  0.33333333  0.66666667  0.46139767  1
  Ba  Ba4  1  0.66666667  0.33333333  0.53860233  1
  Ba  Ba5  1  0.66666667  0.33333333  0.33333333  1
  Ba  Ba6  1  0.00000000  0.00000000  0.79473100  1
  Ba  Ba7  1  0.33333333  0.66666667  0.87193567  1
  Ba  Ba8  1  0.33333333  0.66666667  0.66666667  1
  V  V9  1  0.33333333  0.66666667  0.07397167  1
  V  V10  1  0.33333333  0.66666667  0.25936167  1
  V  V11  1  0.00000000  0.00000000  0.40730500  1
  V  V12  1  0.00000000  0.00000000  0.59269500  1
  V  V13  1  0.66666667  0.33333333  0.74063833  1
  V  V14  1  0.66666667  0.33333333  0.92602833  1
  O  O15  1  0.00000000  0.00000000  0.32721300  1
  O  O16  1  0.66666667  0.33333333  0.00612033  1
  O  O17  1  0.17190367  0.82809633  0.10104333  1
  O  O18  1  0.65619267  0.82809633  0.10104333  1
  O  O19  1  0.17190367  0.34380733  0.10104333  1
  O  O20  1  0.49476300  0.50523700  0.23229000  1
  O  O21  1  0.49476300  0.98952600  0.23229000  1
  O  O22  1  0.01047400  0.50523700  0.23229000  1
  O  O23  1  0.66666667  0.33333333  0.66054633  1
  O  O24  1  0.33333333  0.66666667  0.33945367  1
  O  O25  1  0.83857033  0.16142967  0.43437667  1
  O  O26  1  0.32285933  0.16142967  0.43437667  1
  O  O27  1  0.83857033  0.67714067  0.43437667  1
  O  O28  1  0.16142967  0.83857033  0.56562333  1
  O  O29  1  0.16142967  0.32285933  0.56562333  1
  O  O30  1  0.67714067  0.83857033  0.56562333  1
  O  O31  1  0.33333333  0.66666667  0.99387967  1
  O  O32  1  0.00000000  0.00000000  0.67278700  1
  O  O33  1  0.50523700  0.49476300  0.76771000  1
  O  O34  1  0.98952600  0.49476300  0.76771000  1
  O  O35  1  0.50523700  0.01047400  0.76771000  1
  O  O36  1  0.82809633  0.17190367  0.89895667  1
  O  O37  1  0.82809633  0.65619267  0.89895667  1
  O  O38  1  0.34380733  0.17190367  0.89895667  1
