# generated using pymatgen
data_LiLa4CoO8
_symmetry_space_group_name_H-M   'P 1'
_cell_length_a   5.33496404
_cell_length_b   12.98495328
_cell_length_c   5.34344800
_cell_angle_alpha   90.00000000
_cell_angle_beta   90.00000000
_cell_angle_gamma   90.00000000
_symmetry_Int_Tables_number   1
_chemical_formula_structural   LiLa4CoO8
_chemical_formula_sum   'Li2 La8 Co2 O16'
_cell_volume   370.16340014
_cell_formula_units_Z   2
loop_
 _symmetry_equiv_pos_site_id
 _symmetry_equiv_pos_as_xyz
  1  'x, y, z'
loop_
 _atom_site_type_symbol
 _atom_site_label
 _atom_site_symmetry_multiplicity
 _atom_site_fract_x
 _atom_site_fract_y
 _atom_site_fract_z
 _atom_site_occupancy
  Li  Li0  1  0.00000000  0.50000000  0.50000000  1
  Li  Li1  1  0.50000000  0.00000000  0.50000000  1
  La  La2  1  0.50000000  0.13749325  0.00000000  1
  La  La3  1  0.00000000  0.36250675  0.00000000  1
  La  La4  1  0.50000000  0.36185050  0.50000000  1
  La  La5  1  0.00000000  0.13814950  0.50000000  1
  La  La6  1  0.00000000  0.63749325  0.00000000  1
  La  La7  1  0.50000000  0.86250675  0.00000000  1
  La  La8  1  0.00000000  0.86185050  0.50000000  1
  La  La9  1  0.50000000  0.63814950  0.50000000  1
  Co  Co10  1  0.00000000  0.00000000  0.00000000  1
  Co  Co11  1  0.50000000  0.50000000  0.00000000  1
  O  O12  1  0.00000000  0.31856175  0.50000000  1
  O  O13  1  0.50000000  0.18143825  0.50000000  1
  O  O14  1  0.00000000  0.17954200  0.00000000  1
  O  O15  1  0.50000000  0.32045800  0.00000000  1
  O  O16  1  0.75436325  0.00000000  0.24421650  1
  O  O17  1  0.74563675  0.50000000  0.24421650  1
  O  O18  1  0.74563675  0.50000000  0.75578350  1
  O  O19  1  0.75436325  0.00000000  0.75578350  1
  O  O20  1  0.50000000  0.81856175  0.50000000  1
  O  O21  1  0.00000000  0.68143825  0.50000000  1
  O  O22  1  0.50000000  0.67954200  0.00000000  1
  O  O23  1  0.00000000  0.82045800  0.00000000  1
  O  O24  1  0.25436325  0.50000000  0.24421650  1
  O  O25  1  0.24563675  0.00000000  0.24421650  1
  O  O26  1  0.24563675  0.00000000  0.75578350  1
  O  O27  1  0.25436325  0.50000000  0.75578350  1
