# generated using pymatgen
data_BaV2(CoO4)2
_symmetry_space_group_name_H-M   'P 1'
_cell_length_a   12.66118400
_cell_length_b   12.66118400
_cell_length_c   8.51086800
_cell_angle_alpha   90.00000000
_cell_angle_beta   90.00000000
_cell_angle_gamma   90.00000000
_symmetry_Int_Tables_number   1
_chemical_formula_structural   BaV2(CoO4)2
_chemical_formula_sum   'Ba8 V16 Co16 O64'
_cell_volume   1364.33963344
_cell_formula_units_Z   8
loop_
 _symmetry_equiv_pos_site_id
 _symmetry_equiv_pos_as_xyz
  1  'x, y, z'
loop_
 _atom_site_type_symbol
 _atom_site_label
 _atom_site_symmetry_multiplicity
 _atom_site_fract_x
 _atom_site_fract_y
 _atom_site_fract_z
 _atom_site_occupancy
  Ba  Ba0  1  0.00000000  0.50000000  0.25000000  1
  Ba  Ba1  1  0.50000000  0.50000000  0.00000000  1
  Ba  Ba2  1  0.00000000  0.50000000  0.75000000  1
  Ba  Ba3  1  0.50000000  0.50000000  0.50000000  1
  Ba  Ba4  1  0.50000000  0.00000000  0.75000000  1
  Ba  Ba5  1  0.00000000  0.00000000  0.50000000  1
  Ba  Ba6  1  0.50000000  0.00000000  0.25000000  1
  Ba  Ba7  1  0.00000000  0.00000000  0.00000000  1
  V  V8  1  0.25000000  0.57933800  0.37500000  1
  V  V9  1  0.57933800  0.75000000  0.62500000  1
  V  V10  1  0.25000000  0.42066200  0.87500000  1
  V  V11  1  0.75000000  0.57933800  0.87500000  1
  V  V12  1  0.42066200  0.25000000  0.62500000  1
  V  V13  1  0.42066200  0.75000000  0.12500000  1
  V  V14  1  0.75000000  0.42066200  0.37500000  1
  V  V15  1  0.57933800  0.25000000  0.12500000  1
  V  V16  1  0.75000000  0.07933800  0.87500000  1
  V  V17  1  0.07933800  0.25000000  0.12500000  1
  V  V18  1  0.75000000  0.92066200  0.37500000  1
  V  V19  1  0.25000000  0.07933800  0.37500000  1
  V  V20  1  0.92066200  0.75000000  0.12500000  1
  V  V21  1  0.92066200  0.25000000  0.62500000  1
  V  V22  1  0.25000000  0.92066200  0.87500000  1
  V  V23  1  0.07933800  0.75000000  0.62500000  1
  Co  Co24  1  0.66848800  0.83151200  0.00000000  1
  Co  Co25  1  0.83151200  0.33151200  0.00000000  1
  Co  Co26  1  0.66848800  0.66848800  0.25000000  1
  Co  Co27  1  0.66848800  0.16848800  0.50000000  1
  Co  Co28  1  0.33151200  0.66848800  0.75000000  1
  Co  Co29  1  0.83151200  0.66848800  0.50000000  1
  Co  Co30  1  0.33151200  0.33151200  0.25000000  1
  Co  Co31  1  0.66848800  0.33151200  0.75000000  1
  Co  Co32  1  0.16848800  0.33151200  0.50000000  1
  Co  Co33  1  0.33151200  0.83151200  0.50000000  1
  Co  Co34  1  0.16848800  0.16848800  0.75000000  1
  Co  Co35  1  0.16848800  0.66848800  0.00000000  1
  Co  Co36  1  0.83151200  0.16848800  0.25000000  1
  Co  Co37  1  0.33151200  0.16848800  0.00000000  1
  Co  Co38  1  0.83151200  0.83151200  0.75000000  1
  Co  Co39  1  0.16848800  0.83151200  0.25000000  1
  O  O40  1  0.50308400  0.16199300  0.52885800  1
  O  O41  1  0.49691600  0.83800700  0.52885800  1
  O  O42  1  0.66199300  0.49691600  0.77885800  1
  O  O43  1  0.33800700  0.50308400  0.77885800  1
  O  O44  1  0.49691600  0.66199300  0.72114200  1
  O  O45  1  0.16199300  0.50308400  0.97114200  1
  O  O46  1  0.83800700  0.49691600  0.97114200  1
  O  O47  1  0.50308400  0.33800700  0.72114200  1
  O  O48  1  0.49691600  0.33800700  0.22114200  1
  O  O49  1  0.50308400  0.66199300  0.22114200  1
  O  O50  1  0.83800700  0.50308400  0.47114200  1
  O  O51  1  0.16199300  0.49691600  0.47114200  1
  O  O52  1  0.50308400  0.83800700  0.02885800  1
  O  O53  1  0.33800700  0.49691600  0.27885800  1
  O  O54  1  0.66199300  0.50308400  0.27885800  1
  O  O55  1  0.49691600  0.16199300  0.02885800  1
  O  O56  1  0.34214300  0.67707600  0.99048900  1
  O  O57  1  0.65785700  0.32292400  0.99048900  1
  O  O58  1  0.17707600  0.65785700  0.24048900  1
  O  O59  1  0.82292400  0.34214300  0.24048900  1
  O  O60  1  0.65785700  0.67707600  0.49048900  1
  O  O61  1  0.17707600  0.34214300  0.74048900  1
  O  O62  1  0.82292400  0.65785700  0.74048900  1
  O  O63  1  0.34214300  0.32292400  0.49048900  1
  O  O64  1  0.67707600  0.65785700  0.00951100  1
  O  O65  1  0.32292400  0.34214300  0.00951100  1
  O  O66  1  0.34214300  0.17707600  0.75951100  1
  O  O67  1  0.65785700  0.82292400  0.75951100  1
  O  O68  1  0.34214300  0.82292400  0.25951100  1
  O  O69  1  0.32292400  0.65785700  0.50951100  1
  O  O70  1  0.67707600  0.34214300  0.50951100  1
  O  O71  1  0.65785700  0.17707600  0.25951100  1
  O  O72  1  0.00308400  0.66199300  0.02885800  1
  O  O73  1  0.99691600  0.33800700  0.02885800  1
  O  O74  1  0.16199300  0.99691600  0.27885800  1
  O  O75  1  0.83800700  0.00308400  0.27885800  1
  O  O76  1  0.99691600  0.16199300  0.22114200  1
  O  O77  1  0.66199300  0.00308400  0.47114200  1
  O  O78  1  0.33800700  0.99691600  0.47114200  1
  O  O79  1  0.00308400  0.83800700  0.22114200  1
  O  O80  1  0.99691600  0.83800700  0.72114200  1
  O  O81  1  0.00308400  0.16199300  0.72114200  1
  O  O82  1  0.33800700  0.00308400  0.97114200  1
  O  O83  1  0.66199300  0.99691600  0.97114200  1
  O  O84  1  0.00308400  0.33800700  0.52885800  1
  O  O85  1  0.83800700  0.99691600  0.77885800  1
  O  O86  1  0.16199300  0.00308400  0.77885800  1
  O  O87  1  0.99691600  0.66199300  0.52885800  1
  O  O88  1  0.84214300  0.17707600  0.49048900  1
  O  O89  1  0.15785700  0.82292400  0.49048900  1
  O  O90  1  0.67707600  0.15785700  0.74048900  1
  O  O91  1  0.32292400  0.84214300  0.74048900  1
  O  O92  1  0.15785700  0.17707600  0.99048900  1
  O  O93  1  0.67707600  0.84214300  0.24048900  1
  O  O94  1  0.32292400  0.15785700  0.24048900  1
  O  O95  1  0.84214300  0.82292400  0.99048900  1
  O  O96  1  0.17707600  0.15785700  0.50951100  1
  O  O97  1  0.82292400  0.84214300  0.50951100  1
  O  O98  1  0.84214300  0.67707600  0.25951100  1
  O  O99  1  0.15785700  0.32292400  0.25951100  1
  O  O100  1  0.84214300  0.32292400  0.75951100  1
  O  O101  1  0.82292400  0.15785700  0.00951100  1
  O  O102  1  0.17707600  0.84214300  0.00951100  1
  O  O103  1  0.15785700  0.67707600  0.75951100  1
