# generated using pymatgen
data_Na3Co(NO2)6
_symmetry_space_group_name_H-M   'P 1'
_cell_length_a   7.94077796
_cell_length_b   7.94077796
_cell_length_c   15.06907421
_cell_angle_alpha   90.00000000
_cell_angle_beta   90.00000000
_cell_angle_gamma   120.00000000
_symmetry_Int_Tables_number   1
_chemical_formula_structural   Na3Co(NO2)6
_chemical_formula_sum   'Na9 Co3 N18 O36'
_cell_volume   822.89288744
_cell_formula_units_Z   3
loop_
 _symmetry_equiv_pos_site_id
 _symmetry_equiv_pos_as_xyz
  1  'x, y, z'
loop_
 _atom_site_type_symbol
 _atom_site_label
 _atom_site_symmetry_multiplicity
 _atom_site_fract_x
 _atom_site_fract_y
 _atom_site_fract_z
 _atom_site_occupancy
  Na  Na0  1  0.33333333  0.66666667  0.40306367  1
  Na  Na1  1  0.33333333  0.66666667  0.93026967  1
  Na  Na2  1  0.33333333  0.66666667  0.16666667  1
  Na  Na3  1  0.00000000  0.00000000  0.73639700  1
  Na  Na4  1  0.00000000  0.00000000  0.26360300  1
  Na  Na5  1  1.00000000  0.00000000  0.50000000  1
  Na  Na6  1  0.66666667  0.33333333  0.06973033  1
  Na  Na7  1  0.66666667  0.33333333  0.59693633  1
  Na  Na8  1  0.66666667  0.33333333  0.83333333  1
  Co  Co9  1  0.00000000  0.00000000  0.00000000  1
  Co  Co10  1  0.66666667  0.33333333  0.33333333  1
  Co  Co11  1  0.33333333  0.66666667  0.66666667  1
  N  N12  1  0.53483833  0.44481567  0.26124267  1
  N  N13  1  0.13182833  0.88851767  0.07209067  1
  N  N14  1  0.90997733  0.46516167  0.26124267  1
  N  N15  1  0.75668933  0.86817167  0.07209067  1
  N  N16  1  0.11148233  0.24331067  0.07209067  1
  N  N17  1  0.55518433  0.09002267  0.26124267  1
  N  N18  1  0.20150500  0.77814900  0.59457600  1
  N  N19  1  0.79849500  0.22185100  0.40542400  1
  N  N20  1  0.57664400  0.79849500  0.59457600  1
  N  N21  1  0.42335600  0.20150500  0.40542400  1
  N  N22  1  0.77814900  0.57664400  0.40542400  1
  N  N23  1  0.22185100  0.42335600  0.59457600  1
  N  N24  1  0.86817167  0.11148233  0.92790933  1
  N  N25  1  0.46516167  0.55518433  0.73875733  1
  N  N26  1  0.24331067  0.13182833  0.92790933  1
  N  N27  1  0.09002267  0.53483833  0.73875733  1
  N  N28  1  0.44481567  0.90997733  0.73875733  1
  N  N29  1  0.88851767  0.75668933  0.92790933  1
  O  O30  1  0.15076400  0.90963600  0.15382400  1
  O  O31  1  0.09036400  0.24112800  0.15382400  1
  O  O32  1  0.57630267  0.09220533  0.17950933  1
  O  O33  1  0.20405467  0.40417733  0.03351233  1
  O  O34  1  0.20012267  0.79594533  0.03351233  1
  O  O35  1  0.46654400  0.53738800  0.29982100  1
  O  O36  1  0.75887200  0.84923600  0.15382400  1
  O  O37  1  0.59582267  0.79987733  0.03351233  1
  O  O38  1  0.46261200  0.92915600  0.29982100  1
  O  O39  1  0.51590267  0.42369733  0.17950933  1
  O  O40  1  0.90779467  0.48409733  0.17950933  1
  O  O41  1  0.07084400  0.53345600  0.29982100  1
  O  O42  1  0.81743067  0.24296933  0.48715733  1
  O  O43  1  0.75703067  0.57446133  0.48715733  1
  O  O44  1  0.24296933  0.42553867  0.51284267  1
  O  O45  1  0.87072133  0.73751067  0.36684567  1
  O  O46  1  0.86678933  0.12927867  0.36684567  1
  O  O47  1  0.13321067  0.87072133  0.63315433  1
  O  O48  1  0.42553867  0.18256933  0.48715733  1
  O  O49  1  0.26248933  0.13321067  0.36684567  1
  O  O50  1  0.12927867  0.26248933  0.63315433  1
  O  O51  1  0.18256933  0.75703067  0.51284267  1
  O  O52  1  0.57446133  0.81743067  0.51284267  1
  O  O53  1  0.73751067  0.86678933  0.63315433  1
  O  O54  1  0.48409733  0.57630267  0.82049067  1
  O  O55  1  0.42369733  0.90779467  0.82049067  1
  O  O56  1  0.90963600  0.75887200  0.84617600  1
  O  O57  1  0.53738800  0.07084400  0.70017900  1
  O  O58  1  0.53345600  0.46261200  0.70017900  1
  O  O59  1  0.79987733  0.20405467  0.96648767  1
  O  O60  1  0.09220533  0.51590267  0.82049067  1
  O  O61  1  0.92915600  0.46654400  0.70017900  1
  O  O62  1  0.79594533  0.59582267  0.96648767  1
  O  O63  1  0.84923600  0.09036400  0.84617600  1
  O  O64  1  0.24112800  0.15076400  0.84617600  1
  O  O65  1  0.40417733  0.20012267  0.96648767  1
