# generated using pymatgen
data_Mn3O4
_symmetry_space_group_name_H-M   'P 1'
_cell_length_a   5.87171386
_cell_length_b   5.87171386
_cell_length_c   9.59797110
_cell_angle_alpha   90.00000000
_cell_angle_beta   90.00000000
_cell_angle_gamma   90.00000000
_symmetry_Int_Tables_number   1
_chemical_formula_structural   Mn3O4
_chemical_formula_sum   'Mn12 O16'
_cell_volume   330.90947719
_cell_formula_units_Z   4
loop_
 _symmetry_equiv_pos_site_id
 _symmetry_equiv_pos_as_xyz
  1  'x, y, z'
loop_
 _atom_site_type_symbol
 _atom_site_label
 _atom_site_symmetry_multiplicity
 _atom_site_fract_x
 _atom_site_fract_y
 _atom_site_fract_z
 _atom_site_occupancy
  Mn  Mn0  1  0.00000000  0.50000000  0.75000000  1
  Mn  Mn1  1  0.50000000  0.50000000  0.00000000  1
  Mn  Mn2  1  0.00000000  0.25000000  0.12500000  1
  Mn  Mn3  1  0.25000000  0.00000000  0.87500000  1
  Mn  Mn4  1  0.00000000  0.75000000  0.12500000  1
  Mn  Mn5  1  0.75000000  0.00000000  0.87500000  1
  Mn  Mn6  1  0.50000000  0.00000000  0.25000000  1
  Mn  Mn7  1  0.00000000  0.00000000  0.50000000  1
  Mn  Mn8  1  0.50000000  0.75000000  0.62500000  1
  Mn  Mn9  1  0.75000000  0.50000000  0.37500000  1
  Mn  Mn10  1  0.50000000  0.25000000  0.62500000  1
  Mn  Mn11  1  0.25000000  0.50000000  0.37500000  1
  O  O12  1  0.00000000  0.77936650  0.88377550  1
  O  O13  1  0.22063350  0.00000000  0.11622450  1
  O  O14  1  0.72063350  0.00000000  0.63377550  1
  O  O15  1  0.27936650  0.00000000  0.63377550  1
  O  O16  1  0.50000000  0.77936650  0.86622450  1
  O  O17  1  0.50000000  0.22063350  0.86622450  1
  O  O18  1  0.00000000  0.22063350  0.88377550  1
  O  O19  1  0.77936650  0.00000000  0.11622450  1
  O  O20  1  0.50000000  0.27936650  0.38377550  1
  O  O21  1  0.72063350  0.50000000  0.61622450  1
  O  O22  1  0.22063350  0.50000000  0.13377550  1
  O  O23  1  0.77936650  0.50000000  0.13377550  1
  O  O24  1  0.00000000  0.27936650  0.36622450  1
  O  O25  1  0.00000000  0.72063350  0.36622450  1
  O  O26  1  0.50000000  0.72063350  0.38377550  1
  O  O27  1  0.27936650  0.50000000  0.61622450  1
