# generated using pymatgen
data_Ca(BC)2
_symmetry_space_group_name_H-M   'P 1'
_cell_length_a   5.36561800
_cell_length_b   5.36561800
_cell_length_c   7.44008200
_cell_angle_alpha   90.00000000
_cell_angle_beta   90.00000000
_cell_angle_gamma   90.00000000
_symmetry_Int_Tables_number   1
_chemical_formula_structural   Ca(BC)2
_chemical_formula_sum   'Ca4 B8 C8'
_cell_volume   214.19889329
_cell_formula_units_Z   4
loop_
 _symmetry_equiv_pos_site_id
 _symmetry_equiv_pos_as_xyz
  1  'x, y, z'
loop_
 _atom_site_type_symbol
 _atom_site_label
 _atom_site_symmetry_multiplicity
 _atom_site_fract_x
 _atom_site_fract_y
 _atom_site_fract_z
 _atom_site_occupancy
  Ca  Ca0  1  0.00000000  0.00000000  0.75000000  1
  Ca  Ca1  1  0.00000000  0.00000000  0.25000000  1
  Ca  Ca2  1  0.50000000  0.50000000  0.25000000  1
  Ca  Ca3  1  0.50000000  0.50000000  0.75000000  1
  B  B4  1  0.36106650  0.86106650  0.50000000  1
  B  B5  1  0.13893350  0.36106650  0.50000000  1
  B  B6  1  0.36106650  0.13893350  0.00000000  1
  B  B7  1  0.13893350  0.63893350  0.00000000  1
  B  B8  1  0.86106650  0.36106650  0.00000000  1
  B  B9  1  0.63893350  0.86106650  0.00000000  1
  B  B10  1  0.86106650  0.63893350  0.50000000  1
  B  B11  1  0.63893350  0.13893350  0.50000000  1
  C  C12  1  0.34069900  0.15930100  0.50000000  1
  C  C13  1  0.65930100  0.15930100  0.00000000  1
  C  C14  1  0.15930100  0.34069900  0.00000000  1
  C  C15  1  0.84069900  0.34069900  0.50000000  1
  C  C16  1  0.84069900  0.65930100  0.00000000  1
  C  C17  1  0.15930100  0.65930100  0.50000000  1
  C  C18  1  0.65930100  0.84069900  0.50000000  1
  C  C19  1  0.34069900  0.84069900  0.00000000  1
