# generated using pymatgen
data_K3BeF5
_symmetry_space_group_name_H-M   'P 1'
_cell_length_a   7.26336600
_cell_length_b   7.26336600
_cell_length_c   10.93871000
_cell_angle_alpha   90.00000000
_cell_angle_beta   90.00000000
_cell_angle_gamma   90.00000000
_symmetry_Int_Tables_number   1
_chemical_formula_structural   K3BeF5
_chemical_formula_sum   'K12 Be4 F20'
_cell_volume   577.08789714
_cell_formula_units_Z   4
loop_
 _symmetry_equiv_pos_site_id
 _symmetry_equiv_pos_as_xyz
  1  'x, y, z'
loop_
 _atom_site_type_symbol
 _atom_site_label
 _atom_site_symmetry_multiplicity
 _atom_site_fract_x
 _atom_site_fract_y
 _atom_site_fract_z
 _atom_site_occupancy
  K  K0  1  0.18167850  0.68167850  0.50000000  1
  K  K1  1  0.18167850  0.31832150  0.00000000  1
  K  K2  1  0.31832150  0.81832150  0.00000000  1
  K  K3  1  0.81832150  0.68167850  0.00000000  1
  K  K4  1  0.50000000  0.50000000  0.25000000  1
  K  K5  1  0.00000000  0.00000000  0.25000000  1
  K  K6  1  0.68167850  0.18167850  0.00000000  1
  K  K7  1  0.68167850  0.81832150  0.50000000  1
  K  K8  1  0.81832150  0.31832150  0.50000000  1
  K  K9  1  0.31832150  0.18167850  0.50000000  1
  K  K10  1  0.00000000  0.00000000  0.75000000  1
  K  K11  1  0.50000000  0.50000000  0.75000000  1
  Be  Be12  1  0.00000000  0.50000000  0.25000000  1
  Be  Be13  1  0.50000000  0.00000000  0.25000000  1
  Be  Be14  1  0.50000000  0.00000000  0.75000000  1
  Be  Be15  1  0.00000000  0.50000000  0.75000000  1
  F  F16  1  0.12298050  0.37701950  0.33510550  1
  F  F17  1  0.62298050  0.87701950  0.16489450  1
  F  F18  1  0.62298050  0.12298050  0.33510550  1
  F  F19  1  0.37701950  0.87701950  0.33510550  1
  F  F20  1  0.50000000  0.50000000  0.00000000  1
  F  F21  1  0.00000000  0.00000000  0.00000000  1
  F  F22  1  0.12298050  0.62298050  0.16489450  1
  F  F23  1  0.87701950  0.37701950  0.16489450  1
  F  F24  1  0.37701950  0.12298050  0.16489450  1
  F  F25  1  0.87701950  0.62298050  0.33510550  1
  F  F26  1  0.62298050  0.87701950  0.83510550  1
  F  F27  1  0.12298050  0.37701950  0.66489450  1
  F  F28  1  0.12298050  0.62298050  0.83510550  1
  F  F29  1  0.87701950  0.37701950  0.83510550  1
  F  F30  1  0.00000000  0.00000000  0.50000000  1
  F  F31  1  0.50000000  0.50000000  0.50000000  1
  F  F32  1  0.62298050  0.12298050  0.66489450  1
  F  F33  1  0.37701950  0.87701950  0.66489450  1
  F  F34  1  0.87701950  0.62298050  0.66489450  1
  F  F35  1  0.37701950  0.12298050  0.83510550  1
