# generated using pymatgen
data_MnMoO4
_symmetry_space_group_name_H-M   'P 1'
_cell_length_a   4.86399064
_cell_length_b   5.85400900
_cell_length_c   5.05773705
_cell_angle_alpha   90.00000000
_cell_angle_beta   90.97122121
_cell_angle_gamma   90.00000000
_symmetry_Int_Tables_number   1
_chemical_formula_structural   MnMoO4
_chemical_formula_sum   'Mn2 Mo2 O8'
_cell_volume   143.99253107
_cell_formula_units_Z   2
loop_
 _symmetry_equiv_pos_site_id
 _symmetry_equiv_pos_as_xyz
  1  'x, y, z'
loop_
 _atom_site_type_symbol
 _atom_site_label
 _atom_site_symmetry_multiplicity
 _atom_site_fract_x
 _atom_site_fract_y
 _atom_site_fract_z
 _atom_site_occupancy
  Mn  Mn0  1  0.00000000  0.81720800  0.25000000  1
  Mn  Mn1  1  0.00000000  0.18279200  0.75000000  1
  Mo  Mo2  1  0.50000000  0.31916400  0.25000000  1
  Mo  Mo3  1  0.50000000  0.68083600  0.75000000  1
  O  O4  1  0.28805100  0.39563700  0.55747800  1
  O  O5  1  0.71194900  0.39563700  0.94252200  1
  O  O6  1  0.71194900  0.60436300  0.44252200  1
  O  O7  1  0.28805100  0.60436300  0.05747800  1
  O  O8  1  0.24736300  0.87371600  0.60453800  1
  O  O9  1  0.75263700  0.87371600  0.89546200  1
  O  O10  1  0.75263700  0.12628400  0.39546200  1
  O  O11  1  0.24736300  0.12628400  0.10453800  1
