# generated using pymatgen
data_LiErO2
_symmetry_space_group_name_H-M   'P 1'
_cell_length_a   4.41169200
_cell_length_b   4.41169200
_cell_length_c   10.39152600
_cell_angle_alpha   90.00000000
_cell_angle_beta   90.00000000
_cell_angle_gamma   90.00000000
_symmetry_Int_Tables_number   1
_chemical_formula_structural   LiErO2
_chemical_formula_sum   'Li4 Er4 O8'
_cell_volume   202.25054386
_cell_formula_units_Z   4
loop_
 _symmetry_equiv_pos_site_id
 _symmetry_equiv_pos_as_xyz
  1  'x, y, z'
loop_
 _atom_site_type_symbol
 _atom_site_label
 _atom_site_symmetry_multiplicity
 _atom_site_fract_x
 _atom_site_fract_y
 _atom_site_fract_z
 _atom_site_occupancy
  Li  Li0  1  0.00000000  0.00000000  0.00000000  1
  Li  Li1  1  0.00000000  0.50000000  0.25000000  1
  Li  Li2  1  0.50000000  0.50000000  0.50000000  1
  Li  Li3  1  0.50000000  0.00000000  0.75000000  1
  Er  Er4  1  0.50000000  0.50000000  0.00000000  1
  Er  Er5  1  0.50000000  0.00000000  0.25000000  1
  Er  Er6  1  0.00000000  0.00000000  0.50000000  1
  Er  Er7  1  0.00000000  0.50000000  0.75000000  1
  O  O8  1  0.50000000  0.50000000  0.22086000  1
  O  O9  1  0.00000000  0.00000000  0.27914000  1
  O  O10  1  0.50000000  0.00000000  0.47086000  1
  O  O11  1  0.50000000  0.00000000  0.02914000  1
  O  O12  1  0.00000000  0.00000000  0.72086000  1
  O  O13  1  0.50000000  0.50000000  0.77914000  1
  O  O14  1  0.00000000  0.50000000  0.97086000  1
  O  O15  1  0.00000000  0.50000000  0.52914000  1
