# generated using pymatgen
data_ZnP2
_symmetry_space_group_name_H-M   'P 1'
_cell_length_a   7.61182100
_cell_length_b   7.32674800
_cell_length_c   8.89691577
_cell_angle_alpha   90.00000000
_cell_angle_beta   102.36203501
_cell_angle_gamma   90.00000000
_symmetry_Int_Tables_number   1
_chemical_formula_structural   ZnP2
_chemical_formula_sum   'Zn8 P16'
_cell_volume   484.67579525
_cell_formula_units_Z   8
loop_
 _symmetry_equiv_pos_site_id
 _symmetry_equiv_pos_as_xyz
  1  'x, y, z'
loop_
 _atom_site_type_symbol
 _atom_site_label
 _atom_site_symmetry_multiplicity
 _atom_site_fract_x
 _atom_site_fract_y
 _atom_site_fract_z
 _atom_site_occupancy
  Zn  Zn0  1  0.72453200  0.59607600  0.39250700  1
  Zn  Zn1  1  0.77546800  0.09607600  0.60749300  1
  Zn  Zn2  1  0.27546800  0.40392400  0.60749300  1
  Zn  Zn3  1  0.22453200  0.90392400  0.39250700  1
  Zn  Zn4  1  0.89398100  0.24688700  0.08074100  1
  Zn  Zn5  1  0.60601900  0.74688700  0.91925900  1
  Zn  Zn6  1  0.10601900  0.75311300  0.91925900  1
  Zn  Zn7  1  0.39398100  0.25311300  0.08074100  1
  P  P8  1  0.89540600  0.75597700  0.07797400  1
  P  P9  1  0.60459400  0.25597700  0.92202600  1
  P  P10  1  0.10459400  0.24402300  0.92202600  1
  P  P11  1  0.39540600  0.74402300  0.07797400  1
  P  P12  1  0.92762000  0.98385300  0.24201200  1
  P  P13  1  0.57238000  0.48385300  0.75798800  1
  P  P14  1  0.07238000  0.01614700  0.75798800  1
  P  P15  1  0.42762000  0.51614700  0.24201200  1
  P  P16  1  0.21641300  0.57313700  0.37457700  1
  P  P17  1  0.28358700  0.07313700  0.62542300  1
  P  P18  1  0.78358700  0.42686300  0.62542300  1
  P  P19  1  0.71641300  0.92686300  0.37457700  1
  P  P20  1  0.44088400  0.98050500  0.23513400  1
  P  P21  1  0.05911600  0.48050500  0.76486600  1
  P  P22  1  0.55911600  0.01949500  0.76486600  1
  P  P23  1  0.94088400  0.51949500  0.23513400  1
