# generated using pymatgen
data_La4Si2S3O7
_symmetry_space_group_name_H-M   'P 1'
_cell_length_a   12.20719400
_cell_length_b   12.20719400
_cell_length_c   14.46996400
_cell_angle_alpha   90.00000000
_cell_angle_beta   90.00000000
_cell_angle_gamma   90.00000000
_symmetry_Int_Tables_number   1
_chemical_formula_structural   La4Si2S3O7
_chemical_formula_sum   'La32 Si16 S24 O56'
_cell_volume   2156.25015551
_cell_formula_units_Z   8
loop_
 _symmetry_equiv_pos_site_id
 _symmetry_equiv_pos_as_xyz
  1  'x, y, z'
loop_
 _atom_site_type_symbol
 _atom_site_label
 _atom_site_symmetry_multiplicity
 _atom_site_fract_x
 _atom_site_fract_y
 _atom_site_fract_z
 _atom_site_occupancy
  La  La0  1  0.67101050  0.17101050  0.25000000  1
  La  La1  1  0.82898950  0.17101050  0.50000000  1
  La  La2  1  0.17101050  0.82898950  0.50000000  1
  La  La3  1  0.32898950  0.82898950  0.25000000  1
  La  La4  1  0.32898950  0.32898950  0.00000000  1
  La  La5  1  0.67101050  0.82898950  0.25000000  1
  La  La6  1  0.32898950  0.17101050  0.25000000  1
  La  La7  1  0.17101050  0.17101050  0.50000000  1
  La  La8  1  0.26304300  0.00000000  0.71810500  1
  La  La9  1  0.23695700  0.50000000  0.21810500  1
  La  La10  1  0.50000000  0.23695700  0.78189500  1
  La  La11  1  0.50000000  0.73695700  0.46810500  1
  La  La12  1  0.50000000  0.26304300  0.46810500  1
  La  La13  1  0.76304300  0.00000000  0.03189500  1
  La  La14  1  0.23695700  0.00000000  0.03189500  1
  La  La15  1  0.00000000  0.26304300  0.28189500  1
  La  La16  1  0.17101050  0.67101050  0.75000000  1
  La  La17  1  0.32898950  0.67101050  0.00000000  1
  La  La18  1  0.67101050  0.32898950  0.00000000  1
  La  La19  1  0.82898950  0.32898950  0.75000000  1
  La  La20  1  0.82898950  0.82898950  0.50000000  1
  La  La21  1  0.17101050  0.32898950  0.75000000  1
  La  La22  1  0.82898950  0.67101050  0.75000000  1
  La  La23  1  0.67101050  0.67101050  0.00000000  1
  La  La24  1  0.76304300  0.50000000  0.21810500  1
  La  La25  1  0.73695700  0.00000000  0.71810500  1
  La  La26  1  0.00000000  0.73695700  0.28189500  1
  La  La27  1  0.00000000  0.23695700  0.96810500  1
  La  La28  1  0.00000000  0.76304300  0.96810500  1
  La  La29  1  0.26304300  0.50000000  0.53189500  1
  La  La30  1  0.73695700  0.50000000  0.53189500  1
  La  La31  1  0.50000000  0.76304300  0.78189500  1
  Si  Si32  1  0.37654400  0.00000000  0.47280900  1
  Si  Si33  1  0.12345600  0.50000000  0.97280900  1
  Si  Si34  1  0.50000000  0.12345600  0.02719100  1
  Si  Si35  1  0.00000000  0.12345600  0.72280900  1
  Si  Si36  1  0.50000000  0.37654400  0.22280900  1
  Si  Si37  1  0.37654400  0.50000000  0.77719100  1
  Si  Si38  1  0.12345600  0.00000000  0.27719100  1
  Si  Si39  1  0.00000000  0.37654400  0.52719100  1
  Si  Si40  1  0.87654400  0.50000000  0.97280900  1
  Si  Si41  1  0.62345600  0.00000000  0.47280900  1
  Si  Si42  1  0.00000000  0.62345600  0.52719100  1
  Si  Si43  1  0.50000000  0.62345600  0.22280900  1
  Si  Si44  1  0.00000000  0.87654400  0.72280900  1
  Si  Si45  1  0.87654400  0.00000000  0.27719100  1
  Si  Si46  1  0.62345600  0.50000000  0.77719100  1
  Si  Si47  1  0.50000000  0.87654400  0.02719100  1
  S  S48  1  0.35091600  0.75000000  0.62500000  1
  S  S49  1  0.75000000  0.35091600  0.37500000  1
  S  S50  1  0.75000000  0.14908400  0.87500000  1
  S  S51  1  0.14908400  0.75000000  0.12500000  1
  S  S52  1  0.14908400  0.25000000  0.12500000  1
  S  S53  1  0.25000000  0.14908400  0.87500000  1
  S  S54  1  0.25000000  0.35091600  0.37500000  1
  S  S55  1  0.35091600  0.25000000  0.62500000  1
  S  S56  1  0.00000000  0.00000000  0.00000000  1
  S  S57  1  0.00000000  0.50000000  0.25000000  1
  S  S58  1  0.50000000  0.00000000  0.25000000  1
  S  S59  1  0.00000000  0.00000000  0.50000000  1
  S  S60  1  0.85091600  0.25000000  0.12500000  1
  S  S61  1  0.25000000  0.85091600  0.87500000  1
  S  S62  1  0.25000000  0.64908400  0.37500000  1
  S  S63  1  0.64908400  0.25000000  0.62500000  1
  S  S64  1  0.64908400  0.75000000  0.62500000  1
  S  S65  1  0.75000000  0.64908400  0.37500000  1
  S  S66  1  0.75000000  0.85091600  0.87500000  1
  S  S67  1  0.85091600  0.75000000  0.12500000  1
  S  S68  1  0.50000000  0.50000000  0.50000000  1
  S  S69  1  0.50000000  0.00000000  0.75000000  1
  S  S70  1  0.00000000  0.50000000  0.75000000  1
  S  S71  1  0.50000000  0.50000000  0.00000000  1
  O  O72  1  0.27558000  0.00000000  0.54977100  1
  O  O73  1  0.22442000  0.50000000  0.04977100  1
  O  O74  1  0.50000000  0.22442000  0.95022900  1
  O  O75  1  0.50000000  0.72442000  0.29977100  1
  O  O76  1  0.50000000  0.27558000  0.29977100  1
  O  O77  1  0.77558000  0.00000000  0.20022900  1
  O  O78  1  0.22442000  0.00000000  0.20022900  1
  O  O79  1  0.00000000  0.27558000  0.45022900  1
  O  O80  1  0.00000000  0.50000000  0.01987600  1
  O  O81  1  0.00000000  0.00000000  0.76987600  1
  O  O82  1  0.00000000  0.00000000  0.23012400  1
  O  O83  1  0.00000000  0.50000000  0.48012400  1
  O  O84  1  0.14002200  0.88265700  0.33099100  1
  O  O85  1  0.35997800  0.61734300  0.83099100  1
  O  O86  1  0.61734300  0.35997800  0.16900900  1
  O  O87  1  0.88265700  0.35997800  0.58099100  1
  O  O88  1  0.61734300  0.14002200  0.08099100  1
  O  O89  1  0.14002200  0.61734300  0.91900900  1
  O  O90  1  0.35997800  0.88265700  0.41900900  1
  O  O91  1  0.88265700  0.14002200  0.66900900  1
  O  O92  1  0.35997800  0.11734300  0.41900900  1
  O  O93  1  0.14002200  0.38265700  0.91900900  1
  O  O94  1  0.38265700  0.14002200  0.08099100  1
  O  O95  1  0.11734300  0.14002200  0.66900900  1
  O  O96  1  0.38265700  0.35997800  0.16900900  1
  O  O97  1  0.35997800  0.38265700  0.83099100  1
  O  O98  1  0.14002200  0.11734300  0.33099100  1
  O  O99  1  0.11734300  0.35997800  0.58099100  1
  O  O100  1  0.77558000  0.50000000  0.04977100  1
  O  O101  1  0.72442000  0.00000000  0.54977100  1
  O  O102  1  0.00000000  0.72442000  0.45022900  1
  O  O103  1  0.00000000  0.22442000  0.79977100  1
  O  O104  1  0.00000000  0.77558000  0.79977100  1
  O  O105  1  0.27558000  0.50000000  0.70022900  1
  O  O106  1  0.72442000  0.50000000  0.70022900  1
  O  O107  1  0.50000000  0.77558000  0.95022900  1
  O  O108  1  0.50000000  0.00000000  0.51987600  1
  O  O109  1  0.50000000  0.50000000  0.26987600  1
  O  O110  1  0.50000000  0.50000000  0.73012400  1
  O  O111  1  0.50000000  0.00000000  0.98012400  1
  O  O112  1  0.64002200  0.38265700  0.83099100  1
  O  O113  1  0.85997800  0.11734300  0.33099100  1
  O  O114  1  0.11734300  0.85997800  0.66900900  1
  O  O115  1  0.38265700  0.85997800  0.08099100  1
  O  O116  1  0.11734300  0.64002200  0.58099100  1
  O  O117  1  0.64002200  0.11734300  0.41900900  1
  O  O118  1  0.85997800  0.38265700  0.91900900  1
  O  O119  1  0.38265700  0.64002200  0.16900900  1
  O  O120  1  0.85997800  0.61734300  0.91900900  1
  O  O121  1  0.64002200  0.88265700  0.41900900  1
  O  O122  1  0.88265700  0.64002200  0.58099100  1
  O  O123  1  0.61734300  0.64002200  0.16900900  1
  O  O124  1  0.88265700  0.85997800  0.66900900  1
  O  O125  1  0.85997800  0.88265700  0.33099100  1
  O  O126  1  0.64002200  0.61734300  0.83099100  1
  O  O127  1  0.61734300  0.85997800  0.08099100  1
