# generated using pymatgen
data_Ba2HoTaO6
_symmetry_space_group_name_H-M   'P 1'
_cell_length_a   6.01417200
_cell_length_b   6.01417200
_cell_length_c   8.53118800
_cell_angle_alpha   90.00000000
_cell_angle_beta   90.00000000
_cell_angle_gamma   90.00000000
_symmetry_Int_Tables_number   1
_chemical_formula_structural   Ba2HoTaO6
_chemical_formula_sum   'Ba4 Ho2 Ta2 O12'
_cell_volume   308.57532941
_cell_formula_units_Z   2
loop_
 _symmetry_equiv_pos_site_id
 _symmetry_equiv_pos_as_xyz
  1  'x, y, z'
loop_
 _atom_site_type_symbol
 _atom_site_label
 _atom_site_symmetry_multiplicity
 _atom_site_fract_x
 _atom_site_fract_y
 _atom_site_fract_z
 _atom_site_occupancy
  Ba  Ba0  1  0.00000000  0.50000000  0.25000000  1
  Ba  Ba1  1  0.50000000  0.00000000  0.25000000  1
  Ba  Ba2  1  0.50000000  0.00000000  0.75000000  1
  Ba  Ba3  1  0.00000000  0.50000000  0.75000000  1
  Ho  Ho4  1  0.00000000  0.00000000  0.00000000  1
  Ho  Ho5  1  0.50000000  0.50000000  0.50000000  1
  Ta  Ta6  1  0.50000000  0.50000000  0.00000000  1
  Ta  Ta7  1  0.00000000  0.00000000  0.50000000  1
  O  O8  1  0.71630850  0.75611650  0.00000000  1
  O  O9  1  0.24388350  0.71630850  0.00000000  1
  O  O10  1  0.75611650  0.28369150  0.00000000  1
  O  O11  1  0.78369150  0.74388350  0.50000000  1
  O  O12  1  0.00000000  0.00000000  0.26363600  1
  O  O13  1  0.50000000  0.50000000  0.23636400  1
  O  O14  1  0.21630850  0.25611650  0.50000000  1
  O  O15  1  0.74388350  0.21630850  0.50000000  1
  O  O16  1  0.25611650  0.78369150  0.50000000  1
  O  O17  1  0.28369150  0.24388350  0.00000000  1
  O  O18  1  0.50000000  0.50000000  0.76363600  1
  O  O19  1  0.00000000  0.00000000  0.73636400  1
