# generated using pymatgen
data_Ce5Zr3O16
_symmetry_space_group_name_H-M   'P 1'
_cell_length_a   10.70252200
_cell_length_b   10.80521000
_cell_length_c   5.40638700
_cell_angle_alpha   90.00000000
_cell_angle_beta   90.00000000
_cell_angle_gamma   90.00000000
_symmetry_Int_Tables_number   1
_chemical_formula_structural   Ce5Zr3O16
_chemical_formula_sum   'Ce10 Zr6 O32'
_cell_volume   625.21079962
_cell_formula_units_Z   2
loop_
 _symmetry_equiv_pos_site_id
 _symmetry_equiv_pos_as_xyz
  1  'x, y, z'
loop_
 _atom_site_type_symbol
 _atom_site_label
 _atom_site_symmetry_multiplicity
 _atom_site_fract_x
 _atom_site_fract_y
 _atom_site_fract_z
 _atom_site_occupancy
  Ce  Ce0  1  0.25000000  0.75000000  0.99131100  1
  Ce  Ce1  1  0.24290900  0.00000000  0.50000000  1
  Ce  Ce2  1  0.25000000  0.25000000  0.00868900  1
  Ce  Ce3  1  0.75709100  0.00000000  0.50000000  1
  Ce  Ce4  1  0.50000000  0.00000000  0.00000000  1
  Ce  Ce5  1  0.75000000  0.25000000  0.99131100  1
  Ce  Ce6  1  0.74290900  0.50000000  0.50000000  1
  Ce  Ce7  1  0.75000000  0.75000000  0.00868900  1
  Ce  Ce8  1  0.25709100  0.50000000  0.50000000  1
  Ce  Ce9  1  0.00000000  0.50000000  0.00000000  1
  Zr  Zr10  1  0.00000000  0.00000000  0.00000000  1
  Zr  Zr11  1  0.50000000  0.75590300  0.50000000  1
  Zr  Zr12  1  0.50000000  0.24409700  0.50000000  1
  Zr  Zr13  1  0.50000000  0.50000000  0.00000000  1
  Zr  Zr14  1  0.00000000  0.25590300  0.50000000  1
  Zr  Zr15  1  0.00000000  0.74409700  0.50000000  1
  O  O16  1  0.61332400  0.63886100  0.29092500  1
  O  O17  1  0.87136600  0.10679000  0.20292600  1
  O  O18  1  0.38667600  0.63886100  0.70907500  1
  O  O19  1  0.12863400  0.10679000  0.79707400  1
  O  O20  1  0.38213500  0.85906700  0.27095900  1
  O  O21  1  0.12863400  0.89321000  0.20292600  1
  O  O22  1  0.61332400  0.36113900  0.70907500  1
  O  O23  1  0.36910400  0.88540000  0.76216800  1
  O  O24  1  0.38667600  0.36113900  0.29092500  1
  O  O25  1  0.63089600  0.88540000  0.23783200  1
  O  O26  1  0.61786500  0.85906700  0.72904100  1
  O  O27  1  0.87136600  0.89321000  0.79707400  1
  O  O28  1  0.61786500  0.14093300  0.27095900  1
  O  O29  1  0.36910400  0.11460000  0.23783200  1
  O  O30  1  0.38213500  0.14093300  0.72904100  1
  O  O31  1  0.63089600  0.11460000  0.76216800  1
  O  O32  1  0.11332400  0.13886100  0.29092500  1
  O  O33  1  0.37136600  0.60679000  0.20292600  1
  O  O34  1  0.88667600  0.13886100  0.70907500  1
  O  O35  1  0.62863400  0.60679000  0.79707400  1
  O  O36  1  0.88213500  0.35906700  0.27095900  1
  O  O37  1  0.62863400  0.39321000  0.20292600  1
  O  O38  1  0.11332400  0.86113900  0.70907500  1
  O  O39  1  0.86910400  0.38540000  0.76216800  1
  O  O40  1  0.88667600  0.86113900  0.29092500  1
  O  O41  1  0.13089600  0.38540000  0.23783200  1
  O  O42  1  0.11786500  0.35906700  0.72904100  1
  O  O43  1  0.37136600  0.39321000  0.79707400  1
  O  O44  1  0.11786500  0.64093300  0.27095900  1
  O  O45  1  0.86910400  0.61460000  0.23783200  1
  O  O46  1  0.88213500  0.64093300  0.72904100  1
  O  O47  1  0.13089600  0.61460000  0.76216800  1
