# generated using pymatgen
data_Na3WN3
_symmetry_space_group_name_H-M   'P 1'
_cell_length_a   13.87928600
_cell_length_b   11.10078400
_cell_length_c   6.44309673
_cell_angle_alpha   90.00000000
_cell_angle_beta   117.23852822
_cell_angle_gamma   90.00000000
_symmetry_Int_Tables_number   1
_chemical_formula_structural   Na3WN3
_chemical_formula_sum   'Na24 W8 N24'
_cell_volume   882.61303531
_cell_formula_units_Z   8
loop_
 _symmetry_equiv_pos_site_id
 _symmetry_equiv_pos_as_xyz
  1  'x, y, z'
loop_
 _atom_site_type_symbol
 _atom_site_label
 _atom_site_symmetry_multiplicity
 _atom_site_fract_x
 _atom_site_fract_y
 _atom_site_fract_z
 _atom_site_occupancy
  Na  Na0  1  0.61470400  0.53391100  0.61162300  1
  Na  Na1  1  0.61470400  0.46608900  0.11162300  1
  Na  Na2  1  0.36505150  0.48265550  0.12693600  1
  Na  Na3  1  0.36505150  0.51734450  0.62693600  1
  Na  Na4  1  0.12417750  0.48382650  0.30712900  1
  Na  Na5  1  0.12417750  0.51617350  0.80712900  1
  Na  Na6  1  0.88043300  0.48503800  0.07450500  1
  Na  Na7  1  0.88043300  0.51496200  0.57450500  1
  Na  Na8  1  0.98970550  0.28481750  0.52863000  1
  Na  Na9  1  0.98970550  0.71518250  0.02863000  1
  Na  Na10  1  0.23314000  0.76231400  0.53160500  1
  Na  Na11  1  0.23314000  0.23768600  0.03160500  1
  Na  Na12  1  0.11470400  0.03391100  0.61162300  1
  Na  Na13  1  0.11470400  0.96608900  0.11162300  1
  Na  Na14  1  0.86505150  0.98265550  0.12693600  1
  Na  Na15  1  0.86505150  0.01734450  0.62693600  1
  Na  Na16  1  0.62417750  0.98382650  0.30712900  1
  Na  Na17  1  0.62417750  0.01617350  0.80712900  1
  Na  Na18  1  0.38043300  0.98503800  0.07450500  1
  Na  Na19  1  0.38043300  0.01496200  0.57450500  1
  Na  Na20  1  0.48970550  0.78481750  0.52863000  1
  Na  Na21  1  0.48970550  0.21518250  0.02863000  1
  Na  Na22  1  0.73314000  0.26231400  0.53160500  1
  Na  Na23  1  0.73314000  0.73768600  0.03160500  1
  W  W24  1  0.25061600  0.74169800  0.07577300  1
  W  W25  1  0.25061600  0.25830200  0.57577300  1
  W  W26  1  0.99897550  0.76084150  0.50828800  1
  W  W27  1  0.99897550  0.23915850  0.00828800  1
  W  W28  1  0.75061600  0.24169800  0.07577300  1
  W  W29  1  0.75061600  0.75830200  0.57577300  1
  W  W30  1  0.49897550  0.26084150  0.50828800  1
  W  W31  1  0.49897550  0.73915850  0.00828800  1
  N  N32  1  0.85043750  0.20545450  0.95039000  1
  N  N33  1  0.85043750  0.79454550  0.45039000  1
  N  N34  1  0.10346800  0.22478900  0.33409600  1
  N  N35  1  0.10346800  0.77521100  0.83409600  1
  N  N36  1  0.24698250  0.60989550  0.24441900  1
  N  N37  1  0.24698250  0.39010450  0.74441900  1
  N  N38  1  0.03493000  0.86795800  0.33570900  1
  N  N39  1  0.03493000  0.13204200  0.83570900  1
  N  N40  1  0.00621150  0.60743950  0.40865200  1
  N  N41  1  0.00621150  0.39256050  0.90865200  1
  N  N42  1  0.79619700  0.37162200  0.27404500  1
  N  N43  1  0.79619700  0.62837800  0.77404500  1
  N  N44  1  0.35043750  0.70545450  0.95039000  1
  N  N45  1  0.35043750  0.29454550  0.45039000  1
  N  N46  1  0.60346800  0.72478900  0.33409600  1
  N  N47  1  0.60346800  0.27521100  0.83409600  1
  N  N48  1  0.74698250  0.10989550  0.24441900  1
  N  N49  1  0.74698250  0.89010450  0.74441900  1
  N  N50  1  0.53493000  0.36795800  0.33570900  1
  N  N51  1  0.53493000  0.63204200  0.83570900  1
  N  N52  1  0.50621150  0.10743950  0.40865200  1
  N  N53  1  0.50621150  0.89256050  0.90865200  1
  N  N54  1  0.29619700  0.87162200  0.27404500  1
  N  N55  1  0.29619700  0.12837800  0.77404500  1
