# generated using pymatgen
data_Ba3Y4O9
_symmetry_space_group_name_H-M   'P 1'
_cell_length_a   6.16072812
_cell_length_b   6.16072812
_cell_length_c   25.70381358
_cell_angle_alpha   90.00000000
_cell_angle_beta   90.00000000
_cell_angle_gamma   120.00000000
_symmetry_Int_Tables_number   1
_chemical_formula_structural   Ba3Y4O9
_chemical_formula_sum   'Ba9 Y12 O27'
_cell_volume   844.87465220
_cell_formula_units_Z   3
loop_
 _symmetry_equiv_pos_site_id
 _symmetry_equiv_pos_as_xyz
  1  'x, y, z'
loop_
 _atom_site_type_symbol
 _atom_site_label
 _atom_site_symmetry_multiplicity
 _atom_site_fract_x
 _atom_site_fract_y
 _atom_site_fract_z
 _atom_site_occupancy
  Ba  Ba0  1  0.33333333  0.66666667  0.25021267  1
  Ba  Ba1  1  0.00000000  0.00000000  0.16478800  1
  Ba  Ba2  1  0.66666667  0.33333333  0.33161333  1
  Ba  Ba3  1  0.00000000  0.00000000  0.58354600  1
  Ba  Ba4  1  0.66666667  0.33333333  0.49812133  1
  Ba  Ba5  1  0.33333333  0.66666667  0.66494667  1
  Ba  Ba6  1  0.66666667  0.33333333  0.91687933  1
  Ba  Ba7  1  0.33333333  0.66666667  0.83145467  1
  Ba  Ba8  1  0.00000000  0.00000000  0.99828000  1
  Y  Y9  1  0.00000000  0.00000000  0.29961900  1
  Y  Y10  1  0.66666667  0.33333333  0.07105633  1
  Y  Y11  1  0.66666667  0.33333333  0.19646933  1
  Y  Y12  1  0.33333333  0.66666667  0.09193667  1
  Y  Y13  1  0.66666667  0.33333333  0.63295233  1
  Y  Y14  1  0.33333333  0.66666667  0.40438967  1
  Y  Y15  1  0.33333333  0.66666667  0.52980267  1
  Y  Y16  1  0.00000000  0.00000000  0.42527000  1
  Y  Y17  1  0.33333333  0.66666667  0.96628567  1
  Y  Y18  1  0.00000000  0.00000000  0.73772300  1
  Y  Y19  1  0.00000000  0.00000000  0.86313600  1
  Y  Y20  1  0.66666667  0.33333333  0.75860333  1
  O  O21  1  0.43103833  0.44449867  0.02490467  1
  O  O22  1  0.55550133  0.98653967  0.02490467  1
  O  O23  1  0.01346033  0.56896167  0.02490467  1
  O  O24  1  0.44243633  0.42764667  0.13719867  1
  O  O25  1  0.57235333  0.01478967  0.13719867  1
  O  O26  1  0.98521033  0.55756367  0.13719867  1
  O  O27  1  0.76839500  0.66620800  0.24810900  1
  O  O28  1  0.89781300  0.23160500  0.24810900  1
  O  O29  1  0.33379200  0.10218700  0.24810900  1
  O  O30  1  0.09770500  0.77783200  0.35823800  1
  O  O31  1  0.22216800  0.31987300  0.35823800  1
  O  O32  1  0.68012700  0.90229500  0.35823800  1
  O  O33  1  0.10910300  0.76098000  0.47053200  1
  O  O34  1  0.23902000  0.34812300  0.47053200  1
  O  O35  1  0.65187700  0.89089700  0.47053200  1
  O  O36  1  0.43506167  0.99954133  0.58144233  1
  O  O37  1  0.56447967  0.56493833  0.58144233  1
  O  O38  1  0.00045867  0.43552033  0.58144233  1
  O  O39  1  0.76437167  0.11116533  0.69157133  1
  O  O40  1  0.88883467  0.65320633  0.69157133  1
  O  O41  1  0.34679367  0.23562833  0.69157133  1
  O  O42  1  0.77576967  0.09431333  0.80386533  1
  O  O43  1  0.90568667  0.68145633  0.80386533  1
  O  O44  1  0.31854367  0.22423033  0.80386533  1
  O  O45  1  0.10172833  0.33287467  0.91477567  1
  O  O46  1  0.23114633  0.89827167  0.91477567  1
  O  O47  1  0.66712533  0.76885367  0.91477567  1
