# generated using pymatgen
data_Dy4(B2O5)3
_symmetry_space_group_name_H-M   'P 1'
_cell_length_a   11.75313600
_cell_length_b   4.40702000
_cell_length_c   18.96833691
_cell_angle_alpha   90.00000000
_cell_angle_beta   96.49353153
_cell_angle_gamma   90.00000000
_symmetry_Int_Tables_number   1
_chemical_formula_structural   Dy4(B2O5)3
_chemical_formula_sum   'Dy16 B24 O60'
_cell_volume   976.18673585
_cell_formula_units_Z   4
loop_
 _symmetry_equiv_pos_site_id
 _symmetry_equiv_pos_as_xyz
  1  'x, y, z'
loop_
 _atom_site_type_symbol
 _atom_site_label
 _atom_site_symmetry_multiplicity
 _atom_site_fract_x
 _atom_site_fract_y
 _atom_site_fract_z
 _atom_site_occupancy
  Dy  Dy0  1  0.86686550  0.80130250  0.90131400  1
  Dy  Dy1  1  0.63313450  0.30130250  0.59868600  1
  Dy  Dy2  1  0.63313450  0.69869750  0.09868600  1
  Dy  Dy3  1  0.86686550  0.19869750  0.40131400  1
  Dy  Dy4  1  0.63732200  0.28954600  0.80301200  1
  Dy  Dy5  1  0.86267800  0.78954600  0.69698800  1
  Dy  Dy6  1  0.86267800  0.21045400  0.19698800  1
  Dy  Dy7  1  0.63732200  0.71045400  0.30301200  1
  Dy  Dy8  1  0.36686550  0.30130250  0.90131400  1
  Dy  Dy9  1  0.13313450  0.80130250  0.59868600  1
  Dy  Dy10  1  0.13313450  0.19869750  0.09868600  1
  Dy  Dy11  1  0.36686550  0.69869750  0.40131400  1
  Dy  Dy12  1  0.13732200  0.78954600  0.80301200  1
  Dy  Dy13  1  0.36267800  0.28954600  0.69698800  1
  Dy  Dy14  1  0.36267800  0.71045400  0.19698800  1
  Dy  Dy15  1  0.13732200  0.21045400  0.30301200  1
  B  B16  1  0.66961900  0.30840400  0.97399700  1
  B  B17  1  0.83038100  0.80840400  0.52600300  1
  B  B18  1  0.83038100  0.19159600  0.02600300  1
  B  B19  1  0.66961900  0.69159600  0.47399700  1
  B  B20  1  0.56724700  0.77343600  0.69429500  1
  B  B21  1  0.93275300  0.27343600  0.80570500  1
  B  B22  1  0.93275300  0.72656400  0.30570500  1
  B  B23  1  0.56724700  0.22656400  0.19429500  1
  B  B24  1  0.90238100  0.70630800  0.08768300  1
  B  B25  1  0.59761900  0.20630800  0.41231700  1
  B  B26  1  0.59761900  0.79369200  0.91231700  1
  B  B27  1  0.90238100  0.29369200  0.58768300  1
  B  B28  1  0.16961900  0.80840400  0.97399700  1
  B  B29  1  0.33038100  0.30840400  0.52600300  1
  B  B30  1  0.33038100  0.69159600  0.02600300  1
  B  B31  1  0.16961900  0.19159600  0.47399700  1
  B  B32  1  0.06724700  0.27343600  0.69429500  1
  B  B33  1  0.43275300  0.77343600  0.80570500  1
  B  B34  1  0.43275300  0.22656400  0.30570500  1
  B  B35  1  0.06724700  0.72656400  0.19429500  1
  B  B36  1  0.40238100  0.20630800  0.08768300  1
  B  B37  1  0.09761900  0.70630800  0.41231700  1
  B  B38  1  0.09761900  0.29369200  0.91231700  1
  B  B39  1  0.40238100  0.79369200  0.58768300  1
  O  O40  1  0.81889500  0.74093600  0.13872300  1
  O  O41  1  0.68110500  0.75906400  0.86127700  1
  O  O42  1  0.79157150  0.70395250  0.45099300  1
  O  O43  1  0.70842850  0.20395250  0.04900700  1
  O  O44  1  0.70842850  0.79604750  0.54900700  1
  O  O45  1  0.79157150  0.29604750  0.95099300  1
  O  O46  1  0.98678450  0.82336550  0.37821700  1
  O  O47  1  0.51321550  0.32336550  0.12178300  1
  O  O48  1  0.81889500  0.25906400  0.63872300  1
  O  O49  1  0.98678450  0.17663450  0.87821700  1
  O  O50  1  0.56507700  0.90095000  0.19671800  1
  O  O51  1  0.93492300  0.40095000  0.30328200  1
  O  O52  1  0.93492300  0.59905000  0.80328200  1
  O  O53  1  0.56507700  0.09905000  0.69671800  1
  O  O54  1  0.58586700  0.87442800  0.42955200  1
  O  O55  1  0.91413300  0.37442800  0.07044800  1
  O  O56  1  0.91413300  0.62557200  0.57044800  1
  O  O57  1  0.58586700  0.12557200  0.92955200  1
  O  O58  1  0.87241600  0.11893400  0.52163100  1
  O  O59  1  0.62758400  0.61893400  0.97836900  1
  O  O60  1  0.62758400  0.38106600  0.47836900  1
  O  O61  1  0.87241600  0.88106600  0.02163100  1
  O  O62  1  0.81939200  0.86618400  0.29673400  1
  O  O63  1  0.68060800  0.36618400  0.20326600  1
  O  O64  1  0.68060800  0.63381600  0.70326600  1
  O  O65  1  0.81939200  0.13381600  0.79673400  1
  O  O66  1  0.00000000  0.13461500  0.75000000  1
  O  O67  1  0.00000000  0.86538500  0.25000000  1
  O  O68  1  0.51321550  0.67663450  0.62178300  1
  O  O69  1  0.68110500  0.24093600  0.36127700  1
  O  O70  1  0.31889500  0.24093600  0.13872300  1
  O  O71  1  0.18110500  0.25906400  0.86127700  1
  O  O72  1  0.29157150  0.20395250  0.45099300  1
  O  O73  1  0.20842850  0.70395250  0.04900700  1
  O  O74  1  0.20842850  0.29604750  0.54900700  1
  O  O75  1  0.29157150  0.79604750  0.95099300  1
  O  O76  1  0.48678450  0.32336550  0.37821700  1
  O  O77  1  0.01321550  0.82336550  0.12178300  1
  O  O78  1  0.31889500  0.75906400  0.63872300  1
  O  O79  1  0.48678450  0.67663450  0.87821700  1
  O  O80  1  0.06507700  0.40095000  0.19671800  1
  O  O81  1  0.43492300  0.90095000  0.30328200  1
  O  O82  1  0.43492300  0.09905000  0.80328200  1
  O  O83  1  0.06507700  0.59905000  0.69671800  1
  O  O84  1  0.08586700  0.37442800  0.42955200  1
  O  O85  1  0.41413300  0.87442800  0.07044800  1
  O  O86  1  0.41413300  0.12557200  0.57044800  1
  O  O87  1  0.08586700  0.62557200  0.92955200  1
  O  O88  1  0.37241600  0.61893400  0.52163100  1
  O  O89  1  0.12758400  0.11893400  0.97836900  1
  O  O90  1  0.12758400  0.88106600  0.47836900  1
  O  O91  1  0.37241600  0.38106600  0.02163100  1
  O  O92  1  0.31939200  0.36618400  0.29673400  1
  O  O93  1  0.18060800  0.86618400  0.20326600  1
  O  O94  1  0.18060800  0.13381600  0.70326600  1
  O  O95  1  0.31939200  0.63381600  0.79673400  1
  O  O96  1  0.50000000  0.63461500  0.75000000  1
  O  O97  1  0.50000000  0.36538500  0.25000000  1
  O  O98  1  0.01321550  0.17663450  0.62178300  1
  O  O99  1  0.18110500  0.74093600  0.36127700  1
