# generated using pymatgen
data_Na2CoP2O7
_symmetry_space_group_name_H-M   'P 1'
_cell_length_a   5.32499100
_cell_length_b   8.81199600
_cell_length_c   13.96465000
_cell_angle_alpha   90.00000000
_cell_angle_beta   90.00000000
_cell_angle_gamma   90.00000000
_symmetry_Int_Tables_number   1
_chemical_formula_structural   Na2CoP2O7
_chemical_formula_sum   'Na8 Co4 P8 O28'
_cell_volume   655.27443518
_cell_formula_units_Z   4
loop_
 _symmetry_equiv_pos_site_id
 _symmetry_equiv_pos_as_xyz
  1  'x, y, z'
loop_
 _atom_site_type_symbol
 _atom_site_label
 _atom_site_symmetry_multiplicity
 _atom_site_fract_x
 _atom_site_fract_y
 _atom_site_fract_z
 _atom_site_occupancy
  Na  Na0  1  0.75000000  0.86643100  0.60255400  1
  Na  Na1  1  0.75000000  0.63356900  0.10255400  1
  Na  Na2  1  0.25000000  0.13356900  0.39744600  1
  Na  Na3  1  0.25000000  0.36643100  0.89744600  1
  Na  Na4  1  0.25000000  0.86506700  0.20297400  1
  Na  Na5  1  0.25000000  0.63493300  0.70297400  1
  Na  Na6  1  0.75000000  0.13493300  0.79702600  1
  Na  Na7  1  0.75000000  0.36506700  0.29702600  1
  Co  Co8  1  0.75000000  0.76888600  0.32980500  1
  Co  Co9  1  0.75000000  0.73111400  0.82980500  1
  Co  Co10  1  0.25000000  0.23111400  0.67019500  1
  Co  Co11  1  0.25000000  0.26888600  0.17019500  1
  P  P12  1  0.75000000  0.05464800  0.19118700  1
  P  P13  1  0.75000000  0.44535200  0.69118700  1
  P  P14  1  0.25000000  0.94535200  0.80881300  1
  P  P15  1  0.25000000  0.55464800  0.30881300  1
  P  P16  1  0.75000000  0.27473900  0.03985700  1
  P  P17  1  0.75000000  0.22526100  0.53985700  1
  P  P18  1  0.25000000  0.72526100  0.96014300  1
  P  P19  1  0.25000000  0.77473900  0.46014300  1
  O  O20  1  0.99106400  0.12193000  0.23460900  1
  O  O21  1  0.50893600  0.37807000  0.73460900  1
  O  O22  1  0.49106400  0.87807000  0.76539100  1
  O  O23  1  0.00893600  0.62193000  0.26539100  1
  O  O24  1  0.00893600  0.87807000  0.76539100  1
  O  O25  1  0.49106400  0.62193000  0.26539100  1
  O  O26  1  0.50893600  0.12193000  0.23460900  1
  O  O27  1  0.99106400  0.37807000  0.73460900  1
  O  O28  1  0.75000000  0.88078100  0.19626300  1
  O  O29  1  0.75000000  0.61921900  0.69626300  1
  O  O30  1  0.25000000  0.11921900  0.80373700  1
  O  O31  1  0.25000000  0.38078100  0.30373700  1
  O  O32  1  0.75000000  0.09634600  0.07822200  1
  O  O33  1  0.75000000  0.40365400  0.57822200  1
  O  O34  1  0.25000000  0.90365400  0.92177800  1
  O  O35  1  0.25000000  0.59634600  0.42177800  1
  O  O36  1  0.51427800  0.35123000  0.08244900  1
  O  O37  1  0.98572200  0.14877000  0.58244900  1
  O  O38  1  0.01427800  0.64877000  0.91755100  1
  O  O39  1  0.48572200  0.85123000  0.41755100  1
  O  O40  1  0.48572200  0.64877000  0.91755100  1
  O  O41  1  0.01427800  0.85123000  0.41755100  1
  O  O42  1  0.98572200  0.35123000  0.08244900  1
  O  O43  1  0.51427800  0.14877000  0.58244900  1
  O  O44  1  0.75000000  0.26491500  0.93254900  1
  O  O45  1  0.75000000  0.23508500  0.43254900  1
  O  O46  1  0.25000000  0.73508500  0.06745100  1
  O  O47  1  0.25000000  0.76491500  0.56745100  1
