# generated using pymatgen
data_In4Se3
_symmetry_space_group_name_H-M   'P 1'
_cell_length_a   4.17892800
_cell_length_b   12.57113000
_cell_length_c   15.59367900
_cell_angle_alpha   90.00000000
_cell_angle_beta   90.00000000
_cell_angle_gamma   90.00000000
_symmetry_Int_Tables_number   1
_chemical_formula_structural   In4Se3
_chemical_formula_sum   'In16 Se12'
_cell_volume   819.19594907
_cell_formula_units_Z   4
loop_
 _symmetry_equiv_pos_site_id
 _symmetry_equiv_pos_as_xyz
  1  'x, y, z'
loop_
 _atom_site_type_symbol
 _atom_site_label
 _atom_site_symmetry_multiplicity
 _atom_site_fract_x
 _atom_site_fract_y
 _atom_site_fract_z
 _atom_site_occupancy
  In  In0  1  0.00000000  0.60458200  0.57688800  1
  In  In1  1  0.00000000  0.39541800  0.42311200  1
  In  In2  1  0.50000000  0.10458200  0.92311200  1
  In  In3  1  0.50000000  0.89541800  0.07688800  1
  In  In4  1  0.50000000  0.14543200  0.53196700  1
  In  In5  1  0.50000000  0.85456800  0.46803300  1
  In  In6  1  0.00000000  0.64543200  0.96803300  1
  In  In7  1  0.00000000  0.35456800  0.03196700  1
  In  In8  1  0.50000000  0.02460400  0.68498000  1
  In  In9  1  0.50000000  0.97539600  0.31502000  1
  In  In10  1  0.00000000  0.52460400  0.81502000  1
  In  In11  1  0.00000000  0.47539600  0.18498000  1
  In  In12  1  0.50000000  0.83817300  0.78976800  1
  In  In13  1  0.50000000  0.16182700  0.21023200  1
  In  In14  1  0.00000000  0.33817300  0.71023200  1
  In  In15  1  0.00000000  0.66182700  0.28976800  1
  Se  Se16  1  0.50000000  0.65629800  0.07550900  1
  Se  Se17  1  0.50000000  0.34370200  0.92449100  1
  Se  Se18  1  0.00000000  0.15629800  0.42449100  1
  Se  Se19  1  0.00000000  0.84370200  0.57550900  1
  Se  Se20  1  0.50000000  0.63698000  0.73068200  1
  Se  Se21  1  0.50000000  0.36302000  0.26931800  1
  Se  Se22  1  0.00000000  0.13698000  0.76931800  1
  Se  Se23  1  0.00000000  0.86302000  0.23068200  1
  Se  Se24  1  0.50000000  0.34918400  0.59641900  1
  Se  Se25  1  0.50000000  0.65081600  0.40358100  1
  Se  Se26  1  0.00000000  0.84918400  0.90358100  1
  Se  Se27  1  0.00000000  0.15081600  0.09641900  1
