# generated using pymatgen
data_HgB4O7
_symmetry_space_group_name_H-M   'P 1'
_cell_length_a   4.24180200
_cell_length_b   4.44825600
_cell_length_c   10.83168600
_cell_angle_alpha   90.00000000
_cell_angle_beta   90.00000000
_cell_angle_gamma   90.00000000
_symmetry_Int_Tables_number   1
_chemical_formula_structural   HgB4O7
_chemical_formula_sum   'Hg2 B8 O14'
_cell_volume   204.37898006
_cell_formula_units_Z   2
loop_
 _symmetry_equiv_pos_site_id
 _symmetry_equiv_pos_as_xyz
  1  'x, y, z'
loop_
 _atom_site_type_symbol
 _atom_site_label
 _atom_site_symmetry_multiplicity
 _atom_site_fract_x
 _atom_site_fract_y
 _atom_site_fract_z
 _atom_site_occupancy
  Hg  Hg0  1  0.39269500  0.17684500  0.50000000  1
  Hg  Hg1  1  0.89269500  0.82315500  0.00000000  1
  B  B2  1  0.40852300  0.32631100  0.12061700  1
  B  B3  1  0.93112000  0.17298700  0.75122300  1
  B  B4  1  0.43112000  0.82701300  0.74877700  1
  B  B5  1  0.90852300  0.67368900  0.37938300  1
  B  B6  1  0.90852300  0.67368900  0.62061700  1
  B  B7  1  0.40852300  0.32631100  0.87938300  1
  B  B8  1  0.93112000  0.17298700  0.24877700  1
  B  B9  1  0.43112000  0.82701300  0.25122300  1
  O  O10  1  0.07219500  0.26697100  0.86516200  1
  O  O11  1  0.57219500  0.73302900  0.63483800  1
  O  O12  1  0.48014800  0.64439500  0.14170400  1
  O  O13  1  0.98014800  0.35560500  0.35829600  1
  O  O14  1  0.98014800  0.35560500  0.64170400  1
  O  O15  1  0.48014800  0.64439500  0.85829600  1
  O  O16  1  0.57597600  0.13293300  0.22089700  1
  O  O17  1  0.07597600  0.86706700  0.27910300  1
  O  O18  1  0.07597600  0.86706700  0.72089700  1
  O  O19  1  0.57597600  0.13293300  0.77910300  1
  O  O20  1  0.51655200  0.23300300  0.00000000  1
  O  O21  1  0.01655200  0.76699700  0.50000000  1
  O  O22  1  0.07219500  0.26697100  0.13483800  1
  O  O23  1  0.57219500  0.73302900  0.36516200  1
