# generated using pymatgen
data_CdCu2GeSe4
_symmetry_space_group_name_H-M   'P 1'
_cell_length_a   5.83438800
_cell_length_b   5.83438800
_cell_length_c   11.23498400
_cell_angle_alpha   90.00000000
_cell_angle_beta   90.00000000
_cell_angle_gamma   90.00000000
_symmetry_Int_Tables_number   1
_chemical_formula_structural   CdCu2GeSe4
_chemical_formula_sum   'Cd2 Cu4 Ge2 Se8'
_cell_volume   382.43979162
_cell_formula_units_Z   2
loop_
 _symmetry_equiv_pos_site_id
 _symmetry_equiv_pos_as_xyz
  1  'x, y, z'
loop_
 _atom_site_type_symbol
 _atom_site_label
 _atom_site_symmetry_multiplicity
 _atom_site_fract_x
 _atom_site_fract_y
 _atom_site_fract_z
 _atom_site_occupancy
  Cd  Cd0  1  0.00000000  0.00000000  0.00000000  1
  Cd  Cd1  1  0.50000000  0.50000000  0.50000000  1
  Cu  Cu2  1  0.00000000  0.50000000  0.25000000  1
  Cu  Cu3  1  0.50000000  0.00000000  0.25000000  1
  Cu  Cu4  1  0.50000000  0.00000000  0.75000000  1
  Cu  Cu5  1  0.00000000  0.50000000  0.75000000  1
  Ge  Ge6  1  0.50000000  0.50000000  0.00000000  1
  Ge  Ge7  1  0.00000000  0.00000000  0.50000000  1
  Se  Se8  1  0.73154000  0.26846000  0.13615500  1
  Se  Se9  1  0.23154000  0.23154000  0.36384500  1
  Se  Se10  1  0.76846000  0.76846000  0.36384500  1
  Se  Se11  1  0.26846000  0.73154000  0.13615500  1
  Se  Se12  1  0.23154000  0.76846000  0.63615500  1
  Se  Se13  1  0.73154000  0.73154000  0.86384500  1
  Se  Se14  1  0.26846000  0.26846000  0.86384500  1
  Se  Se15  1  0.76846000  0.23154000  0.63615500  1
