# generated using pymatgen
data_Ba2NaNb5O15
_symmetry_space_group_name_H-M   'P 1'
_cell_length_a   12.64543700
_cell_length_b   12.64543700
_cell_length_c   4.14390300
_cell_angle_alpha   90.00000000
_cell_angle_beta   90.00000000
_cell_angle_gamma   90.00000000
_symmetry_Int_Tables_number   1
_chemical_formula_structural   Ba2NaNb5O15
_chemical_formula_sum   'Ba4 Na2 Nb10 O30'
_cell_volume   662.63941577
_cell_formula_units_Z   2
loop_
 _symmetry_equiv_pos_site_id
 _symmetry_equiv_pos_as_xyz
  1  'x, y, z'
loop_
 _atom_site_type_symbol
 _atom_site_label
 _atom_site_symmetry_multiplicity
 _atom_site_fract_x
 _atom_site_fract_y
 _atom_site_fract_z
 _atom_site_occupancy
  Ba  Ba0  1  0.82943100  0.32943100  0.18301400  1
  Ba  Ba1  1  0.67056900  0.82943100  0.18301400  1
  Ba  Ba2  1  0.32943100  0.17056900  0.18301400  1
  Ba  Ba3  1  0.17056900  0.67056900  0.18301400  1
  Na  Na4  1  0.50000000  0.50000000  0.13578100  1
  Na  Na5  1  0.00000000  0.00000000  0.13578100  1
  Nb  Nb6  1  0.50000000  0.00000000  0.67161000  1
  Nb  Nb7  1  0.00000000  0.50000000  0.67161000  1
  Nb  Nb8  1  0.92422200  0.79173200  0.67733000  1
  Nb  Nb9  1  0.07577800  0.20826800  0.67733000  1
  Nb  Nb10  1  0.79173200  0.07577800  0.67733000  1
  Nb  Nb11  1  0.20826800  0.92422200  0.67733000  1
  Nb  Nb12  1  0.70826800  0.57577800  0.67733000  1
  Nb  Nb13  1  0.42422200  0.70826800  0.67733000  1
  Nb  Nb14  1  0.57577800  0.29173200  0.67733000  1
  Nb  Nb15  1  0.29173200  0.42422200  0.67733000  1
  O  O16  1  0.50000000  0.00000000  0.22498800  1
  O  O17  1  0.00000000  0.50000000  0.22498800  1
  O  O18  1  0.42208000  0.70423400  0.23126900  1
  O  O19  1  0.57792000  0.29576600  0.23126900  1
  O  O20  1  0.70423400  0.57792000  0.23126900  1
  O  O21  1  0.29576600  0.42208000  0.23126900  1
  O  O22  1  0.79576600  0.07792000  0.23126900  1
  O  O23  1  0.92208000  0.79576600  0.23126900  1
  O  O24  1  0.07792000  0.20423400  0.23126900  1
  O  O25  1  0.20423400  0.92208000  0.23126900  1
  O  O26  1  0.06834500  0.85861300  0.74202000  1
  O  O27  1  0.93165500  0.14138700  0.74202000  1
  O  O28  1  0.85861300  0.93165500  0.74202000  1
  O  O29  1  0.14138700  0.06834500  0.74202000  1
  O  O30  1  0.64138700  0.43165500  0.74202000  1
  O  O31  1  0.56834500  0.64138700  0.74202000  1
  O  O32  1  0.15676900  0.50598700  0.73127400  1
  O  O33  1  0.49401300  0.15676900  0.73127400  1
  O  O34  1  0.50598700  0.84323100  0.73127400  1
  O  O35  1  0.84323100  0.49401300  0.73127400  1
  O  O36  1  0.34323100  0.00598700  0.73127400  1
  O  O37  1  0.65676900  0.99401300  0.73127400  1
  O  O38  1  0.99401300  0.34323100  0.73127400  1
  O  O39  1  0.00598700  0.65676900  0.73127400  1
  O  O40  1  0.28119400  0.78119400  0.72356100  1
  O  O41  1  0.21880600  0.28119400  0.72356100  1
  O  O42  1  0.78119400  0.71880600  0.72356100  1
  O  O43  1  0.71880600  0.21880600  0.72356100  1
  O  O44  1  0.35861300  0.56834500  0.74202000  1
  O  O45  1  0.43165500  0.35861300  0.74202000  1
