# generated using pymatgen
data_KPt2Se3
_symmetry_space_group_name_H-M   'P 1'
_cell_length_a   7.54316972
_cell_length_b   7.54316972
_cell_length_c   19.66771712
_cell_angle_alpha   90.00000000
_cell_angle_beta   90.00000000
_cell_angle_gamma   120.00000000
_symmetry_Int_Tables_number   1
_chemical_formula_structural   KPt2Se3
_chemical_formula_sum   'K6 Pt12 Se18'
_cell_volume   969.15299696
_cell_formula_units_Z   6
loop_
 _symmetry_equiv_pos_site_id
 _symmetry_equiv_pos_as_xyz
  1  'x, y, z'
loop_
 _atom_site_type_symbol
 _atom_site_label
 _atom_site_symmetry_multiplicity
 _atom_site_fract_x
 _atom_site_fract_y
 _atom_site_fract_z
 _atom_site_occupancy
  K  K0  1  0.00000000  0.00000000  0.20035200  1
  K  K1  1  0.66666667  0.33333333  0.13298133  1
  K  K2  1  0.66666667  0.33333333  0.53368533  1
  K  K3  1  0.33333333  0.66666667  0.46631467  1
  K  K4  1  0.33333333  0.66666667  0.86701867  1
  K  K5  1  0.00000000  0.00000000  0.79964800  1
  Pt  Pt6  1  0.00000000  0.00000000  0.00000000  1
  Pt  Pt7  1  0.50000000  0.00000000  0.00000000  1
  Pt  Pt8  1  0.00000000  0.50000000  0.00000000  1
  Pt  Pt9  1  0.50000000  0.50000000  0.00000000  1
  Pt  Pt10  1  0.66666667  0.33333333  0.33333333  1
  Pt  Pt11  1  0.16666667  0.33333333  0.33333333  1
  Pt  Pt12  1  0.66666667  0.83333333  0.33333333  1
  Pt  Pt13  1  0.16666667  0.83333333  0.33333333  1
  Pt  Pt14  1  0.33333333  0.66666667  0.66666667  1
  Pt  Pt15  1  0.83333333  0.66666667  0.66666667  1
  Pt  Pt16  1  0.33333333  0.16666667  0.66666667  1
  Pt  Pt17  1  0.83333333  0.16666667  0.66666667  1
  Se  Se18  1  0.49569167  0.50430833  0.27082033  1
  Se  Se19  1  0.17097500  0.34195000  0.06251300  1
  Se  Se20  1  0.49569167  0.99138333  0.27082033  1
  Se  Se21  1  0.00861667  0.50430833  0.27082033  1
  Se  Se22  1  0.17097500  0.82902500  0.06251300  1
  Se  Se23  1  0.65805000  0.82902500  0.06251300  1
  Se  Se24  1  0.16235833  0.83764167  0.60415367  1
  Se  Se25  1  0.83764167  0.67528333  0.39584633  1
  Se  Se26  1  0.16235833  0.32471667  0.60415367  1
  Se  Se27  1  0.67528333  0.83764167  0.60415367  1
  Se  Se28  1  0.83764167  0.16235833  0.39584633  1
  Se  Se29  1  0.32471667  0.16235833  0.39584633  1
  Se  Se30  1  0.82902500  0.17097500  0.93748700  1
  Se  Se31  1  0.50430833  0.00861667  0.72917967  1
  Se  Se32  1  0.82902500  0.65805000  0.93748700  1
  Se  Se33  1  0.34195000  0.17097500  0.93748700  1
  Se  Se34  1  0.50430833  0.49569167  0.72917967  1
  Se  Se35  1  0.99138333  0.49569167  0.72917967  1
