# generated using pymatgen
data_YbC2
_symmetry_space_group_name_H-M   'P 1'
_cell_length_a   3.81584600
_cell_length_b   3.81584600
_cell_length_c   6.42758000
_cell_angle_alpha   90.00000000
_cell_angle_beta   90.00000000
_cell_angle_gamma   90.00000000
_symmetry_Int_Tables_number   1
_chemical_formula_structural   YbC2
_chemical_formula_sum   'Yb2 C4'
_cell_volume   93.58994003
_cell_formula_units_Z   2
loop_
 _symmetry_equiv_pos_site_id
 _symmetry_equiv_pos_as_xyz
  1  'x, y, z'
loop_
 _atom_site_type_symbol
 _atom_site_label
 _atom_site_symmetry_multiplicity
 _atom_site_fract_x
 _atom_site_fract_y
 _atom_site_fract_z
 _atom_site_occupancy
  Yb  Yb0  1  0.00000000  0.00000000  0.00000000  1
  Yb  Yb1  1  0.50000000  0.50000000  0.50000000  1
  C  C2  1  0.50000000  0.50000000  0.09808300  1
  C  C3  1  0.00000000  0.00000000  0.40191700  1
  C  C4  1  0.00000000  0.00000000  0.59808300  1
  C  C5  1  0.50000000  0.50000000  0.90191700  1
