# generated using pymatgen
data_Sr3Fe2O5
_symmetry_space_group_name_H-M   'P 1'
_cell_length_a   3.53196548
_cell_length_b   4.02231944
_cell_length_c   21.21364238
_cell_angle_alpha   90.00000000
_cell_angle_beta   90.00000000
_cell_angle_gamma   90.00000000
_symmetry_Int_Tables_number   1
_chemical_formula_structural   Sr3Fe2O5
_chemical_formula_sum   'Sr6 Fe4 O10'
_cell_volume   301.37571331
_cell_formula_units_Z   2
loop_
 _symmetry_equiv_pos_site_id
 _symmetry_equiv_pos_as_xyz
  1  'x, y, z'
loop_
 _atom_site_type_symbol
 _atom_site_label
 _atom_site_symmetry_multiplicity
 _atom_site_fract_x
 _atom_site_fract_y
 _atom_site_fract_z
 _atom_site_occupancy
  Sr  Sr0  1  0.00000000  0.00000000  0.31163981  1
  Sr  Sr1  1  0.50000000  0.50000000  0.18836019  1
  Sr  Sr2  1  0.50000000  0.50000000  0.00000000  1
  Sr  Sr3  1  0.50000000  0.50000000  0.81163981  1
  Sr  Sr4  1  0.00000000  0.00000000  0.68836019  1
  Sr  Sr5  1  0.00000000  0.00000000  0.50000000  1
  Fe  Fe6  1  0.00000000  0.00000000  0.09691501  1
  Fe  Fe7  1  0.50000000  0.50000000  0.40308499  1
  Fe  Fe8  1  0.50000000  0.50000000  0.59691501  1
  Fe  Fe9  1  0.00000000  0.00000000  0.90308499  1
  O  O10  1  0.00000000  0.00000000  0.19319568  1
  O  O11  1  0.50000000  0.50000000  0.30680432  1
  O  O12  1  0.00000000  0.50000000  0.09617669  1
  O  O13  1  0.50000000  0.00000000  0.40382331  1
  O  O14  1  0.50000000  0.50000000  0.50000000  1
  O  O15  1  0.50000000  0.50000000  0.69319568  1
  O  O16  1  0.00000000  0.00000000  0.80680432  1
  O  O17  1  0.50000000  0.00000000  0.59617669  1
  O  O18  1  0.00000000  0.50000000  0.90382331  1
  O  O19  1  0.00000000  0.00000000  0.00000000  1
