# generated using pymatgen
data_CsDyCdTe3
_symmetry_space_group_name_H-M   'P 1'
_cell_length_a   4.54722600
_cell_length_b   17.38679400
_cell_length_c   11.88901900
_cell_angle_alpha   90.00000000
_cell_angle_beta   90.00000000
_cell_angle_gamma   90.00000000
_symmetry_Int_Tables_number   1
_chemical_formula_structural   CsDyCdTe3
_chemical_formula_sum   'Cs4 Dy4 Cd4 Te12'
_cell_volume   939.96583630
_cell_formula_units_Z   4
loop_
 _symmetry_equiv_pos_site_id
 _symmetry_equiv_pos_as_xyz
  1  'x, y, z'
loop_
 _atom_site_type_symbol
 _atom_site_label
 _atom_site_symmetry_multiplicity
 _atom_site_fract_x
 _atom_site_fract_y
 _atom_site_fract_z
 _atom_site_occupancy
  Cs  Cs0  1  0.50000000  0.25099600  0.75000000  1
  Cs  Cs1  1  0.00000000  0.24900400  0.25000000  1
  Cs  Cs2  1  0.00000000  0.75099600  0.75000000  1
  Cs  Cs3  1  0.50000000  0.74900400  0.25000000  1
  Dy  Dy4  1  0.00000000  0.00000000  0.00000000  1
  Dy  Dy5  1  0.00000000  0.00000000  0.50000000  1
  Dy  Dy6  1  0.50000000  0.50000000  0.00000000  1
  Dy  Dy7  1  0.50000000  0.50000000  0.50000000  1
  Cd  Cd8  1  0.00000000  0.46309200  0.75000000  1
  Cd  Cd9  1  0.50000000  0.03690800  0.25000000  1
  Cd  Cd10  1  0.50000000  0.96309200  0.75000000  1
  Cd  Cd11  1  0.00000000  0.53690800  0.25000000  1
  Te  Te12  1  0.50000000  0.11980500  0.04643900  1
  Te  Te13  1  0.00000000  0.38019500  0.95356100  1
  Te  Te14  1  0.00000000  0.38019500  0.54643900  1
  Te  Te15  1  0.50000000  0.11980500  0.45356100  1
  Te  Te16  1  0.00000000  0.06524500  0.75000000  1
  Te  Te17  1  0.50000000  0.43475500  0.25000000  1
  Te  Te18  1  0.00000000  0.61980500  0.04643900  1
  Te  Te19  1  0.50000000  0.88019500  0.95356100  1
  Te  Te20  1  0.50000000  0.88019500  0.54643900  1
  Te  Te21  1  0.00000000  0.61980500  0.45356100  1
  Te  Te22  1  0.50000000  0.56524500  0.75000000  1
  Te  Te23  1  0.00000000  0.93475500  0.25000000  1
