# generated using pymatgen
data_Tl5Se2I
_symmetry_space_group_name_H-M   'P 1'
_cell_length_a   8.84607600
_cell_length_b   8.84607600
_cell_length_c   14.12903200
_cell_angle_alpha   90.00000000
_cell_angle_beta   90.00000000
_cell_angle_gamma   90.00000000
_symmetry_Int_Tables_number   1
_chemical_formula_structural   Tl5Se2I
_chemical_formula_sum   'Tl20 Se8 I4'
_cell_volume   1105.63999728
_cell_formula_units_Z   4
loop_
 _symmetry_equiv_pos_site_id
 _symmetry_equiv_pos_as_xyz
  1  'x, y, z'
loop_
 _atom_site_type_symbol
 _atom_site_label
 _atom_site_symmetry_multiplicity
 _atom_site_fract_x
 _atom_site_fract_y
 _atom_site_fract_z
 _atom_site_occupancy
  Tl  Tl0  1  0.35588900  0.14411100  0.13508700  1
  Tl  Tl1  1  0.14411100  0.64411100  0.13508700  1
  Tl  Tl2  1  0.85588900  0.35588900  0.13508700  1
  Tl  Tl3  1  0.35588900  0.85588900  0.36491300  1
  Tl  Tl4  1  0.64411100  0.85588900  0.13508700  1
  Tl  Tl5  1  0.14411100  0.35588900  0.36491300  1
  Tl  Tl6  1  0.85588900  0.64411100  0.36491300  1
  Tl  Tl7  1  0.64411100  0.14411100  0.36491300  1
  Tl  Tl8  1  0.00000000  0.00000000  0.00000000  1
  Tl  Tl9  1  0.50000000  0.50000000  0.00000000  1
  Tl  Tl10  1  0.85588900  0.64411100  0.63508700  1
  Tl  Tl11  1  0.64411100  0.14411100  0.63508700  1
  Tl  Tl12  1  0.35588900  0.85588900  0.63508700  1
  Tl  Tl13  1  0.85588900  0.35588900  0.86491300  1
  Tl  Tl14  1  0.14411100  0.35588900  0.63508700  1
  Tl  Tl15  1  0.64411100  0.85588900  0.86491300  1
  Tl  Tl16  1  0.35588900  0.14411100  0.86491300  1
  Tl  Tl17  1  0.14411100  0.64411100  0.86491300  1
  Tl  Tl18  1  0.50000000  0.50000000  0.50000000  1
  Tl  Tl19  1  0.00000000  0.00000000  0.50000000  1
  Se  Se20  1  0.33804400  0.83804400  0.00000000  1
  Se  Se21  1  0.16195600  0.33804400  0.00000000  1
  Se  Se22  1  0.83804400  0.66195600  0.00000000  1
  Se  Se23  1  0.66195600  0.16195600  0.00000000  1
  Se  Se24  1  0.83804400  0.33804400  0.50000000  1
  Se  Se25  1  0.66195600  0.83804400  0.50000000  1
  Se  Se26  1  0.33804400  0.16195600  0.50000000  1
  Se  Se27  1  0.16195600  0.66195600  0.50000000  1
  I  I28  1  0.00000000  0.00000000  0.25000000  1
  I  I29  1  0.50000000  0.50000000  0.25000000  1
  I  I30  1  0.50000000  0.50000000  0.75000000  1
  I  I31  1  0.00000000  0.00000000  0.75000000  1
