# generated using pymatgen
data_TlBiSe2
_symmetry_space_group_name_H-M   'P 1'
_cell_length_a   4.31452357
_cell_length_b   4.31452357
_cell_length_c   22.90997093
_cell_angle_alpha   90.00000000
_cell_angle_beta   90.00000000
_cell_angle_gamma   120.00000000
_symmetry_Int_Tables_number   1
_chemical_formula_structural   TlBiSe2
_chemical_formula_sum   'Tl3 Bi3 Se6'
_cell_volume   369.33533642
_cell_formula_units_Z   3
loop_
 _symmetry_equiv_pos_site_id
 _symmetry_equiv_pos_as_xyz
  1  'x, y, z'
loop_
 _atom_site_type_symbol
 _atom_site_label
 _atom_site_symmetry_multiplicity
 _atom_site_fract_x
 _atom_site_fract_y
 _atom_site_fract_z
 _atom_site_occupancy
  Tl  Tl0  1  0.33333333  0.66666667  0.16666667  1
  Tl  Tl1  1  1.00000000  1.00000000  0.50000000  1
  Tl  Tl2  1  0.66666667  0.33333333  0.83333333  1
  Bi  Bi3  1  0.00000000  0.00000000  0.00000000  1
  Bi  Bi4  1  0.66666667  0.33333333  0.33333333  1
  Bi  Bi5  1  0.33333333  0.66666667  0.66666667  1
  Se  Se6  1  0.66666667  0.33333333  0.07221233  1
  Se  Se7  1  0.00000000  0.00000000  0.26112100  1
  Se  Se8  1  0.33333333  0.66666667  0.40554567  1
  Se  Se9  1  0.66666667  0.33333333  0.59445433  1
  Se  Se10  1  0.00000000  0.00000000  0.73887900  1
  Se  Se11  1  0.33333333  0.66666667  0.92778767  1
