# generated using pymatgen
data_B4H5
_symmetry_space_group_name_H-M   'P 1'
_cell_length_a   6.11679800
_cell_length_b   13.99463900
_cell_length_c   17.01960514
_cell_angle_alpha   90.00000000
_cell_angle_beta   93.49272151
_cell_angle_gamma   90.00000000
_symmetry_Int_Tables_number   1
_chemical_formula_structural   B4H5
_chemical_formula_sum   'B64 H80'
_cell_volume   1454.21254400
_cell_formula_units_Z   16
loop_
 _symmetry_equiv_pos_site_id
 _symmetry_equiv_pos_as_xyz
  1  'x, y, z'
loop_
 _atom_site_type_symbol
 _atom_site_label
 _atom_site_symmetry_multiplicity
 _atom_site_fract_x
 _atom_site_fract_y
 _atom_site_fract_z
 _atom_site_occupancy
  B  B0  1  0.32145100  0.70992500  0.49385500  1
  B  B1  1  0.67854900  0.20992500  0.00614500  1
  B  B2  1  0.67854900  0.29007500  0.50614500  1
  B  B3  1  0.32145100  0.79007500  0.99385500  1
  B  B4  1  0.40813200  0.83167000  0.49178200  1
  B  B5  1  0.59186800  0.33167000  0.00821800  1
  B  B6  1  0.59186800  0.16833000  0.50821800  1
  B  B7  1  0.40813200  0.66833000  0.99178200  1
  B  B8  1  0.25850200  0.89749600  0.55651700  1
  B  B9  1  0.74149800  0.39749600  0.94348300  1
  B  B10  1  0.74149800  0.10250400  0.44348300  1
  B  B11  1  0.25850200  0.60250400  0.05651700  1
  B  B12  1  0.07428900  0.81807500  0.60206500  1
  B  B13  1  0.92571100  0.31807500  0.89793500  1
  B  B14  1  0.92571100  0.18192500  0.39793500  1
  B  B15  1  0.07428900  0.68192500  0.10206500  1
  B  B16  1  0.13118200  0.80959200  0.49853900  1
  B  B17  1  0.86881800  0.30959200  0.00146100  1
  B  B18  1  0.86881800  0.19040800  0.50146100  1
  B  B19  1  0.13118200  0.69040800  0.99853900  1
  B  B20  1  0.09268000  0.70288300  0.55441900  1
  B  B21  1  0.90732000  0.20288300  0.94558100  1
  B  B22  1  0.90732000  0.29711700  0.44558100  1
  B  B23  1  0.09268000  0.79711700  0.05441900  1
  B  B24  1  0.31167600  0.51220300  0.60335000  1
  B  B25  1  0.68832400  0.01220300  0.89665000  1
  B  B26  1  0.68832400  0.48779700  0.39665000  1
  B  B27  1  0.31167600  0.98779700  0.10335000  1
  B  B28  1  0.16970400  0.46971700  0.68451600  1
  B  B29  1  0.83029600  0.96971700  0.81548400  1
  B  B30  1  0.83029600  0.53028300  0.31548400  1
  B  B31  1  0.16970400  0.03028300  0.18451600  1
  B  B32  1  0.27131100  0.53955900  0.76580500  1
  B  B33  1  0.72868900  0.03955900  0.73419500  1
  B  B34  1  0.72868900  0.46044100  0.23419500  1
  B  B35  1  0.27131100  0.96044100  0.26580500  1
  B  B36  1  0.27411000  0.67981000  0.74686300  1
  B  B37  1  0.72589000  0.17981000  0.75313700  1
  B  B38  1  0.72589000  0.32019000  0.25313700  1
  B  B39  1  0.27411000  0.82019000  0.24686300  1
  B  B40  1  0.19094100  0.71562200  0.65078700  1
  B  B41  1  0.80905900  0.21562200  0.84921300  1
  B  B42  1  0.80905900  0.28437800  0.34921300  1
  B  B43  1  0.19094100  0.78437800  0.15078700  1
  B  B44  1  0.32974600  0.64667800  0.58776300  1
  B  B45  1  0.67025400  0.14667800  0.91223700  1
  B  B46  1  0.67025400  0.35332200  0.41223700  1
  B  B47  1  0.32974600  0.85332200  0.08776300  1
  B  B48  1  0.44720400  0.48832600  0.69741700  1
  B  B49  1  0.55279600  0.98832600  0.80258300  1
  B  B50  1  0.55279600  0.51167400  0.30258300  1
  B  B51  1  0.44720400  0.01167400  0.19741700  1
  B  B52  1  0.50325500  0.60341100  0.74003400  1
  B  B53  1  0.49674500  0.10341100  0.75996600  1
  B  B54  1  0.49674500  0.39658900  0.25996600  1
  B  B55  1  0.50325500  0.89658900  0.24003400  1
  B  B56  1  0.46694500  0.69811200  0.67329100  1
  B  B57  1  0.53305500  0.19811200  0.82670900  1
  B  B58  1  0.53305500  0.30188800  0.32670900  1
  B  B59  1  0.46694500  0.80188800  0.17329100  1
  B  B60  1  0.53765700  0.58328100  0.63716000  1
  B  B61  1  0.46234300  0.08328100  0.86284000  1
  B  B62  1  0.46234300  0.41671900  0.36284000  1
  B  B63  1  0.53765700  0.91671900  0.13716000  1
  H  H64  1  0.50831200  0.74896200  0.51827400  1
  H  H65  1  0.49168800  0.24896200  0.98172600  1
  H  H66  1  0.49168800  0.25103800  0.48172600  1
  H  H67  1  0.50831200  0.75103800  0.01827400  1
  H  H68  1  0.47326800  0.87705800  0.55946500  1
  H  H69  1  0.52673200  0.37705800  0.94053500  1
  H  H70  1  0.52673200  0.12294200  0.44053500  1
  H  H71  1  0.47326800  0.62294200  0.05946500  1
  H  H72  1  0.24495900  0.86518300  0.63222800  1
  H  H73  1  0.75504100  0.36518300  0.86777200  1
  H  H74  1  0.75504100  0.13481700  0.36777200  1
  H  H75  1  0.24495900  0.63481700  0.13222800  1
  H  H76  1  0.10319200  0.51912900  0.61946700  1
  H  H77  1  0.89680800  0.01912900  0.88053300  1
  H  H78  1  0.89680800  0.48087100  0.38053300  1
  H  H79  1  0.10319200  0.98087100  0.11946700  1
  H  H80  1  0.07264700  0.53278200  0.73098800  1
  H  H81  1  0.92735300  0.03278200  0.76901200  1
  H  H82  1  0.92735300  0.46721800  0.26901200  1
  H  H83  1  0.07264700  0.96721800  0.23098800  1
  H  H84  1  0.07906200  0.67491600  0.70596100  1
  H  H85  1  0.92093800  0.17491600  0.79403900  1
  H  H86  1  0.92093800  0.32508400  0.29403900  1
  H  H87  1  0.07906200  0.82508400  0.20596100  1
  H  H88  1  0.34192900  0.66713500  0.43422400  1
  H  H89  1  0.65807100  0.16713500  0.06577600  1
  H  H90  1  0.65807100  0.33286500  0.56577600  1
  H  H91  1  0.34192900  0.83286500  0.93422400  1
  H  H92  1  0.50592200  0.86643400  0.44069400  1
  H  H93  1  0.49407800  0.36643400  0.05930600  1
  H  H94  1  0.49407800  0.13356600  0.55930600  1
  H  H95  1  0.50592200  0.63356600  0.94069400  1
  H  H96  1  0.23927100  0.98205600  0.55452700  1
  H  H97  1  0.76072900  0.48205600  0.94547300  1
  H  H98  1  0.76072900  0.01794400  0.44547300  1
  H  H99  1  0.56833400  0.42302400  0.71215600  1
  H  H100  1  0.23927100  0.51794400  0.05452700  1
  H  H101  1  0.09022400  0.35351600  0.87755800  1
  H  H102  1  0.09022400  0.14648400  0.37755800  1
  H  H103  1  0.90977600  0.64648400  0.12244200  1
  H  H104  1  0.99923400  0.82893000  0.44656500  1
  H  H105  1  0.00076600  0.32893000  0.05343500  1
  H  H106  1  0.00076600  0.17107000  0.55343500  1
  H  H107  1  0.99923400  0.67107000  0.94656500  1
  H  H108  1  0.93088400  0.65939800  0.53450400  1
  H  H109  1  0.06911600  0.15939800  0.96549600  1
  H  H110  1  0.06911600  0.34060200  0.46549600  1
  H  H111  1  0.93088400  0.84060200  0.03450400  1
  H  H112  1  0.31339900  0.46302100  0.54621900  1
  H  H113  1  0.68660100  0.96302100  0.95378100  1
  H  H114  1  0.68660100  0.53697900  0.45378100  1
  H  H115  1  0.31339900  0.03697900  0.04621900  1
  H  H116  1  0.06561500  0.39794300  0.68639100  1
  H  H117  1  0.93438500  0.89794300  0.81360900  1
  H  H118  1  0.93438500  0.60205700  0.31360900  1
  H  H119  1  0.06561500  0.10205700  0.18639100  1
  H  H120  1  0.24969800  0.51415300  0.83175600  1
  H  H121  1  0.75030200  0.01415300  0.66824400  1
  H  H122  1  0.75030200  0.48584700  0.16824400  1
  H  H123  1  0.24969800  0.98584700  0.33175600  1
  H  H124  1  0.24326600  0.72854000  0.80248100  1
  H  H125  1  0.75673400  0.22854000  0.69751900  1
  H  H126  1  0.75673400  0.27146000  0.19751900  1
  H  H127  1  0.24326600  0.77146000  0.30248100  1
  H  H128  1  0.70550000  0.92908800  0.10623700  1
  H  H129  1  0.29450000  0.42908800  0.39376300  1
  H  H130  1  0.29450000  0.07091200  0.89376300  1
  H  H131  1  0.70550000  0.57091200  0.60623700  1
  H  H132  1  0.59375500  0.73677700  0.17307700  1
  H  H133  1  0.40624500  0.23677700  0.32692300  1
  H  H134  1  0.40624500  0.26322300  0.82692300  1
  H  H135  1  0.59375500  0.76322300  0.67307700  1
  H  H136  1  0.64326200  0.88995300  0.29199300  1
  H  H137  1  0.35673800  0.38995300  0.20800700  1
  H  H138  1  0.35673800  0.11004700  0.70800700  1
  H  H139  1  0.64326200  0.61004700  0.79199300  1
  H  H140  1  0.56833400  0.07697600  0.21215600  1
  H  H141  1  0.43166600  0.57697600  0.28784400  1
  H  H142  1  0.43166600  0.92302400  0.78784400  1
  H  H143  1  0.90977600  0.85351600  0.62244200  1
