# generated using pymatgen
data_PH6NO4
_symmetry_space_group_name_H-M   'P 1'
_cell_length_a   7.16843900
_cell_length_b   7.94446000
_cell_length_c   8.56831900
_cell_angle_alpha   90.00000000
_cell_angle_beta   90.00000000
_cell_angle_gamma   90.00000000
_symmetry_Int_Tables_number   1
_chemical_formula_structural   PH6NO4
_chemical_formula_sum   'P4 H24 N4 O16'
_cell_volume   487.96042811
_cell_formula_units_Z   4
loop_
 _symmetry_equiv_pos_site_id
 _symmetry_equiv_pos_as_xyz
  1  'x, y, z'
loop_
 _atom_site_type_symbol
 _atom_site_label
 _atom_site_symmetry_multiplicity
 _atom_site_fract_x
 _atom_site_fract_y
 _atom_site_fract_z
 _atom_site_occupancy
  P  P0  1  0.15268900  0.21704100  0.69415100  1
  P  P1  1  0.65268900  0.28295900  0.30584900  1
  P  P2  1  0.34731100  0.78295900  0.19415100  1
  P  P3  1  0.84731100  0.71704100  0.80584900  1
  H  H4  1  0.06054900  0.43893300  0.84625000  1
  H  H5  1  0.56054900  0.06106700  0.15375000  1
  H  H6  1  0.43945100  0.56106700  0.34625000  1
  H  H7  1  0.93945100  0.93893300  0.65375000  1
  H  H8  1  0.31910900  0.34826600  0.50784300  1
  H  H9  1  0.81910900  0.15173400  0.49215700  1
  H  H10  1  0.18089100  0.65173400  0.00784300  1
  H  H11  1  0.68089100  0.84826600  0.99215700  1
  H  H12  1  0.65492300  0.23258500  0.93660300  1
  H  H13  1  0.15492300  0.26741500  0.06339700  1
  H  H14  1  0.84507700  0.76741500  0.43660300  1
  H  H15  1  0.34507700  0.73258500  0.56339700  1
  H  H16  1  0.52841100  0.19896800  0.77381100  1
  H  H17  1  0.23330200  0.69475400  0.73435600  1
  H  H18  1  0.97158900  0.80103200  0.27381100  1
  H  H19  1  0.47158900  0.69896800  0.72618900  1
  H  H20  1  0.65952500  0.38197800  0.79547800  1
  H  H21  1  0.15952500  0.11802200  0.20452200  1
  H  H22  1  0.84047500  0.61802200  0.29547800  1
  H  H23  1  0.34047500  0.88197800  0.70452200  1
  H  H24  1  0.76669800  0.19475400  0.76564400  1
  H  H25  1  0.26669800  0.30524600  0.23435600  1
  H  H26  1  0.73330200  0.80524600  0.26564400  1
  H  H27  1  0.02841100  0.30103200  0.22618900  1
  N  N28  1  0.34769300  0.75206200  0.68289200  1
  N  N29  1  0.15230700  0.24793800  0.18289200  1
  N  N30  1  0.65230700  0.25206200  0.81710800  1
  N  N31  1  0.84769300  0.74793800  0.31710800  1
  O  O32  1  0.70822700  0.13476700  0.42149700  1
  O  O33  1  0.47585400  0.37155600  0.36651900  1
  O  O34  1  0.52414600  0.87155600  0.13348100  1
  O  O35  1  0.02414600  0.62844400  0.86651900  1
  O  O36  1  0.20822700  0.36523300  0.57850300  1
  O  O37  1  0.97585400  0.12844400  0.63348100  1
  O  O38  1  0.29177300  0.63476700  0.07850300  1
  O  O39  1  0.79177300  0.86523300  0.92149700  1
  O  O40  1  0.90282900  0.81353600  0.64912500  1
  O  O41  1  0.81491700  0.39955600  0.27267500  1
  O  O42  1  0.31491700  0.10044400  0.72732500  1
  O  O43  1  0.68508300  0.60044400  0.77267500  1
  O  O44  1  0.40282900  0.68646400  0.35087500  1
  O  O45  1  0.59717100  0.18646400  0.14912500  1
  O  O46  1  0.09717100  0.31353600  0.85087500  1
  O  O47  1  0.18508300  0.89955600  0.22732500  1
