# generated using pymatgen
data_LiCuPO4
_symmetry_space_group_name_H-M   'P 1'
_cell_length_a   13.80210964
_cell_length_b   13.80210964
_cell_length_c   9.25150028
_cell_angle_alpha   90.00000000
_cell_angle_beta   90.00000000
_cell_angle_gamma   120.00000000
_symmetry_Int_Tables_number   1
_chemical_formula_structural   LiCuPO4
_chemical_formula_sum   'Li18 Cu18 P18 O72'
_cell_volume   1526.27835062
_cell_formula_units_Z   18
loop_
 _symmetry_equiv_pos_site_id
 _symmetry_equiv_pos_as_xyz
  1  'x, y, z'
loop_
 _atom_site_type_symbol
 _atom_site_label
 _atom_site_symmetry_multiplicity
 _atom_site_fract_x
 _atom_site_fract_y
 _atom_site_fract_z
 _atom_site_occupancy
  Li  Li0  1  0.54084367  0.68460233  0.58343433  1
  Li  Li1  1  0.31539767  0.85624133  0.58343433  1
  Li  Li2  1  0.20122533  0.21139867  0.41031867  1
  Li  Li3  1  0.14375867  0.45915633  0.58343433  1
  Li  Li4  1  0.01017333  0.79877467  0.41031867  1
  Li  Li5  1  0.78860133  0.98982667  0.41031867  1
  Li  Li6  1  0.20751033  0.01793567  0.91676767  1
  Li  Li7  1  0.98206433  0.18957467  0.91676767  1
  Li  Li8  1  0.86789200  0.54473200  0.74365200  1
  Li  Li9  1  0.81042533  0.79248967  0.91676767  1
  Li  Li10  1  0.67684000  0.13210800  0.74365200  1
  Li  Li11  1  0.45526800  0.32316000  0.74365200  1
  Li  Li12  1  0.87417700  0.35126900  0.25010100  1
  Li  Li13  1  0.64873100  0.52290800  0.25010100  1
  Li  Li14  1  0.53455867  0.87806533  0.07698533  1
  Li  Li15  1  0.47709200  0.12582300  0.25010100  1
  Li  Li16  1  0.34350667  0.46544133  0.07698533  1
  Li  Li17  1  0.12193467  0.65649333  0.07698533  1
  Cu  Cu18  1  0.18767400  0.20834900  0.74420400  1
  Cu  Cu19  1  0.21524067  0.01190233  0.24548733  1
  Cu  Cu20  1  0.02067500  0.81232600  0.74420400  1
  Cu  Cu21  1  0.98809767  0.20333833  0.24548733  1
  Cu  Cu22  1  0.79165100  0.97932500  0.74420400  1
  Cu  Cu23  1  0.79666167  0.78475933  0.24548733  1
  Cu  Cu24  1  0.85434067  0.54168233  0.07753733  1
  Cu  Cu25  1  0.88190733  0.34523567  0.57882067  1
  Cu  Cu26  1  0.68734167  0.14565933  0.07753733  1
  Cu  Cu27  1  0.65476433  0.53667167  0.57882067  1
  Cu  Cu28  1  0.45831767  0.31265833  0.07753733  1
  Cu  Cu29  1  0.46332833  0.11809267  0.57882067  1
  Cu  Cu30  1  0.52100733  0.87501567  0.41087067  1
  Cu  Cu31  1  0.54857400  0.67856900  0.91215400  1
  Cu  Cu32  1  0.35400833  0.47899267  0.41087067  1
  Cu  Cu33  1  0.32143100  0.87000500  0.91215400  1
  Cu  Cu34  1  0.12498433  0.64599167  0.41087067  1
  Cu  Cu35  1  0.12999500  0.45142600  0.91215400  1
  P  P36  1  0.67844167  0.13805933  0.41711933  1
  P  P37  1  0.80620133  0.79676567  0.58248267  1
  P  P38  1  0.86194067  0.54038233  0.41711933  1
  P  P39  1  0.99056433  0.19379867  0.58248267  1
  P  P40  1  0.20323433  0.00943567  0.58248267  1
  P  P41  1  0.45961767  0.32155833  0.41711933  1
  P  P42  1  0.34510833  0.47139267  0.75045267  1
  P  P43  1  0.47286800  0.13009900  0.91581600  1
  P  P44  1  0.52860733  0.87371567  0.75045267  1
  P  P45  1  0.65723100  0.52713200  0.91581600  1
  P  P46  1  0.86990100  0.34276900  0.91581600  1
  P  P47  1  0.12628433  0.65489167  0.75045267  1
  P  P48  1  0.01177500  0.80472600  0.08378600  1
  P  P49  1  0.13953467  0.46343233  0.24914933  1
  P  P50  1  0.19527400  0.20704900  0.08378600  1
  P  P51  1  0.32389767  0.86046533  0.24914933  1
  P  P52  1  0.53656767  0.67610233  0.24914933  1
  P  P53  1  0.79295100  0.98822500  0.08378600  1
  O  O54  1  0.87864433  0.81488867  0.71975367  1
  O  O55  1  0.18511133  0.06375567  0.71975367  1
  O  O56  1  0.23023300  0.46650600  0.75606900  1
  O  O57  1  0.23627300  0.76976700  0.75606900  1
  O  O58  1  0.35789167  0.34100933  0.41524133  1
  O  O59  1  0.31133333  0.00128967  0.60550867  1
  O  O60  1  0.53349400  0.76372700  0.75606900  1
  O  O61  1  0.65899067  0.01688233  0.41524133  1
  O  O62  1  0.74168500  0.20053500  0.27838600  1
  O  O63  1  0.78407067  0.91998833  0.22099433  1
  O  O64  1  0.68995633  0.68866667  0.60550867  1
  O  O65  1  0.21055500  0.07540100  0.44396400  1
  O  O66  1  0.78069600  0.89440200  0.56784100  1
  O  O67  1  0.86484600  0.78944500  0.44396400  1
  O  O68  1  0.92459900  0.13515400  0.44396400  1
  O  O69  1  0.79946500  0.54115000  0.27838600  1
  O  O70  1  0.98311767  0.64210833  0.41524133  1
  O  O71  1  0.93624433  0.12135567  0.71975367  1
  O  O72  1  0.08001167  0.86408233  0.22099433  1
  O  O73  1  0.99871033  0.31004367  0.60550867  1
  O  O74  1  0.13591767  0.21592933  0.22099433  1
  O  O75  1  0.10559800  0.88629400  0.56784100  1
  O  O76  1  0.11370600  0.21930400  0.56784100  1
  O  O77  1  0.45885000  0.25831500  0.27838600  1
  O  O78  1  0.54531100  0.14822200  0.05308700  1
  O  O79  1  0.85177800  0.39708900  0.05308700  1
  O  O80  1  0.89689967  0.79983933  0.08940233  1
  O  O81  1  0.90293967  0.10310033  0.08940233  1
  O  O82  1  0.02455833  0.67434267  0.74857467  1
  O  O83  1  0.97800000  0.33462300  0.93884200  1
  O  O84  1  0.20016067  0.09706033  0.08940233  1
  O  O85  1  0.32565733  0.35021567  0.74857467  1
  O  O86  1  0.40835167  0.53386833  0.61171933  1
  O  O87  1  0.45073733  0.25332167  0.55432767  1
  O  O88  1  0.35662300  0.02200000  0.93884200  1
  O  O89  1  0.87722167  0.40873433  0.77729733  1
  O  O90  1  0.44736267  0.22773533  0.90117433  1
  O  O91  1  0.53151267  0.12277833  0.77729733  1
  O  O92  1  0.59126567  0.46848733  0.77729733  1
  O  O93  1  0.46613167  0.87448333  0.61171933  1
  O  O94  1  0.64978433  0.97544167  0.74857467  1
  O  O95  1  0.60291100  0.45468900  0.05308700  1
  O  O96  1  0.74667833  0.19741567  0.55432767  1
  O  O97  1  0.66537700  0.64337700  0.93884200  1
  O  O98  1  0.80258433  0.54926267  0.55432767  1
  O  O99  1  0.77226467  0.21962733  0.90117433  1
  O  O100  1  0.78037267  0.55263733  0.90117433  1
  O  O101  1  0.12551667  0.59164833  0.61171933  1
  O  O102  1  0.21197767  0.48155533  0.38642033  1
  O  O103  1  0.51844467  0.73042233  0.38642033  1
  O  O104  1  0.56356633  0.13317267  0.42273567  1
  O  O105  1  0.56960633  0.43643367  0.42273567  1
  O  O106  1  0.69122500  0.00767600  0.08190800  1
  O  O107  1  0.64466667  0.66795633  0.27217533  1
  O  O108  1  0.86682733  0.43039367  0.42273567  1
  O  O109  1  0.99232400  0.68354900  0.08190800  1
  O  O110  1  0.07501833  0.86720167  0.94505267  1
  O  O111  1  0.11740400  0.58665500  0.88766100  1
  O  O112  1  0.02328967  0.35533333  0.27217533  1
  O  O113  1  0.54388833  0.74206767  0.11063067  1
  O  O114  1  0.11402933  0.56106867  0.23450767  1
  O  O115  1  0.19817933  0.45611167  0.11063067  1
  O  O116  1  0.25793233  0.80182067  0.11063067  1
  O  O117  1  0.13279833  0.20781667  0.94505267  1
  O  O118  1  0.31645100  0.30877500  0.08190800  1
  O  O119  1  0.26957767  0.78802233  0.38642033  1
  O  O120  1  0.41334500  0.53074900  0.88766100  1
  O  O121  1  0.33204367  0.97671033  0.27217533  1
  O  O122  1  0.46925100  0.88259600  0.88766100  1
  O  O123  1  0.43893133  0.55296067  0.23450767  1
  O  O124  1  0.44703933  0.88597067  0.23450767  1
  O  O125  1  0.79218333  0.92498167  0.94505267  1
