# generated using pymatgen
data_RbPb2Br5
_symmetry_space_group_name_H-M   'P 1'
_cell_length_a   8.57039000
_cell_length_b   8.57039000
_cell_length_c   15.36405800
_cell_angle_alpha   90.00000000
_cell_angle_beta   90.00000000
_cell_angle_gamma   90.00000000
_symmetry_Int_Tables_number   1
_chemical_formula_structural   RbPb2Br5
_chemical_formula_sum   'Rb4 Pb8 Br20'
_cell_volume   1128.51440832
_cell_formula_units_Z   4
loop_
 _symmetry_equiv_pos_site_id
 _symmetry_equiv_pos_as_xyz
  1  'x, y, z'
loop_
 _atom_site_type_symbol
 _atom_site_label
 _atom_site_symmetry_multiplicity
 _atom_site_fract_x
 _atom_site_fract_y
 _atom_site_fract_z
 _atom_site_occupancy
  Rb  Rb0  1  0.50000000  0.50000000  0.25000000  1
  Rb  Rb1  1  0.00000000  0.00000000  0.25000000  1
  Rb  Rb2  1  0.00000000  0.00000000  0.75000000  1
  Rb  Rb3  1  0.50000000  0.50000000  0.75000000  1
  Pb  Pb4  1  0.83277400  0.66722600  0.00000000  1
  Pb  Pb5  1  0.16722600  0.66722600  0.50000000  1
  Pb  Pb6  1  0.16722600  0.33277400  0.00000000  1
  Pb  Pb7  1  0.33277400  0.83277400  0.00000000  1
  Pb  Pb8  1  0.33277400  0.16722600  0.50000000  1
  Pb  Pb9  1  0.66722600  0.16722600  0.00000000  1
  Pb  Pb10  1  0.66722600  0.83277400  0.50000000  1
  Pb  Pb11  1  0.83277400  0.33277400  0.50000000  1
  Br  Br12  1  0.34483900  0.84483900  0.37023000  1
  Br  Br13  1  0.84483900  0.34483900  0.12977000  1
  Br  Br14  1  0.50000000  0.50000000  0.00000000  1
  Br  Br15  1  0.00000000  0.00000000  0.00000000  1
  Br  Br16  1  0.15516100  0.65516100  0.12977000  1
  Br  Br17  1  0.34483900  0.15516100  0.12977000  1
  Br  Br18  1  0.65516100  0.84483900  0.12977000  1
  Br  Br19  1  0.15516100  0.34483900  0.37023000  1
  Br  Br20  1  0.65516100  0.15516100  0.37023000  1
  Br  Br21  1  0.84483900  0.65516100  0.37023000  1
  Br  Br22  1  0.84483900  0.34483900  0.87023000  1
  Br  Br23  1  0.34483900  0.84483900  0.62977000  1
  Br  Br24  1  0.00000000  0.00000000  0.50000000  1
  Br  Br25  1  0.50000000  0.50000000  0.50000000  1
  Br  Br26  1  0.65516100  0.15516100  0.62977000  1
  Br  Br27  1  0.84483900  0.65516100  0.62977000  1
  Br  Br28  1  0.15516100  0.34483900  0.62977000  1
  Br  Br29  1  0.65516100  0.84483900  0.87023000  1
  Br  Br30  1  0.15516100  0.65516100  0.87023000  1
  Br  Br31  1  0.34483900  0.15516100  0.87023000  1
