# generated using pymatgen
data_AlTl2F5
_symmetry_space_group_name_H-M   'P 1'
_cell_length_a   8.96453200
_cell_length_b   9.03865600
_cell_length_c   7.59224800
_cell_angle_alpha   90.00000000
_cell_angle_beta   90.00000000
_cell_angle_gamma   90.00000000
_symmetry_Int_Tables_number   1
_chemical_formula_structural   AlTl2F5
_chemical_formula_sum   'Al4 Tl8 F20'
_cell_volume   615.17951542
_cell_formula_units_Z   4
loop_
 _symmetry_equiv_pos_site_id
 _symmetry_equiv_pos_as_xyz
  1  'x, y, z'
loop_
 _atom_site_type_symbol
 _atom_site_label
 _atom_site_symmetry_multiplicity
 _atom_site_fract_x
 _atom_site_fract_y
 _atom_site_fract_z
 _atom_site_occupancy
  Al  Al0  1  0.00000000  0.00000000  0.50000000  1
  Al  Al1  1  0.00000000  0.00000000  0.00000000  1
  Al  Al2  1  0.50000000  0.50000000  0.50000000  1
  Al  Al3  1  0.50000000  0.50000000  0.00000000  1
  Tl  Tl4  1  0.26104050  0.22920950  0.75000000  1
  Tl  Tl5  1  0.73895950  0.77079050  0.25000000  1
  Tl  Tl6  1  0.73895950  0.22920950  0.75000000  1
  Tl  Tl7  1  0.26104050  0.77079050  0.25000000  1
  Tl  Tl8  1  0.76104050  0.72920950  0.75000000  1
  Tl  Tl9  1  0.23895950  0.27079050  0.25000000  1
  Tl  Tl10  1  0.23895950  0.72920950  0.75000000  1
  Tl  Tl11  1  0.76104050  0.27079050  0.25000000  1
  F  F12  1  0.50000000  0.29950600  0.48833000  1
  F  F13  1  0.20257200  0.00000000  0.00000000  1
  F  F14  1  0.50000000  0.49005800  0.75000000  1
  F  F15  1  0.79742800  0.00000000  0.00000000  1
  F  F16  1  0.79742800  0.00000000  0.50000000  1
  F  F17  1  0.20257200  0.00000000  0.50000000  1
  F  F18  1  0.50000000  0.70049400  0.51167000  1
  F  F19  1  0.50000000  0.29950600  0.01167000  1
  F  F20  1  0.50000000  0.70049400  0.98833000  1
  F  F21  1  0.50000000  0.50994200  0.25000000  1
  F  F22  1  0.00000000  0.79950600  0.48833000  1
  F  F23  1  0.70257200  0.50000000  0.00000000  1
  F  F24  1  0.00000000  0.99005800  0.75000000  1
  F  F25  1  0.29742800  0.50000000  0.00000000  1
  F  F26  1  0.29742800  0.50000000  0.50000000  1
  F  F27  1  0.70257200  0.50000000  0.50000000  1
  F  F28  1  0.00000000  0.20049400  0.51167000  1
  F  F29  1  0.00000000  0.79950600  0.01167000  1
  F  F30  1  0.00000000  0.20049400  0.98833000  1
  F  F31  1  0.00000000  0.00994200  0.25000000  1
