# generated using pymatgen
data_Ti(ClO4)4
_symmetry_space_group_name_H-M   'P 1'
_cell_length_a   12.99105000
_cell_length_b   8.07918400
_cell_length_c   13.40036068
_cell_angle_alpha   90.00000000
_cell_angle_beta   109.06440343
_cell_angle_gamma   90.00000000
_symmetry_Int_Tables_number   1
_chemical_formula_structural   Ti(ClO4)4
_chemical_formula_sum   'Ti4 Cl16 O64'
_cell_volume   1329.32113381
_cell_formula_units_Z   4
loop_
 _symmetry_equiv_pos_site_id
 _symmetry_equiv_pos_as_xyz
  1  'x, y, z'
loop_
 _atom_site_type_symbol
 _atom_site_label
 _atom_site_symmetry_multiplicity
 _atom_site_fract_x
 _atom_site_fract_y
 _atom_site_fract_z
 _atom_site_occupancy
  Ti  Ti0  1  0.00000000  0.96442600  0.75000000  1
  Ti  Ti1  1  0.00000000  0.03557400  0.25000000  1
  Ti  Ti2  1  0.50000000  0.46442600  0.75000000  1
  Ti  Ti3  1  0.50000000  0.53557400  0.25000000  1
  Cl  Cl4  1  0.94185500  0.73396900  0.58753400  1
  Cl  Cl5  1  0.05814500  0.73396900  0.91246600  1
  Cl  Cl6  1  0.05814500  0.26603100  0.41246600  1
  Cl  Cl7  1  0.94185500  0.26603100  0.08753400  1
  Cl  Cl8  1  0.82854450  0.18176250  0.66534700  1
  Cl  Cl9  1  0.17145550  0.18176250  0.83465300  1
  Cl  Cl10  1  0.17145550  0.81823750  0.33465300  1
  Cl  Cl11  1  0.82854450  0.81823750  0.16534700  1
  Cl  Cl12  1  0.44185500  0.23396900  0.58753400  1
  Cl  Cl13  1  0.55814500  0.23396900  0.91246600  1
  Cl  Cl14  1  0.55814500  0.76603100  0.41246600  1
  Cl  Cl15  1  0.44185500  0.76603100  0.08753400  1
  Cl  Cl16  1  0.32854450  0.68176250  0.66534700  1
  Cl  Cl17  1  0.67145550  0.68176250  0.83465300  1
  Cl  Cl18  1  0.67145550  0.31823750  0.33465300  1
  Cl  Cl19  1  0.32854450  0.31823750  0.16534700  1
  O  O20  1  0.88905850  0.78407850  0.67102300  1
  O  O21  1  0.11094150  0.78407850  0.82897700  1
  O  O22  1  0.11094150  0.21592150  0.32897700  1
  O  O23  1  0.88905850  0.21592150  0.17102300  1
  O  O24  1  0.98007700  0.56848300  0.60438900  1
  O  O25  1  0.01992300  0.56848300  0.89561100  1
  O  O26  1  0.01992300  0.43151700  0.39561100  1
  O  O27  1  0.98007700  0.43151700  0.10438900  1
  O  O28  1  0.03605850  0.85645850  0.61965100  1
  O  O29  1  0.96394150  0.85645850  0.88034900  1
  O  O30  1  0.92988550  0.85908150  0.13400400  1
  O  O31  1  0.07011450  0.85908150  0.36599600  1
  O  O32  1  0.07011450  0.14091850  0.86599600  1
  O  O33  1  0.92988550  0.14091850  0.63400400  1
  O  O34  1  0.82812500  0.64889000  0.19285500  1
  O  O35  1  0.17187500  0.64889000  0.30714500  1
  O  O36  1  0.17187500  0.35111000  0.80714500  1
  O  O37  1  0.82812500  0.35111000  0.69285500  1
  O  O38  1  0.35514900  0.42859300  0.26254000  1
  O  O39  1  0.64485100  0.42859300  0.23746000  1
  O  O40  1  0.64485100  0.57140700  0.73746000  1
  O  O41  1  0.35514900  0.57140700  0.76254000  1
  O  O42  1  0.23264500  0.37327000  0.08584400  1
  O  O43  1  0.76735500  0.37327000  0.41415600  1
  O  O44  1  0.76735500  0.62673000  0.91415600  1
  O  O45  1  0.23264500  0.62673000  0.58584400  1
  O  O46  1  0.87002950  0.23209250  0.98446600  1
  O  O47  1  0.12997050  0.23209250  0.51553400  1
  O  O48  1  0.12997050  0.76790750  0.01553400  1
  O  O49  1  0.87002950  0.76790750  0.48446600  1
  O  O50  1  0.03605850  0.14354150  0.11965100  1
  O  O51  1  0.96394150  0.14354150  0.38034900  1
  O  O52  1  0.38905850  0.28407850  0.67102300  1
  O  O53  1  0.61094150  0.28407850  0.82897700  1
  O  O54  1  0.61094150  0.71592150  0.32897700  1
  O  O55  1  0.38905850  0.71592150  0.17102300  1
  O  O56  1  0.48007700  0.06848300  0.60438900  1
  O  O57  1  0.51992300  0.06848300  0.89561100  1
  O  O58  1  0.51992300  0.93151700  0.39561100  1
  O  O59  1  0.48007700  0.93151700  0.10438900  1
  O  O60  1  0.53605850  0.35645850  0.61965100  1
  O  O61  1  0.46394150  0.35645850  0.88034900  1
  O  O62  1  0.42988550  0.35908150  0.13400400  1
  O  O63  1  0.57011450  0.35908150  0.36599600  1
  O  O64  1  0.57011450  0.64091850  0.86599600  1
  O  O65  1  0.42988550  0.64091850  0.63400400  1
  O  O66  1  0.32812500  0.14889000  0.19285500  1
  O  O67  1  0.67187500  0.14889000  0.30714500  1
  O  O68  1  0.67187500  0.85111000  0.80714500  1
  O  O69  1  0.32812500  0.85111000  0.69285500  1
  O  O70  1  0.85514900  0.92859300  0.26254000  1
  O  O71  1  0.14485100  0.92859300  0.23746000  1
  O  O72  1  0.14485100  0.07140700  0.73746000  1
  O  O73  1  0.85514900  0.07140700  0.76254000  1
  O  O74  1  0.73264500  0.87327000  0.08584400  1
  O  O75  1  0.26735500  0.87327000  0.41415600  1
  O  O76  1  0.26735500  0.12673000  0.91415600  1
  O  O77  1  0.73264500  0.12673000  0.58584400  1
  O  O78  1  0.37002950  0.73209250  0.98446600  1
  O  O79  1  0.62997050  0.73209250  0.51553400  1
  O  O80  1  0.62997050  0.26790750  0.01553400  1
  O  O81  1  0.37002950  0.26790750  0.48446600  1
  O  O82  1  0.53605850  0.64354150  0.11965100  1
  O  O83  1  0.46394150  0.64354150  0.38034900  1
