# generated using pymatgen
data_InCuTe2
_symmetry_space_group_name_H-M   'P 1'
_cell_length_a   6.28833600
_cell_length_b   6.28833600
_cell_length_c   12.60001000
_cell_angle_alpha   90.00000000
_cell_angle_beta   90.00000000
_cell_angle_gamma   90.00000000
_symmetry_Int_Tables_number   1
_chemical_formula_structural   InCuTe2
_chemical_formula_sum   'In4 Cu4 Te8'
_cell_volume   498.24433301
_cell_formula_units_Z   4
loop_
 _symmetry_equiv_pos_site_id
 _symmetry_equiv_pos_as_xyz
  1  'x, y, z'
loop_
 _atom_site_type_symbol
 _atom_site_label
 _atom_site_symmetry_multiplicity
 _atom_site_fract_x
 _atom_site_fract_y
 _atom_site_fract_z
 _atom_site_occupancy
  In  In0  1  0.50000000  0.00000000  0.25000000  1
  In  In1  1  0.50000000  0.50000000  0.00000000  1
  In  In2  1  0.00000000  0.50000000  0.75000000  1
  In  In3  1  0.00000000  0.00000000  0.50000000  1
  Cu  Cu4  1  0.00000000  0.50000000  0.25000000  1
  Cu  Cu5  1  0.00000000  0.00000000  0.00000000  1
  Cu  Cu6  1  0.50000000  0.00000000  0.75000000  1
  Cu  Cu7  1  0.50000000  0.50000000  0.50000000  1
  Te  Te8  1  0.75000000  0.71498400  0.37500000  1
  Te  Te9  1  0.21498400  0.75000000  0.12500000  1
  Te  Te10  1  0.78501600  0.25000000  0.12500000  1
  Te  Te11  1  0.25000000  0.28501600  0.37500000  1
  Te  Te12  1  0.25000000  0.21498400  0.87500000  1
  Te  Te13  1  0.71498400  0.25000000  0.62500000  1
  Te  Te14  1  0.28501600  0.75000000  0.62500000  1
  Te  Te15  1  0.75000000  0.78501600  0.87500000  1
