# generated using pymatgen
data_SiBi2O5
_symmetry_space_group_name_H-M   'P 1'
_cell_length_a   5.55379800
_cell_length_b   15.40881000
_cell_length_c   5.39235500
_cell_angle_alpha   90.00000000
_cell_angle_beta   90.00000000
_cell_angle_gamma   90.00000000
_symmetry_Int_Tables_number   1
_chemical_formula_structural   SiBi2O5
_chemical_formula_sum   'Si4 Bi8 O20'
_cell_volume   461.46381870
_cell_formula_units_Z   4
loop_
 _symmetry_equiv_pos_site_id
 _symmetry_equiv_pos_as_xyz
  1  'x, y, z'
loop_
 _atom_site_type_symbol
 _atom_site_label
 _atom_site_symmetry_multiplicity
 _atom_site_fract_x
 _atom_site_fract_y
 _atom_site_fract_z
 _atom_site_occupancy
  Si  Si0  1  0.32307400  0.00000000  0.30454400  1
  Si  Si1  1  0.67692600  0.00000000  0.80454400  1
  Si  Si2  1  0.82307400  0.50000000  0.30454400  1
  Si  Si3  1  0.17692600  0.50000000  0.80454400  1
  Bi  Bi4  1  0.71932050  0.33405650  0.73907600  1
  Bi  Bi5  1  0.78067950  0.16594350  0.23907600  1
  Bi  Bi6  1  0.28067950  0.33405650  0.23907600  1
  Bi  Bi7  1  0.21932050  0.16594350  0.73907600  1
  Bi  Bi8  1  0.21932050  0.83405650  0.73907600  1
  Bi  Bi9  1  0.28067950  0.66594350  0.23907600  1
  Bi  Bi10  1  0.78067950  0.83405650  0.23907600  1
  Bi  Bi11  1  0.71932050  0.66594350  0.73907600  1
  O  O12  1  0.98972000  0.25106600  0.51214900  1
  O  O13  1  0.51028000  0.24893400  0.01214900  1
  O  O14  1  0.01028000  0.25106600  0.01214900  1
  O  O15  1  0.48972000  0.24893400  0.51214900  1
  O  O16  1  0.67545050  0.40930850  0.32878700  1
  O  O17  1  0.82454950  0.09069150  0.82878700  1
  O  O18  1  0.52985900  0.00000000  0.53343100  1
  O  O19  1  0.47014100  0.00000000  0.03343100  1
  O  O20  1  0.17545050  0.09069150  0.32878700  1
  O  O21  1  0.32454950  0.40930850  0.82878700  1
  O  O22  1  0.48972000  0.75106600  0.51214900  1
  O  O23  1  0.01028000  0.74893400  0.01214900  1
  O  O24  1  0.51028000  0.75106600  0.01214900  1
  O  O25  1  0.98972000  0.74893400  0.51214900  1
  O  O26  1  0.17545050  0.90930850  0.32878700  1
  O  O27  1  0.32454950  0.59069150  0.82878700  1
  O  O28  1  0.02985900  0.50000000  0.53343100  1
  O  O29  1  0.97014100  0.50000000  0.03343100  1
  O  O30  1  0.67545050  0.59069150  0.32878700  1
  O  O31  1  0.82454950  0.90930850  0.82878700  1
