# generated using pymatgen
data_K3GeTe3
_symmetry_space_group_name_H-M   'P 1'
_cell_length_a   16.18542600
_cell_length_b   13.91632800
_cell_length_c   9.83809416
_cell_angle_alpha   90.00000000
_cell_angle_beta   95.56196597
_cell_angle_gamma   90.00000000
_symmetry_Int_Tables_number   1
_chemical_formula_structural   K3GeTe3
_chemical_formula_sum   'K24 Ge8 Te24'
_cell_volume   2205.51624323
_cell_formula_units_Z   8
loop_
 _symmetry_equiv_pos_site_id
 _symmetry_equiv_pos_as_xyz
  1  'x, y, z'
loop_
 _atom_site_type_symbol
 _atom_site_label
 _atom_site_symmetry_multiplicity
 _atom_site_fract_x
 _atom_site_fract_y
 _atom_site_fract_z
 _atom_site_occupancy
  K  K0  1  0.76356300  0.01162500  0.77497800  1
  K  K1  1  0.23643700  0.01162500  0.72502200  1
  K  K2  1  0.23643700  0.98837500  0.22502200  1
  K  K3  1  0.76356300  0.98837500  0.27497800  1
  K  K4  1  0.41101250  0.77886950  0.86549200  1
  K  K5  1  0.58898750  0.77886950  0.63450800  1
  K  K6  1  0.58898750  0.22113050  0.13450800  1
  K  K7  1  0.41101250  0.22113050  0.36549200  1
  K  K8  1  0.50000000  0.09690600  0.75000000  1
  K  K9  1  0.50000000  0.90309400  0.25000000  1
  K  K10  1  0.50000000  0.40591200  0.75000000  1
  K  K11  1  0.50000000  0.59408800  0.25000000  1
  K  K12  1  0.26356300  0.51162500  0.77497800  1
  K  K13  1  0.73643700  0.51162500  0.72502200  1
  K  K14  1  0.73643700  0.48837500  0.22502200  1
  K  K15  1  0.26356300  0.48837500  0.27497800  1
  K  K16  1  0.91101250  0.27886950  0.86549200  1
  K  K17  1  0.08898750  0.27886950  0.63450800  1
  K  K18  1  0.08898750  0.72113050  0.13450800  1
  K  K19  1  0.91101250  0.72113050  0.36549200  1
  K  K20  1  0.00000000  0.59690600  0.75000000  1
  K  K21  1  0.00000000  0.40309400  0.25000000  1
  K  K22  1  0.00000000  0.90591200  0.75000000  1
  K  K23  1  0.00000000  0.09408800  0.25000000  1
  Ge  Ge24  1  0.67804300  0.75356300  0.04061600  1
  Ge  Ge25  1  0.32195700  0.75356300  0.45938400  1
  Ge  Ge26  1  0.32195700  0.24643700  0.95938400  1
  Ge  Ge27  1  0.67804300  0.24643700  0.54061600  1
  Ge  Ge28  1  0.17804300  0.25356300  0.04061600  1
  Ge  Ge29  1  0.82195700  0.25356300  0.45938400  1
  Ge  Ge30  1  0.82195700  0.74643700  0.95938400  1
  Ge  Ge31  1  0.17804300  0.74643700  0.54061600  1
  Te  Te32  1  0.68918050  0.74252050  0.30903200  1
  Te  Te33  1  0.31081950  0.74252050  0.19096800  1
  Te  Te34  1  0.31081950  0.25747950  0.69096800  1
  Te  Te35  1  0.68918050  0.25747950  0.80903200  1
  Te  Te36  1  0.60659200  0.91638900  0.96183600  1
  Te  Te37  1  0.39340800  0.91638900  0.53816400  1
  Te  Te38  1  0.39340800  0.08361100  0.03816400  1
  Te  Te39  1  0.60659200  0.08361100  0.46183600  1
  Te  Te40  1  0.58872350  0.61046150  0.93741100  1
  Te  Te41  1  0.41127650  0.61046150  0.56258900  1
  Te  Te42  1  0.41127650  0.38953850  0.06258900  1
  Te  Te43  1  0.58872350  0.38953850  0.43741100  1
  Te  Te44  1  0.18918050  0.24252050  0.30903200  1
  Te  Te45  1  0.81081950  0.24252050  0.19096800  1
  Te  Te46  1  0.81081950  0.75747950  0.69096800  1
  Te  Te47  1  0.18918050  0.75747950  0.80903200  1
  Te  Te48  1  0.10659200  0.41638900  0.96183600  1
  Te  Te49  1  0.89340800  0.41638900  0.53816400  1
  Te  Te50  1  0.89340800  0.58361100  0.03816400  1
  Te  Te51  1  0.10659200  0.58361100  0.46183600  1
  Te  Te52  1  0.08872350  0.11046150  0.93741100  1
  Te  Te53  1  0.91127650  0.11046150  0.56258900  1
  Te  Te54  1  0.91127650  0.88953850  0.06258900  1
  Te  Te55  1  0.08872350  0.88953850  0.43741100  1
