# generated using pymatgen
data_Zr6CCl14
_symmetry_space_group_name_H-M   'P 1'
_cell_length_a   12.99689600
_cell_length_b   14.34279600
_cell_length_c   11.69334400
_cell_angle_alpha   90.00000000
_cell_angle_beta   90.00000000
_cell_angle_gamma   90.00000000
_symmetry_Int_Tables_number   1
_chemical_formula_structural   Zr6CCl14
_chemical_formula_sum   'Zr24 C4 Cl56'
_cell_volume   2179.77763002
_cell_formula_units_Z   4
loop_
 _symmetry_equiv_pos_site_id
 _symmetry_equiv_pos_as_xyz
  1  'x, y, z'
loop_
 _atom_site_type_symbol
 _atom_site_label
 _atom_site_symmetry_multiplicity
 _atom_site_fract_x
 _atom_site_fract_y
 _atom_site_fract_z
 _atom_site_occupancy
  Zr  Zr0  1  0.64405900  0.00000000  0.10504600  1
  Zr  Zr1  1  0.85594100  0.00000000  0.60504600  1
  Zr  Zr2  1  0.14405900  0.00000000  0.39495400  1
  Zr  Zr3  1  0.35594100  0.00000000  0.89495400  1
  Zr  Zr4  1  0.56875950  0.88520050  0.88324600  1
  Zr  Zr5  1  0.43124050  0.61479950  0.38324600  1
  Zr  Zr6  1  0.56875950  0.61479950  0.61675400  1
  Zr  Zr7  1  0.43124050  0.88520050  0.11675400  1
  Zr  Zr8  1  0.43124050  0.11479950  0.11675400  1
  Zr  Zr9  1  0.56875950  0.38520050  0.61675400  1
  Zr  Zr10  1  0.43124050  0.38520050  0.38324600  1
  Zr  Zr11  1  0.56875950  0.11479950  0.88324600  1
  Zr  Zr12  1  0.14405900  0.50000000  0.10504600  1
  Zr  Zr13  1  0.35594100  0.50000000  0.60504600  1
  Zr  Zr14  1  0.64405900  0.50000000  0.39495400  1
  Zr  Zr15  1  0.85594100  0.50000000  0.89495400  1
  Zr  Zr16  1  0.06875950  0.38520050  0.88324600  1
  Zr  Zr17  1  0.93124050  0.11479950  0.38324600  1
  Zr  Zr18  1  0.06875950  0.11479950  0.61675400  1
  Zr  Zr19  1  0.93124050  0.38520050  0.11675400  1
  Zr  Zr20  1  0.93124050  0.61479950  0.11675400  1
  Zr  Zr21  1  0.06875950  0.88520050  0.61675400  1
  Zr  Zr22  1  0.93124050  0.88520050  0.38324600  1
  Zr  Zr23  1  0.06875950  0.61479950  0.88324600  1
  C  C24  1  0.50000000  0.00000000  0.00000000  1
  C  C25  1  0.00000000  0.00000000  0.50000000  1
  C  C26  1  0.00000000  0.50000000  0.00000000  1
  C  C27  1  0.50000000  0.50000000  0.50000000  1
  Cl  Cl28  1  0.50000000  0.74857100  0.50000000  1
  Cl  Cl29  1  0.50000000  0.75142900  0.00000000  1
  Cl  Cl30  1  0.50000000  0.25142900  0.50000000  1
  Cl  Cl31  1  0.50000000  0.24857100  0.00000000  1
  Cl  Cl32  1  0.84316200  0.00000000  0.23966700  1
  Cl  Cl33  1  0.65683800  0.00000000  0.73966700  1
  Cl  Cl34  1  0.34316200  0.00000000  0.26033300  1
  Cl  Cl35  1  0.15683800  0.00000000  0.76033300  1
  Cl  Cl36  1  0.35330700  0.25000000  0.25000000  1
  Cl  Cl37  1  0.64669300  0.25000000  0.75000000  1
  Cl  Cl38  1  0.58715500  0.37746800  0.25268200  1
  Cl  Cl39  1  0.41284500  0.12253200  0.75268200  1
  Cl  Cl40  1  0.58715500  0.12253200  0.24731800  1
  Cl  Cl41  1  0.41284500  0.37746800  0.74731800  1
  Cl  Cl42  1  0.41284500  0.62253200  0.74731800  1
  Cl  Cl43  1  0.58715500  0.87746800  0.24731800  1
  Cl  Cl44  1  0.41284500  0.87746800  0.75268200  1
  Cl  Cl45  1  0.58715500  0.62253200  0.25268200  1
  Cl  Cl46  1  0.26124200  0.87671400  0.00887700  1
  Cl  Cl47  1  0.23875800  0.12328600  0.50887700  1
  Cl  Cl48  1  0.76124200  0.12328600  0.49112300  1
  Cl  Cl49  1  0.73875800  0.87671400  0.99112300  1
  Cl  Cl50  1  0.73875800  0.12328600  0.99112300  1
  Cl  Cl51  1  0.76124200  0.87671400  0.49112300  1
  Cl  Cl52  1  0.23875800  0.87671400  0.50887700  1
  Cl  Cl53  1  0.26124200  0.12328600  0.00887700  1
  Cl  Cl54  1  0.35330700  0.75000000  0.25000000  1
  Cl  Cl55  1  0.64669300  0.75000000  0.75000000  1
  Cl  Cl56  1  0.00000000  0.24857100  0.50000000  1
  Cl  Cl57  1  0.00000000  0.25142900  0.00000000  1
  Cl  Cl58  1  0.00000000  0.75142900  0.50000000  1
  Cl  Cl59  1  0.00000000  0.74857100  0.00000000  1
  Cl  Cl60  1  0.34316200  0.50000000  0.23966700  1
  Cl  Cl61  1  0.15683800  0.50000000  0.73966700  1
  Cl  Cl62  1  0.84316200  0.50000000  0.26033300  1
  Cl  Cl63  1  0.65683800  0.50000000  0.76033300  1
  Cl  Cl64  1  0.85330700  0.75000000  0.25000000  1
  Cl  Cl65  1  0.14669300  0.75000000  0.75000000  1
  Cl  Cl66  1  0.08715500  0.87746800  0.25268200  1
  Cl  Cl67  1  0.91284500  0.62253200  0.75268200  1
  Cl  Cl68  1  0.08715500  0.62253200  0.24731800  1
  Cl  Cl69  1  0.91284500  0.87746800  0.74731800  1
  Cl  Cl70  1  0.91284500  0.12253200  0.74731800  1
  Cl  Cl71  1  0.08715500  0.37746800  0.24731800  1
  Cl  Cl72  1  0.91284500  0.37746800  0.75268200  1
  Cl  Cl73  1  0.08715500  0.12253200  0.25268200  1
  Cl  Cl74  1  0.76124200  0.37671400  0.00887700  1
  Cl  Cl75  1  0.73875800  0.62328600  0.50887700  1
  Cl  Cl76  1  0.26124200  0.62328600  0.49112300  1
  Cl  Cl77  1  0.23875800  0.37671400  0.99112300  1
  Cl  Cl78  1  0.23875800  0.62328600  0.99112300  1
  Cl  Cl79  1  0.26124200  0.37671400  0.49112300  1
  Cl  Cl80  1  0.73875800  0.37671400  0.50887700  1
  Cl  Cl81  1  0.76124200  0.62328600  0.00887700  1
  Cl  Cl82  1  0.85330700  0.25000000  0.25000000  1
  Cl  Cl83  1  0.14669300  0.25000000  0.75000000  1
