# generated using pymatgen
data_Dy(AlCl4)3
_symmetry_space_group_name_H-M   'P 1'
_cell_length_a   10.81647377
_cell_length_b   10.81647377
_cell_length_c   16.03529900
_cell_angle_alpha   90.00000000
_cell_angle_beta   90.00000000
_cell_angle_gamma   120.00000000
_symmetry_Int_Tables_number   1
_chemical_formula_structural   Dy(AlCl4)3
_chemical_formula_sum   'Dy3 Al9 Cl36'
_cell_volume   1624.72213434
_cell_formula_units_Z   3
loop_
 _symmetry_equiv_pos_site_id
 _symmetry_equiv_pos_as_xyz
  1  'x, y, z'
loop_
 _atom_site_type_symbol
 _atom_site_label
 _atom_site_symmetry_multiplicity
 _atom_site_fract_x
 _atom_site_fract_y
 _atom_site_fract_z
 _atom_site_occupancy
  Dy  Dy0  1  0.99020533  0.49510267  0.00000000  1
  Dy  Dy1  1  0.50489733  0.00979467  0.66666667  1
  Dy  Dy2  1  0.50489733  0.49510267  0.33333333  1
  Al  Al3  1  0.73127933  0.26872067  0.83333333  1
  Al  Al4  1  0.12880933  0.76376367  0.60351300  1
  Al  Al5  1  0.23623633  0.36504567  0.93684633  1
  Al  Al6  1  0.63495433  0.87119067  0.27017967  1
  Al  Al7  1  0.73127933  0.46255867  0.16666667  1
  Al  Al8  1  0.53744133  0.26872067  0.50000000  1
  Al  Al9  1  0.12880933  0.36504567  0.39648700  1
  Al  Al10  1  0.63495433  0.76376367  0.72982033  1
  Al  Al11  1  0.23623633  0.87119067  0.06315367  1
  Cl  Cl12  1  0.00814833  0.84192767  0.54480200  1
  Cl  Cl13  1  0.83377933  0.99185167  0.21146867  1
  Cl  Cl14  1  0.15807233  0.16622067  0.87813533  1
  Cl  Cl15  1  0.79058133  0.59006367  0.27937400  1
  Cl  Cl16  1  0.40993633  0.20051767  0.61270733  1
  Cl  Cl17  1  0.79948233  0.20941867  0.94604067  1
  Cl  Cl18  1  0.40993633  0.20941867  0.38729267  1
  Cl  Cl19  1  0.79948233  0.59006367  0.05395933  1
  Cl  Cl20  1  0.79058133  0.20051767  0.72062600  1
  Cl  Cl21  1  0.22657333  0.34565567  0.27827000  1
  Cl  Cl22  1  0.65434433  0.88091767  0.61160333  1
  Cl  Cl23  1  0.11908233  0.77342667  0.94493667  1
  Cl  Cl24  1  0.65434433  0.77342667  0.38839667  1
  Cl  Cl25  1  0.11908233  0.34565567  0.05506333  1
  Cl  Cl26  1  0.22657333  0.88091767  0.72173000  1
  Cl  Cl27  1  0.50448233  0.66187167  0.20526900  1
  Cl  Cl28  1  0.33812833  0.84261067  0.53860233  1
  Cl  Cl29  1  0.15738933  0.49551767  0.87193567  1
  Cl  Cl30  1  0.33812833  0.49551767  0.46139767  1
  Cl  Cl31  1  0.15738933  0.66187167  0.12806433  1
  Cl  Cl32  1  0.50448233  0.84261067  0.79473100  1
  Cl  Cl33  1  0.66207733  0.49672867  0.48186000  1
  Cl  Cl34  1  0.50327133  0.16534867  0.81519333  1
  Cl  Cl35  1  0.83465133  0.33792267  0.14852667  1
  Cl  Cl36  1  0.50327133  0.33792267  0.18480667  1
  Cl  Cl37  1  0.83465133  0.49672867  0.85147333  1
  Cl  Cl38  1  0.66207733  0.16534867  0.51814000  1
  Cl  Cl39  1  0.03093333  0.48889867  0.37628500  1
  Cl  Cl40  1  0.51110133  0.54203467  0.70961833  1
  Cl  Cl41  1  0.45796533  0.96906667  0.04295167  1
  Cl  Cl42  1  0.51110133  0.96906667  0.29038167  1
  Cl  Cl43  1  0.45796533  0.48889867  0.95704833  1
  Cl  Cl44  1  0.03093333  0.54203467  0.62371500  1
  Cl  Cl45  1  0.00814833  0.16622067  0.45519800  1
  Cl  Cl46  1  0.83377933  0.84192767  0.78853133  1
  Cl  Cl47  1  0.15807233  0.99185167  0.12186467  1
