# generated using pymatgen
data_Ba5CrN5
_symmetry_space_group_name_H-M   'P 1'
_cell_length_a   10.67133000
_cell_length_b   11.88924200
_cell_length_c   9.51192426
_cell_angle_alpha   90.00000000
_cell_angle_beta   110.91450293
_cell_angle_gamma   90.00000000
_symmetry_Int_Tables_number   1
_chemical_formula_structural   Ba5CrN5
_chemical_formula_sum   'Ba20 Cr4 N20'
_cell_volume   1127.30400354
_cell_formula_units_Z   4
loop_
 _symmetry_equiv_pos_site_id
 _symmetry_equiv_pos_as_xyz
  1  'x, y, z'
loop_
 _atom_site_type_symbol
 _atom_site_label
 _atom_site_symmetry_multiplicity
 _atom_site_fract_x
 _atom_site_fract_y
 _atom_site_fract_z
 _atom_site_occupancy
  Ba  Ba0  1  0.38867000  0.00000000  0.61662500  1
  Ba  Ba1  1  0.61133000  0.00000000  0.38337500  1
  Ba  Ba2  1  0.66417900  0.00000000  0.99273900  1
  Ba  Ba3  1  0.33582100  0.00000000  0.00726100  1
  Ba  Ba4  1  0.92516500  0.00000000  0.79914800  1
  Ba  Ba5  1  0.07483500  0.00000000  0.20085200  1
  Ba  Ba6  1  0.32787450  0.76459350  0.24170300  1
  Ba  Ba7  1  0.67212550  0.76459350  0.75829700  1
  Ba  Ba8  1  0.67212550  0.23540650  0.75829700  1
  Ba  Ba9  1  0.32787450  0.23540650  0.24170300  1
  Ba  Ba10  1  0.88867000  0.50000000  0.61662500  1
  Ba  Ba11  1  0.11133000  0.50000000  0.38337500  1
  Ba  Ba12  1  0.16417900  0.50000000  0.99273900  1
  Ba  Ba13  1  0.83582100  0.50000000  0.00726100  1
  Ba  Ba14  1  0.42516500  0.50000000  0.79914800  1
  Ba  Ba15  1  0.57483500  0.50000000  0.20085200  1
  Ba  Ba16  1  0.82787450  0.26459350  0.24170300  1
  Ba  Ba17  1  0.17212550  0.26459350  0.75829700  1
  Ba  Ba18  1  0.17212550  0.73540650  0.75829700  1
  Ba  Ba19  1  0.82787450  0.73540650  0.24170300  1
  Cr  Cr20  1  0.50000000  0.74259300  0.00000000  1
  Cr  Cr21  1  0.50000000  0.25740700  0.00000000  1
  Cr  Cr22  1  0.00000000  0.24259300  0.00000000  1
  Cr  Cr23  1  0.00000000  0.75740700  0.00000000  1
  N  N24  1  0.65186500  0.00000000  0.68813600  1
  N  N25  1  0.34813500  0.00000000  0.31186400  1
  N  N26  1  0.37028250  0.65364550  0.00778300  1
  N  N27  1  0.62971750  0.65364550  0.99221700  1
  N  N28  1  0.62971750  0.34635450  0.99221700  1
  N  N29  1  0.37028250  0.34635450  0.00778300  1
  N  N30  1  0.55839150  0.17191050  0.16135200  1
  N  N31  1  0.44160850  0.17191050  0.83864800  1
  N  N32  1  0.44160850  0.82808950  0.83864800  1
  N  N33  1  0.55839150  0.82808950  0.16135200  1
  N  N34  1  0.15186500  0.50000000  0.68813600  1
  N  N35  1  0.84813500  0.50000000  0.31186400  1
  N  N36  1  0.87028250  0.15364550  0.00778300  1
  N  N37  1  0.12971750  0.15364550  0.99221700  1
  N  N38  1  0.12971750  0.84635450  0.99221700  1
  N  N39  1  0.87028250  0.84635450  0.00778300  1
  N  N40  1  0.05839150  0.67191050  0.16135200  1
  N  N41  1  0.94160850  0.67191050  0.83864800  1
  N  N42  1  0.94160850  0.32808950  0.83864800  1
  N  N43  1  0.05839150  0.32808950  0.16135200  1
