# generated using pymatgen
data_Sn2SO5
_symmetry_space_group_name_H-M   'P 1'
_cell_length_a   11.26007300
_cell_length_b   11.26007300
_cell_length_c   9.06729200
_cell_angle_alpha   90.00000000
_cell_angle_beta   90.00000000
_cell_angle_gamma   90.00000000
_symmetry_Int_Tables_number   1
_chemical_formula_structural   Sn2SO5
_chemical_formula_sum   'Sn16 S8 O40'
_cell_volume   1149.63509749
_cell_formula_units_Z   8
loop_
 _symmetry_equiv_pos_site_id
 _symmetry_equiv_pos_as_xyz
  1  'x, y, z'
loop_
 _atom_site_type_symbol
 _atom_site_label
 _atom_site_symmetry_multiplicity
 _atom_site_fract_x
 _atom_site_fract_y
 _atom_site_fract_z
 _atom_site_occupancy
  Sn  Sn0  1  0.21387600  0.51749200  0.74336600  1
  Sn  Sn1  1  0.78612400  0.48250800  0.74336600  1
  Sn  Sn2  1  0.48250800  0.21387600  0.25663400  1
  Sn  Sn3  1  0.51749200  0.78612400  0.25663400  1
  Sn  Sn4  1  0.01749200  0.71387600  0.24336600  1
  Sn  Sn5  1  0.71387600  0.98250800  0.75663400  1
  Sn  Sn6  1  0.28612400  0.01749200  0.75663400  1
  Sn  Sn7  1  0.98250800  0.28612400  0.24336600  1
  Sn  Sn8  1  0.50642100  0.65919600  0.63516900  1
  Sn  Sn9  1  0.49357900  0.34080400  0.63516900  1
  Sn  Sn10  1  0.34080400  0.50642100  0.36483100  1
  Sn  Sn11  1  0.65919600  0.49357900  0.36483100  1
  Sn  Sn12  1  0.15919600  0.00642100  0.13516900  1
  Sn  Sn13  1  0.00642100  0.84080400  0.86483100  1
  Sn  Sn14  1  0.99357900  0.15919600  0.86483100  1
  Sn  Sn15  1  0.84080400  0.99357900  0.13516900  1
  S  S16  1  0.20981900  0.79292600  0.50784700  1
  S  S17  1  0.79018100  0.20707400  0.50784700  1
  S  S18  1  0.20707400  0.20981900  0.49215300  1
  S  S19  1  0.79292600  0.79018100  0.49215300  1
  S  S20  1  0.29292600  0.70981900  0.00784700  1
  S  S21  1  0.70981900  0.70707400  0.99215300  1
  S  S22  1  0.29018100  0.29292600  0.99215300  1
  S  S23  1  0.70707400  0.29018100  0.00784700  1
  O  O24  1  0.16488900  0.81752500  0.35291400  1
  O  O25  1  0.83511100  0.18247500  0.35291400  1
  O  O26  1  0.18247500  0.16488900  0.64708600  1
  O  O27  1  0.81752500  0.83511100  0.64708600  1
  O  O28  1  0.31752500  0.66488900  0.85291400  1
  O  O29  1  0.66488900  0.68247500  0.14708600  1
  O  O30  1  0.33511100  0.31752500  0.14708600  1
  O  O31  1  0.68247500  0.33511100  0.85291400  1
  O  O32  1  0.16958900  0.89218500  0.60540200  1
  O  O33  1  0.83041100  0.10781500  0.60540200  1
  O  O34  1  0.10781500  0.16958900  0.39459800  1
  O  O35  1  0.89218500  0.83041100  0.39459800  1
  O  O36  1  0.39218500  0.66958900  0.10540200  1
  O  O37  1  0.66958900  0.60781500  0.89459800  1
  O  O38  1  0.33041100  0.39218500  0.89459800  1
  O  O39  1  0.15731100  0.67863100  0.55736100  1
  O  O40  1  0.60781500  0.33041100  0.10540200  1
  O  O41  1  0.65851300  0.21194200  0.50275400  1
  O  O42  1  0.21194200  0.34148700  0.49724600  1
  O  O43  1  0.78805800  0.65851300  0.49724600  1
  O  O44  1  0.28805800  0.84148700  0.00275400  1
  O  O45  1  0.84148700  0.71194200  0.99724600  1
  O  O46  1  0.15851300  0.28805800  0.99724600  1
  O  O47  1  0.71194200  0.15851300  0.00275400  1
  O  O48  1  0.98481500  0.12478200  0.11315300  1
  O  O49  1  0.12478200  0.01518500  0.88684700  1
  O  O50  1  0.87521800  0.98481500  0.88684700  1
  O  O51  1  0.01518500  0.87521800  0.11315300  1
  O  O52  1  0.51518500  0.62478200  0.38684700  1
  O  O53  1  0.48481500  0.37521800  0.38684700  1
  O  O54  1  0.62478200  0.48481500  0.61315300  1
  O  O55  1  0.37521800  0.51518500  0.61315300  1
  O  O56  1  0.82136900  0.34268900  0.05736100  1
  O  O57  1  0.34268900  0.17863100  0.94263900  1
  O  O58  1  0.65731100  0.82136900  0.94263900  1
  O  O59  1  0.17863100  0.65731100  0.05736100  1
  O  O60  1  0.67863100  0.84268900  0.44263900  1
  O  O61  1  0.32136900  0.15731100  0.44263900  1
  O  O62  1  0.84268900  0.32136900  0.55736100  1
  O  O63  1  0.34148700  0.78805800  0.50275400  1
