# generated using pymatgen
data_Al10Ge2O19
_symmetry_space_group_name_H-M   'P 1'
_cell_length_a   5.92535600
_cell_length_b   30.85347800
_cell_length_c   7.83298600
_cell_angle_alpha   90.00000000
_cell_angle_beta   90.00000000
_cell_angle_gamma   90.00000000
_symmetry_Int_Tables_number   1
_chemical_formula_structural   Al10Ge2O19
_chemical_formula_sum   'Al40 Ge8 O76'
_cell_volume   1432.00958901
_cell_formula_units_Z   4
loop_
 _symmetry_equiv_pos_site_id
 _symmetry_equiv_pos_as_xyz
  1  'x, y, z'
loop_
 _atom_site_type_symbol
 _atom_site_label
 _atom_site_symmetry_multiplicity
 _atom_site_fract_x
 _atom_site_fract_y
 _atom_site_fract_z
 _atom_site_occupancy
  Al  Al0  1  0.24317200  0.94085900  0.98940900  1
  Al  Al1  1  0.25682800  0.55914100  0.48940900  1
  Al  Al2  1  0.75682800  0.94085900  0.98940900  1
  Al  Al3  1  0.74317200  0.55914100  0.48940900  1
  Al  Al4  1  0.50000000  0.52771200  0.83215900  1
  Al  Al5  1  0.00000000  0.97228800  0.33215900  1
  Al  Al6  1  0.00000000  0.52345500  0.81737100  1
  Al  Al7  1  0.50000000  0.97654500  0.31737100  1
  Al  Al8  1  0.00000000  0.77631900  0.84544500  1
  Al  Al9  1  0.50000000  0.72368100  0.34544500  1
  Al  Al10  1  0.00000000  0.85525500  0.17790000  1
  Al  Al11  1  0.50000000  0.64474500  0.67790000  1
  Al  Al12  1  0.00000000  0.59888800  0.16293100  1
  Al  Al13  1  0.50000000  0.90111200  0.66293100  1
  Al  Al14  1  0.50000000  0.59796800  0.16268800  1
  Al  Al15  1  0.00000000  0.90203200  0.66268800  1
  Al  Al16  1  0.75339400  0.81509900  0.51398300  1
  Al  Al17  1  0.74660600  0.68490100  0.01398300  1
  Al  Al18  1  0.24660600  0.81509900  0.51398300  1
  Al  Al19  1  0.25339400  0.68490100  0.01398300  1
  Al  Al20  1  0.74317200  0.44085900  0.98940900  1
  Al  Al21  1  0.75682800  0.05914100  0.48940900  1
  Al  Al22  1  0.25682800  0.44085900  0.98940900  1
  Al  Al23  1  0.24317200  0.05914100  0.48940900  1
  Al  Al24  1  0.00000000  0.02771200  0.83215900  1
  Al  Al25  1  0.50000000  0.47228800  0.33215900  1
  Al  Al26  1  0.50000000  0.02345500  0.81737100  1
  Al  Al27  1  0.00000000  0.47654500  0.31737100  1
  Al  Al28  1  0.50000000  0.27631900  0.84544500  1
  Al  Al29  1  0.00000000  0.22368100  0.34544500  1
  Al  Al30  1  0.50000000  0.35525500  0.17790000  1
  Al  Al31  1  0.00000000  0.14474500  0.67790000  1
  Al  Al32  1  0.50000000  0.09888800  0.16293100  1
  Al  Al33  1  0.00000000  0.40111200  0.66293100  1
  Al  Al34  1  0.00000000  0.09796800  0.16268800  1
  Al  Al35  1  0.50000000  0.40203200  0.66268800  1
  Al  Al36  1  0.25339400  0.31509900  0.51398300  1
  Al  Al37  1  0.24660600  0.18490100  0.01398300  1
  Al  Al38  1  0.74660600  0.31509900  0.51398300  1
  Al  Al39  1  0.75339400  0.18490100  0.01398300  1
  Ge  Ge40  1  0.00000000  0.61781200  0.78390100  1
  Ge  Ge41  1  0.50000000  0.88218800  0.28390100  1
  Ge  Ge42  1  0.00000000  0.75483800  0.20254000  1
  Ge  Ge43  1  0.50000000  0.74516200  0.70254000  1
  Ge  Ge44  1  0.50000000  0.11781200  0.78390100  1
  Ge  Ge45  1  0.00000000  0.38218800  0.28390100  1
  Ge  Ge46  1  0.50000000  0.25483800  0.20254000  1
  Ge  Ge47  1  0.00000000  0.24516200  0.70254000  1
  O  O48  1  0.00000000  0.92972100  0.47463500  1
  O  O49  1  0.50000000  0.57027900  0.97463500  1
  O  O50  1  0.50000000  0.69682600  0.55505500  1
  O  O51  1  0.00000000  0.80317400  0.05505500  1
  O  O52  1  0.50000000  0.92453300  0.44554800  1
  O  O53  1  0.00000000  0.57546700  0.94554800  1
  O  O54  1  0.25148400  0.53183300  0.70553400  1
  O  O55  1  0.24851600  0.96816700  0.20553400  1
  O  O56  1  0.74851600  0.53183300  0.70553400  1
  O  O57  1  0.75148400  0.96816700  0.20553400  1
  O  O58  1  0.75446800  0.77690500  0.71485100  1
  O  O59  1  0.74553200  0.72309500  0.21485100  1
  O  O60  1  0.24553200  0.77690500  0.71485100  1
  O  O61  1  0.25446800  0.72309500  0.21485100  1
  O  O62  1  0.74534750  0.84760350  0.30345800  1
  O  O63  1  0.75465250  0.65239650  0.80345800  1
  O  O64  1  0.25465250  0.84760350  0.30345800  1
  O  O65  1  0.24534750  0.65239650  0.80345800  1
  O  O66  1  0.75392500  0.59039200  0.27810500  1
  O  O67  1  0.74607500  0.90960800  0.77810500  1
  O  O68  1  0.24607500  0.59039200  0.27810500  1
  O  O69  1  0.25392500  0.90960800  0.77810500  1
  O  O70  1  0.00000000  0.97441000  0.91439700  1
  O  O71  1  0.50000000  0.52559000  0.41439700  1
  O  O72  1  0.00000000  0.84328300  0.61410500  1
  O  O73  1  0.50000000  0.65671700  0.11410500  1
  O  O74  1  0.50000000  0.84668400  0.58517900  1
  O  O75  1  0.00000000  0.65331600  0.08517900  1
  O  O76  1  0.00000000  0.59789200  0.57625100  1
  O  O77  1  0.50000000  0.90210800  0.07625100  1
  O  O78  1  0.50000000  0.59776900  0.56304000  1
  O  O79  1  0.00000000  0.90223100  0.06304000  1
  O  O80  1  0.00000000  0.78212000  0.40464400  1
  O  O81  1  0.50000000  0.71788000  0.90464400  1
  O  O82  1  0.50000000  0.77475200  0.45456800  1
  O  O83  1  0.00000000  0.72524800  0.95456800  1
  O  O84  1  0.00000000  0.52595100  0.42196400  1
  O  O85  1  0.50000000  0.97404900  0.92196400  1
  O  O86  1  0.50000000  0.42972100  0.47463500  1
  O  O87  1  0.00000000  0.07027900  0.97463500  1
  O  O88  1  0.00000000  0.19682600  0.55505500  1
  O  O89  1  0.50000000  0.30317400  0.05505500  1
  O  O90  1  0.00000000  0.42453300  0.44554800  1
  O  O91  1  0.50000000  0.07546700  0.94554800  1
  O  O92  1  0.75148400  0.03183300  0.70553400  1
  O  O93  1  0.74851600  0.46816700  0.20553400  1
  O  O94  1  0.24851600  0.03183300  0.70553400  1
  O  O95  1  0.25148400  0.46816700  0.20553400  1
  O  O96  1  0.25446800  0.27690500  0.71485100  1
  O  O97  1  0.24553200  0.22309500  0.21485100  1
  O  O98  1  0.74553200  0.27690500  0.71485100  1
  O  O99  1  0.75446800  0.22309500  0.21485100  1
  O  O100  1  0.24534750  0.34760350  0.30345800  1
  O  O101  1  0.25465250  0.15239650  0.80345800  1
  O  O102  1  0.75465250  0.34760350  0.30345800  1
  O  O103  1  0.74534750  0.15239650  0.80345800  1
  O  O104  1  0.25392500  0.09039200  0.27810500  1
  O  O105  1  0.24607500  0.40960800  0.77810500  1
  O  O106  1  0.74607500  0.09039200  0.27810500  1
  O  O107  1  0.75392500  0.40960800  0.77810500  1
  O  O108  1  0.50000000  0.47441000  0.91439700  1
  O  O109  1  0.00000000  0.02559000  0.41439700  1
  O  O110  1  0.50000000  0.34328300  0.61410500  1
  O  O111  1  0.00000000  0.15671700  0.11410500  1
  O  O112  1  0.00000000  0.34668400  0.58517900  1
  O  O113  1  0.50000000  0.15331600  0.08517900  1
  O  O114  1  0.50000000  0.09789200  0.57625100  1
  O  O115  1  0.00000000  0.40210800  0.07625100  1
  O  O116  1  0.00000000  0.09776900  0.56304000  1
  O  O117  1  0.50000000  0.40223100  0.06304000  1
  O  O118  1  0.50000000  0.28212000  0.40464400  1
  O  O119  1  0.00000000  0.21788000  0.90464400  1
  O  O120  1  0.00000000  0.27475200  0.45456800  1
  O  O121  1  0.50000000  0.22524800  0.95456800  1
  O  O122  1  0.50000000  0.02595100  0.42196400  1
  O  O123  1  0.00000000  0.47404900  0.92196400  1
