# generated using pymatgen
data_Rb3InS3
_symmetry_space_group_name_H-M   'P 1'
_cell_length_a   9.05844600
_cell_length_b   13.80872000
_cell_length_c   8.03505727
_cell_angle_alpha   90.00000000
_cell_angle_beta   101.47587280
_cell_angle_gamma   90.00000000
_symmetry_Int_Tables_number   1
_chemical_formula_structural   Rb3InS3
_chemical_formula_sum   'Rb12 In4 S12'
_cell_volume   984.97673835
_cell_formula_units_Z   4
loop_
 _symmetry_equiv_pos_site_id
 _symmetry_equiv_pos_as_xyz
  1  'x, y, z'
loop_
 _atom_site_type_symbol
 _atom_site_label
 _atom_site_symmetry_multiplicity
 _atom_site_fract_x
 _atom_site_fract_y
 _atom_site_fract_z
 _atom_site_occupancy
  Rb  Rb0  1  0.50000000  0.24722300  0.00000000  1
  Rb  Rb1  1  0.50000000  0.17925100  0.50000000  1
  Rb  Rb2  1  0.88732700  0.00000000  0.64649300  1
  Rb  Rb3  1  0.50000000  0.82074900  0.50000000  1
  Rb  Rb4  1  0.50000000  0.75277700  0.00000000  1
  Rb  Rb5  1  0.11267300  0.00000000  0.35350700  1
  Rb  Rb6  1  0.00000000  0.74722300  0.00000000  1
  Rb  Rb7  1  0.00000000  0.67925100  0.50000000  1
  Rb  Rb8  1  0.38732700  0.50000000  0.64649300  1
  Rb  Rb9  1  0.00000000  0.32074900  0.50000000  1
  Rb  Rb10  1  0.00000000  0.25277700  0.00000000  1
  Rb  Rb11  1  0.61267300  0.50000000  0.35350700  1
  In  In12  1  0.32466000  0.00000000  0.85336900  1
  In  In13  1  0.67534000  0.00000000  0.14663100  1
  In  In14  1  0.82466000  0.50000000  0.85336900  1
  In  In15  1  0.17534000  0.50000000  0.14663100  1
  S  S16  1  0.80144550  0.14684050  0.27436900  1
  S  S17  1  0.39894600  0.00000000  0.17717100  1
  S  S18  1  0.60105400  0.00000000  0.82282900  1
  S  S19  1  0.19855450  0.85315950  0.72563100  1
  S  S20  1  0.19855450  0.14684050  0.72563100  1
  S  S21  1  0.80144550  0.85315950  0.27436900  1
  S  S22  1  0.30144550  0.64684050  0.27436900  1
  S  S23  1  0.89894600  0.50000000  0.17717100  1
  S  S24  1  0.10105400  0.50000000  0.82282900  1
  S  S25  1  0.69855450  0.35315950  0.72563100  1
  S  S26  1  0.69855450  0.64684050  0.72563100  1
  S  S27  1  0.30144550  0.35315950  0.27436900  1
