# generated using pymatgen
data_CeBO3
_symmetry_space_group_name_H-M   'P 1'
_cell_length_a   5.11207200
_cell_length_b   5.82640900
_cell_length_c   8.23081200
_cell_angle_alpha   90.00000000
_cell_angle_beta   90.00000000
_cell_angle_gamma   90.00000000
_symmetry_Int_Tables_number   1
_chemical_formula_structural   CeBO3
_chemical_formula_sum   'Ce4 B4 O12'
_cell_volume   245.15491904
_cell_formula_units_Z   4
loop_
 _symmetry_equiv_pos_site_id
 _symmetry_equiv_pos_as_xyz
  1  'x, y, z'
loop_
 _atom_site_type_symbol
 _atom_site_label
 _atom_site_symmetry_multiplicity
 _atom_site_fract_x
 _atom_site_fract_y
 _atom_site_fract_z
 _atom_site_occupancy
  Ce  Ce0  1  0.25000000  0.75650400  0.91417400  1
  Ce  Ce1  1  0.75000000  0.24349600  0.08582600  1
  Ce  Ce2  1  0.25000000  0.25650400  0.58582600  1
  Ce  Ce3  1  0.75000000  0.74349600  0.41417400  1
  B  B4  1  0.25000000  0.92061100  0.25947700  1
  B  B5  1  0.75000000  0.07938900  0.74052300  1
  B  B6  1  0.25000000  0.42061100  0.24052300  1
  B  B7  1  0.75000000  0.57938900  0.75947700  1
  O  O8  1  0.75000000  0.59051800  0.92654200  1
  O  O9  1  0.25000000  0.40948200  0.07345800  1
  O  O10  1  0.75000000  0.09051800  0.57345800  1
  O  O11  1  0.25000000  0.90948200  0.42654200  1
  O  O12  1  0.51659100  0.58510600  0.67438000  1
  O  O13  1  0.01659100  0.41489400  0.32562000  1
  O  O14  1  0.98340900  0.08510600  0.82562000  1
  O  O15  1  0.48340900  0.91489400  0.17438000  1
  O  O16  1  0.48340900  0.41489400  0.32562000  1
  O  O17  1  0.98340900  0.58510600  0.67438000  1
  O  O18  1  0.01659100  0.91489400  0.17438000  1
  O  O19  1  0.51659100  0.08510600  0.82562000  1
