# generated using pymatgen
data_BaBiO3
_symmetry_space_group_name_H-M   'P 1'
_cell_length_a   6.27543594
_cell_length_b   6.27543594
_cell_length_c   15.16572670
_cell_angle_alpha   90.00000000
_cell_angle_beta   90.00000000
_cell_angle_gamma   120.00000000
_symmetry_Int_Tables_number   1
_chemical_formula_structural   BaBiO3
_chemical_formula_sum   'Ba6 Bi6 O18'
_cell_volume   517.22756110
_cell_formula_units_Z   6
loop_
 _symmetry_equiv_pos_site_id
 _symmetry_equiv_pos_as_xyz
  1  'x, y, z'
loop_
 _atom_site_type_symbol
 _atom_site_label
 _atom_site_symmetry_multiplicity
 _atom_site_fract_x
 _atom_site_fract_y
 _atom_site_fract_z
 _atom_site_occupancy
  Ba  Ba0  1  0.33333333  0.66666667  0.91635667  1
  Ba  Ba1  1  0.33333333  0.66666667  0.41697667  1
  Ba  Ba2  1  0.00000000  0.00000000  0.24969000  1
  Ba  Ba3  1  0.00000000  0.00000000  0.75031000  1
  Ba  Ba4  1  0.66666667  0.33333333  0.58302333  1
  Ba  Ba5  1  0.66666667  0.33333333  0.08364333  1
  Bi  Bi6  1  0.00000000  0.00000000  0.00000000  1
  Bi  Bi7  1  0.33333333  0.66666667  0.16666667  1
  Bi  Bi8  1  0.66666667  0.33333333  0.33333333  1
  Bi  Bi9  1  1.00000000  0.00000000  0.50000000  1
  Bi  Bi10  1  0.33333333  0.66666667  0.66666667  1
  Bi  Bi11  1  0.66666667  0.33333333  0.83333333  1
  O  O12  1  0.44330633  0.43168767  0.25207567  1
  O  O13  1  0.56831233  0.01161867  0.25207567  1
  O  O14  1  0.98838133  0.55669367  0.25207567  1
  O  O15  1  0.22336033  0.90164567  0.08125767  1
  O  O16  1  0.67828533  0.77663967  0.08125767  1
  O  O17  1  0.09835433  0.32171467  0.08125767  1
  O  O18  1  0.10997300  0.76502100  0.58540900  1
  O  O19  1  0.23497900  0.34495200  0.58540900  1
  O  O20  1  0.65504800  0.89002700  0.58540900  1
  O  O21  1  0.89002700  0.23497900  0.41459100  1
  O  O22  1  0.34495200  0.10997300  0.41459100  1
  O  O23  1  0.76502100  0.65504800  0.41459100  1
  O  O24  1  0.77663967  0.09835433  0.91874233  1
  O  O25  1  0.90164567  0.67828533  0.91874233  1
  O  O26  1  0.32171467  0.22336033  0.91874233  1
  O  O27  1  0.55669367  0.56831233  0.74792433  1
  O  O28  1  0.01161867  0.44330633  0.74792433  1
  O  O29  1  0.43168767  0.98838133  0.74792433  1
