# generated using pymatgen
data_YMo3O8
_symmetry_space_group_name_H-M   'P 1'
_cell_length_a   10.77797000
_cell_length_b   6.29212200
_cell_length_c   4.76023885
_cell_angle_alpha   90.00000000
_cell_angle_beta   90.23149526
_cell_angle_gamma   90.00000000
_symmetry_Int_Tables_number   1
_chemical_formula_structural   YMo3O8
_chemical_formula_sum   'Y2 Mo6 O16'
_cell_volume   322.81916151
_cell_formula_units_Z   2
loop_
 _symmetry_equiv_pos_site_id
 _symmetry_equiv_pos_as_xyz
  1  'x, y, z'
loop_
 _atom_site_type_symbol
 _atom_site_label
 _atom_site_symmetry_multiplicity
 _atom_site_fract_x
 _atom_site_fract_y
 _atom_site_fract_z
 _atom_site_occupancy
  Y  Y0  1  0.00000000  0.00000000  0.00000000  1
  Y  Y1  1  0.50000000  0.50000000  0.00000000  1
  Mo  Mo2  1  0.50000000  0.00000000  0.50000000  1
  Mo  Mo3  1  0.75000000  0.25000000  0.50000000  1
  Mo  Mo4  1  0.75000000  0.75000000  0.50000000  1
  Mo  Mo5  1  0.00000000  0.50000000  0.50000000  1
  Mo  Mo6  1  0.25000000  0.75000000  0.50000000  1
  Mo  Mo7  1  0.25000000  0.25000000  0.50000000  1
  O  O8  1  0.41510900  0.22775600  0.27646500  1
  O  O9  1  0.34031000  0.00000000  0.71524500  1
  O  O10  1  0.58489100  0.22775600  0.72353500  1
  O  O11  1  0.82656000  0.00000000  0.71541500  1
  O  O12  1  0.41510900  0.77224400  0.27646500  1
  O  O13  1  0.65969000  0.00000000  0.28475500  1
  O  O14  1  0.17344000  0.00000000  0.28458500  1
  O  O15  1  0.58489100  0.77224400  0.72353500  1
  O  O16  1  0.91510900  0.72775600  0.27646500  1
  O  O17  1  0.84031000  0.50000000  0.71524500  1
  O  O18  1  0.08489100  0.72775600  0.72353500  1
  O  O19  1  0.32656000  0.50000000  0.71541500  1
  O  O20  1  0.91510900  0.27224400  0.27646500  1
  O  O21  1  0.15969000  0.50000000  0.28475500  1
  O  O22  1  0.67344000  0.50000000  0.28458500  1
  O  O23  1  0.08489100  0.27224400  0.72353500  1
