# generated using pymatgen
data_Th3Bi4
_symmetry_space_group_name_H-M   'P 1'
_cell_length_a   9.67371800
_cell_length_b   9.67371800
_cell_length_c   9.67371800
_cell_angle_alpha   90.00000000
_cell_angle_beta   90.00000000
_cell_angle_gamma   90.00000000
_symmetry_Int_Tables_number   1
_chemical_formula_structural   Th3Bi4
_chemical_formula_sum   'Th12 Bi16'
_cell_volume   905.27446234
_cell_formula_units_Z   4
loop_
 _symmetry_equiv_pos_site_id
 _symmetry_equiv_pos_as_xyz
  1  'x, y, z'
loop_
 _atom_site_type_symbol
 _atom_site_label
 _atom_site_symmetry_multiplicity
 _atom_site_fract_x
 _atom_site_fract_y
 _atom_site_fract_z
 _atom_site_occupancy
  Th  Th0  1  0.00000000  0.25000000  0.37500000  1
  Th  Th1  1  0.37500000  0.00000000  0.25000000  1
  Th  Th2  1  0.12500000  0.00000000  0.75000000  1
  Th  Th3  1  0.75000000  0.12500000  0.00000000  1
  Th  Th4  1  0.25000000  0.37500000  0.00000000  1
  Th  Th5  1  0.00000000  0.75000000  0.12500000  1
  Th  Th6  1  0.50000000  0.75000000  0.87500000  1
  Th  Th7  1  0.87500000  0.50000000  0.75000000  1
  Th  Th8  1  0.62500000  0.50000000  0.25000000  1
  Th  Th9  1  0.25000000  0.62500000  0.50000000  1
  Th  Th10  1  0.75000000  0.87500000  0.50000000  1
  Th  Th11  1  0.50000000  0.25000000  0.62500000  1
  Bi  Bi12  1  0.07966700  0.07966700  0.07966700  1
  Bi  Bi13  1  0.17033300  0.67033300  0.82966700  1
  Bi  Bi14  1  0.82966700  0.17033300  0.67033300  1
  Bi  Bi15  1  0.67033300  0.82966700  0.17033300  1
  Bi  Bi16  1  0.07966700  0.92033300  0.42033300  1
  Bi  Bi17  1  0.42033300  0.07966700  0.92033300  1
  Bi  Bi18  1  0.92033300  0.42033300  0.07966700  1
  Bi  Bi19  1  0.32966700  0.32966700  0.32966700  1
  Bi  Bi20  1  0.57966700  0.57966700  0.57966700  1
  Bi  Bi21  1  0.67033300  0.17033300  0.32966700  1
  Bi  Bi22  1  0.32966700  0.67033300  0.17033300  1
  Bi  Bi23  1  0.17033300  0.32966700  0.67033300  1
  Bi  Bi24  1  0.57966700  0.42033300  0.92033300  1
  Bi  Bi25  1  0.92033300  0.57966700  0.42033300  1
  Bi  Bi26  1  0.42033300  0.92033300  0.57966700  1
  Bi  Bi27  1  0.82966700  0.82966700  0.82966700  1
