# generated using pymatgen
data_BaPbO3
_symmetry_space_group_name_H-M   'P 1'
_cell_length_a   6.10070200
_cell_length_b   6.10070200
_cell_length_c   8.86231400
_cell_angle_alpha   90.00000000
_cell_angle_beta   90.00000000
_cell_angle_gamma   90.00000000
_symmetry_Int_Tables_number   1
_chemical_formula_structural   BaPbO3
_chemical_formula_sum   'Ba4 Pb4 O12'
_cell_volume   329.84260871
_cell_formula_units_Z   4
loop_
 _symmetry_equiv_pos_site_id
 _symmetry_equiv_pos_as_xyz
  1  'x, y, z'
loop_
 _atom_site_type_symbol
 _atom_site_label
 _atom_site_symmetry_multiplicity
 _atom_site_fract_x
 _atom_site_fract_y
 _atom_site_fract_z
 _atom_site_occupancy
  Ba  Ba0  1  0.50000000  0.00000000  0.25000000  1
  Ba  Ba1  1  0.00000000  0.50000000  0.25000000  1
  Ba  Ba2  1  0.00000000  0.50000000  0.75000000  1
  Ba  Ba3  1  0.50000000  0.00000000  0.75000000  1
  Pb  Pb4  1  0.00000000  0.00000000  0.00000000  1
  Pb  Pb5  1  0.50000000  0.50000000  0.00000000  1
  Pb  Pb6  1  0.50000000  0.50000000  0.50000000  1
  Pb  Pb7  1  0.00000000  0.00000000  0.50000000  1
  O  O8  1  0.19672050  0.69672050  0.00000000  1
  O  O9  1  0.30327950  0.19672050  0.00000000  1
  O  O10  1  0.69672050  0.80327950  0.00000000  1
  O  O11  1  0.30327950  0.80327950  0.50000000  1
  O  O12  1  0.50000000  0.50000000  0.25000000  1
  O  O13  1  0.00000000  0.00000000  0.25000000  1
  O  O14  1  0.69672050  0.19672050  0.50000000  1
  O  O15  1  0.80327950  0.69672050  0.50000000  1
  O  O16  1  0.19672050  0.30327950  0.50000000  1
  O  O17  1  0.80327950  0.30327950  0.00000000  1
  O  O18  1  0.00000000  0.00000000  0.75000000  1
  O  O19  1  0.50000000  0.50000000  0.75000000  1
