# generated using pymatgen
data_PbWO4
_symmetry_space_group_name_H-M   'P 1'
_cell_length_a   5.56798000
_cell_length_b   5.56798000
_cell_length_c   12.25059800
_cell_angle_alpha   90.00000000
_cell_angle_beta   90.00000000
_cell_angle_gamma   90.00000000
_symmetry_Int_Tables_number   1
_chemical_formula_structural   PbWO4
_chemical_formula_sum   'Pb4 W4 O16'
_cell_volume   379.79795512
_cell_formula_units_Z   4
loop_
 _symmetry_equiv_pos_site_id
 _symmetry_equiv_pos_as_xyz
  1  'x, y, z'
loop_
 _atom_site_type_symbol
 _atom_site_label
 _atom_site_symmetry_multiplicity
 _atom_site_fract_x
 _atom_site_fract_y
 _atom_site_fract_z
 _atom_site_occupancy
  Pb  Pb0  1  0.50000000  0.50000000  0.00000000  1
  Pb  Pb1  1  0.50000000  0.00000000  0.25000000  1
  Pb  Pb2  1  0.00000000  0.00000000  0.50000000  1
  Pb  Pb3  1  0.00000000  0.50000000  0.75000000  1
  W  W4  1  0.00000000  0.00000000  0.00000000  1
  W  W5  1  0.00000000  0.50000000  0.25000000  1
  W  W6  1  0.50000000  0.50000000  0.50000000  1
  W  W7  1  0.50000000  0.00000000  0.75000000  1
  O  O8  1  0.64010000  0.26486000  0.41776100  1
  O  O9  1  0.76486000  0.35990000  0.16776100  1
  O  O10  1  0.23514000  0.64010000  0.16776100  1
  O  O11  1  0.35990000  0.73514000  0.41776100  1
  O  O12  1  0.14010000  0.26486000  0.33223900  1
  O  O13  1  0.76486000  0.85990000  0.08223900  1
  O  O14  1  0.23514000  0.14010000  0.08223900  1
  O  O15  1  0.85990000  0.73514000  0.33223900  1
  O  O16  1  0.14010000  0.76486000  0.91776100  1
  O  O17  1  0.26486000  0.85990000  0.66776100  1
  O  O18  1  0.73514000  0.14010000  0.66776100  1
  O  O19  1  0.85990000  0.23514000  0.91776100  1
  O  O20  1  0.64010000  0.76486000  0.83223900  1
  O  O21  1  0.26486000  0.35990000  0.58223900  1
  O  O22  1  0.73514000  0.64010000  0.58223900  1
  O  O23  1  0.35990000  0.23514000  0.83223900  1
