# generated using pymatgen
data_K3InP2
_symmetry_space_group_name_H-M   'P 1'
_cell_length_a   6.88401800
_cell_length_b   7.70856800
_cell_length_c   14.60811600
_cell_angle_alpha   90.00000000
_cell_angle_beta   90.00000000
_cell_angle_gamma   90.00000000
_symmetry_Int_Tables_number   1
_chemical_formula_structural   K3InP2
_chemical_formula_sum   'K12 In4 P8'
_cell_volume   775.19312766
_cell_formula_units_Z   4
loop_
 _symmetry_equiv_pos_site_id
 _symmetry_equiv_pos_as_xyz
  1  'x, y, z'
loop_
 _atom_site_type_symbol
 _atom_site_label
 _atom_site_symmetry_multiplicity
 _atom_site_fract_x
 _atom_site_fract_y
 _atom_site_fract_z
 _atom_site_occupancy
  K  K0  1  0.00000000  0.20097500  0.18441500  1
  K  K1  1  0.25000000  0.50000000  0.00000000  1
  K  K2  1  0.50000000  0.79902500  0.18441500  1
  K  K3  1  0.00000000  0.70097500  0.31558500  1
  K  K4  1  0.75000000  0.50000000  0.00000000  1
  K  K5  1  0.50000000  0.29902500  0.31558500  1
  K  K6  1  0.50000000  0.70097500  0.68441500  1
  K  K7  1  0.75000000  0.00000000  0.50000000  1
  K  K8  1  0.00000000  0.29902500  0.68441500  1
  K  K9  1  0.50000000  0.20097500  0.81558500  1
  K  K10  1  0.25000000  0.00000000  0.50000000  1
  K  K11  1  0.00000000  0.79902500  0.81558500  1
  In  In12  1  0.75000000  0.00000000  0.00000000  1
  In  In13  1  0.25000000  0.00000000  0.00000000  1
  In  In14  1  0.25000000  0.50000000  0.50000000  1
  In  In15  1  0.75000000  0.50000000  0.50000000  1
  P  P16  1  0.50000000  0.18981650  0.09711450  1
  P  P17  1  0.00000000  0.31018350  0.40288550  1
  P  P18  1  0.50000000  0.68981650  0.40288550  1
  P  P19  1  0.00000000  0.81018350  0.09711450  1
  P  P20  1  0.00000000  0.68981650  0.59711450  1
  P  P21  1  0.50000000  0.81018350  0.90288550  1
  P  P22  1  0.00000000  0.18981650  0.90288550  1
  P  P23  1  0.50000000  0.31018350  0.59711450  1
