# generated using pymatgen
data_Ti(Bi3O5)4
_symmetry_space_group_name_H-M   'P 1'
_cell_length_a   10.31952600
_cell_length_b   10.31952600
_cell_length_c   10.31952600
_cell_angle_alpha   90.00000000
_cell_angle_beta   90.00000000
_cell_angle_gamma   90.00000000
_symmetry_Int_Tables_number   1
_chemical_formula_structural   Ti(Bi3O5)4
_chemical_formula_sum   'Ti2 Bi24 O40'
_cell_volume   1098.95332854
_cell_formula_units_Z   2
loop_
 _symmetry_equiv_pos_site_id
 _symmetry_equiv_pos_as_xyz
  1  'x, y, z'
loop_
 _atom_site_type_symbol
 _atom_site_label
 _atom_site_symmetry_multiplicity
 _atom_site_fract_x
 _atom_site_fract_y
 _atom_site_fract_z
 _atom_site_occupancy
  Ti  Ti0  1  0.00000000  0.00000000  0.00000000  1
  Ti  Ti1  1  0.50000000  0.50000000  0.50000000  1
  Bi  Bi2  1  0.68141900  0.17770900  0.01479600  1
  Bi  Bi3  1  0.81858100  0.32229100  0.51479600  1
  Bi  Bi4  1  0.18141900  0.32229100  0.48520400  1
  Bi  Bi5  1  0.51479600  0.81858100  0.32229100  1
  Bi  Bi6  1  0.17770900  0.01479600  0.68141900  1
  Bi  Bi7  1  0.17770900  0.98520400  0.31858100  1
  Bi  Bi8  1  0.98520400  0.31858100  0.17770900  1
  Bi  Bi9  1  0.32229100  0.51479600  0.81858100  1
  Bi  Bi10  1  0.48520400  0.18141900  0.32229100  1
  Bi  Bi11  1  0.32229100  0.48520400  0.18141900  1
  Bi  Bi12  1  0.01479600  0.68141900  0.17770900  1
  Bi  Bi13  1  0.31858100  0.17770900  0.98520400  1
  Bi  Bi14  1  0.18141900  0.67770900  0.51479600  1
  Bi  Bi15  1  0.31858100  0.82229100  0.01479600  1
  Bi  Bi16  1  0.68141900  0.82229100  0.98520400  1
  Bi  Bi17  1  0.01479600  0.31858100  0.82229100  1
  Bi  Bi18  1  0.67770900  0.51479600  0.18141900  1
  Bi  Bi19  1  0.67770900  0.48520400  0.81858100  1
  Bi  Bi20  1  0.48520400  0.81858100  0.67770900  1
  Bi  Bi21  1  0.82229100  0.01479600  0.31858100  1
  Bi  Bi22  1  0.98520400  0.68141900  0.82229100  1
  Bi  Bi23  1  0.82229100  0.98520400  0.68141900  1
  Bi  Bi24  1  0.51479600  0.18141900  0.67770900  1
  Bi  Bi25  1  0.81858100  0.67770900  0.48520400  1
  O  O26  1  0.60331750  0.39668250  0.39668250  1
  O  O27  1  0.10331750  0.10331750  0.10331750  1
  O  O28  1  0.39668250  0.60331750  0.39668250  1
  O  O29  1  0.39668250  0.39668250  0.60331750  1
  O  O30  1  0.80674850  0.19325150  0.19325150  1
  O  O31  1  0.30674850  0.30674850  0.30674850  1
  O  O32  1  0.19325150  0.80674850  0.19325150  1
  O  O33  1  0.19325150  0.19325150  0.80674850  1
  O  O34  1  0.24997100  0.63103600  0.98893100  1
  O  O35  1  0.25002900  0.86896400  0.48893100  1
  O  O36  1  0.24997100  0.36896400  0.01106900  1
  O  O37  1  0.48893100  0.25002900  0.86896400  1
  O  O38  1  0.63103600  0.98893100  0.24997100  1
  O  O39  1  0.25002900  0.13103600  0.51106900  1
  O  O40  1  0.98893100  0.24997100  0.63103600  1
  O  O41  1  0.36896400  0.01106900  0.24997100  1
  O  O42  1  0.01106900  0.24997100  0.36896400  1
  O  O43  1  0.86896400  0.48893100  0.25002900  1
  O  O44  1  0.51106900  0.25002900  0.13103600  1
  O  O45  1  0.13103600  0.51106900  0.25002900  1
  O  O46  1  0.10331750  0.89668250  0.89668250  1
  O  O47  1  0.60331750  0.60331750  0.60331750  1
  O  O48  1  0.89668250  0.10331750  0.89668250  1
  O  O49  1  0.89668250  0.89668250  0.10331750  1
  O  O50  1  0.30674850  0.69325150  0.69325150  1
  O  O51  1  0.80674850  0.80674850  0.80674850  1
  O  O52  1  0.69325150  0.30674850  0.69325150  1
  O  O53  1  0.69325150  0.69325150  0.30674850  1
  O  O54  1  0.74997100  0.13103600  0.48893100  1
  O  O55  1  0.75002900  0.36896400  0.98893100  1
  O  O56  1  0.74997100  0.86896400  0.51106900  1
  O  O57  1  0.98893100  0.75002900  0.36896400  1
  O  O58  1  0.13103600  0.48893100  0.74997100  1
  O  O59  1  0.75002900  0.63103600  0.01106900  1
  O  O60  1  0.48893100  0.74997100  0.13103600  1
  O  O61  1  0.86896400  0.51106900  0.74997100  1
  O  O62  1  0.51106900  0.74997100  0.86896400  1
  O  O63  1  0.36896400  0.98893100  0.75002900  1
  O  O64  1  0.01106900  0.75002900  0.63103600  1
  O  O65  1  0.63103600  0.01106900  0.75002900  1
