# generated using pymatgen
data_KTiH2S2O9
_symmetry_space_group_name_H-M   'P 1'
_cell_length_a   7.80046600
_cell_length_b   5.32422000
_cell_length_c   9.29958856
_cell_angle_alpha   90.00000000
_cell_angle_beta   101.16846902
_cell_angle_gamma   90.00000000
_symmetry_Int_Tables_number   1
_chemical_formula_structural   KTiH2S2O9
_chemical_formula_sum   'K2 Ti2 H4 S4 O18'
_cell_volume   378.91053844
_cell_formula_units_Z   2
loop_
 _symmetry_equiv_pos_site_id
 _symmetry_equiv_pos_as_xyz
  1  'x, y, z'
loop_
 _atom_site_type_symbol
 _atom_site_label
 _atom_site_symmetry_multiplicity
 _atom_site_fract_x
 _atom_site_fract_y
 _atom_site_fract_z
 _atom_site_occupancy
  K  K0  1  0.56902700  0.75000000  0.71546100  1
  K  K1  1  0.43097300  0.25000000  0.28453900  1
  Ti  Ti2  1  0.91577800  0.25000000  0.26737900  1
  Ti  Ti3  1  0.08422200  0.75000000  0.73262100  1
  H  H4  1  0.81813900  0.25000000  0.96979100  1
  H  H5  1  0.18186100  0.75000000  0.03020900  1
  H  H6  1  0.03142200  0.25000000  0.00440600  1
  H  H7  1  0.96857800  0.75000000  0.99559400  1
  S  S8  1  0.33022800  0.25000000  0.85680100  1
  S  S9  1  0.66977200  0.75000000  0.14319900  1
  S  S10  1  0.16510100  0.75000000  0.38823900  1
  S  S11  1  0.83489900  0.25000000  0.61176100  1
  O  O12  1  0.26846700  0.47794200  0.76104400  1
  O  O13  1  0.73153300  0.97794200  0.23895600  1
  O  O14  1  0.73153300  0.52205800  0.23895600  1
  O  O15  1  0.26846700  0.02205800  0.76104400  1
  O  O16  1  0.52025400  0.25000000  0.88884300  1
  O  O17  1  0.47974600  0.75000000  0.11115700  1
  O  O18  1  0.24900700  0.25000000  0.98695100  1
  O  O19  1  0.75099300  0.75000000  0.01304900  1
  O  O20  1  0.88939000  0.47774600  0.70655000  1
  O  O21  1  0.11061000  0.97774600  0.29345000  1
  O  O22  1  0.11061000  0.52225400  0.29345000  1
  O  O23  1  0.88939000  0.02225400  0.70655000  1
  O  O24  1  0.93291600  0.25000000  0.48962800  1
  O  O25  1  0.06708400  0.75000000  0.51037200  1
  O  O26  1  0.64581400  0.25000000  0.56347700  1
  O  O27  1  0.35418600  0.75000000  0.43652300  1
  O  O28  1  0.92302600  0.25000000  0.04666200  1
  O  O29  1  0.07697400  0.75000000  0.95333800  1
