# generated using pymatgen
data_As4(Pb3S5)3
_symmetry_space_group_name_H-M   'P 1'
_cell_length_a   18.10373206
_cell_length_b   18.10373206
_cell_length_c   7.88117205
_cell_angle_alpha   90.00000000
_cell_angle_beta   90.00000000
_cell_angle_gamma   120.00000000
_symmetry_Int_Tables_number   1
_chemical_formula_structural   As4(Pb3S5)3
_chemical_formula_sum   'As12 Pb27 S45'
_cell_volume   2236.95715859
_cell_formula_units_Z   3
loop_
 _symmetry_equiv_pos_site_id
 _symmetry_equiv_pos_as_xyz
  1  'x, y, z'
loop_
 _atom_site_type_symbol
 _atom_site_label
 _atom_site_symmetry_multiplicity
 _atom_site_fract_x
 _atom_site_fract_y
 _atom_site_fract_z
 _atom_site_occupancy
  As  As0  1  0.00000000  0.00000000  0.05593700  1
  As  As1  1  0.28998533  0.14499267  0.55248167  1
  As  As2  1  0.18834067  0.81165933  0.21914833  1
  As  As3  1  0.18834067  0.37668133  0.21914833  1
  As  As4  1  0.66666667  0.33333333  0.38927033  1
  As  As5  1  0.95665200  0.47832600  0.88581500  1
  As  As6  1  0.85500733  0.14499267  0.55248167  1
  As  As7  1  0.85500733  0.71001467  0.55248167  1
  As  As8  1  0.33333333  0.66666667  0.72260367  1
  As  As9  1  0.62331867  0.81165933  0.21914833  1
  As  As10  1  0.52167400  0.47832600  0.88581500  1
  As  As11  1  0.52167400  0.04334800  0.88581500  1
  Pb  Pb12  1  0.49075400  0.24537700  0.84361100  1
  Pb  Pb13  1  0.08795633  0.91204367  0.51027767  1
  Pb  Pb14  1  0.08795633  0.17591267  0.51027767  1
  Pb  Pb15  1  0.44231200  0.08878100  0.33210800  1
  Pb  Pb16  1  0.24455233  0.02019767  0.99877467  1
  Pb  Pb17  1  0.31313567  0.89102133  0.66544133  1
  Pb  Pb18  1  0.31313567  0.42211433  0.66544133  1
  Pb  Pb19  1  0.24455233  0.22435467  0.99877467  1
  Pb  Pb20  1  0.44231200  0.35353100  0.33210800  1
  Pb  Pb21  1  0.15742067  0.57871033  0.17694433  1
  Pb  Pb22  1  0.75462300  0.24537700  0.84361100  1
  Pb  Pb23  1  0.75462300  0.50924600  0.84361100  1
  Pb  Pb24  1  0.10897867  0.42211433  0.66544133  1
  Pb  Pb25  1  0.91121900  0.35353100  0.33210800  1
  Pb  Pb26  1  0.97980233  0.22435467  0.99877467  1
  Pb  Pb27  1  0.97980233  0.75544767  0.99877467  1
  Pb  Pb28  1  0.91121900  0.55768800  0.33210800  1
  Pb  Pb29  1  0.10897867  0.68686433  0.66544133  1
  Pb  Pb30  1  0.82408733  0.91204367  0.51027767  1
  Pb  Pb31  1  0.42128967  0.57871033  0.17694433  1
  Pb  Pb32  1  0.42128967  0.84257933  0.17694433  1
  Pb  Pb33  1  0.77564533  0.75544767  0.99877467  1
  Pb  Pb34  1  0.57788567  0.68686433  0.66544133  1
  Pb  Pb35  1  0.64646900  0.55768800  0.33210800  1
  Pb  Pb36  1  0.64646900  0.08878100  0.33210800  1
  Pb  Pb37  1  0.57788567  0.89102133  0.66544133  1
  Pb  Pb38  1  0.77564533  0.02019767  0.99877467  1
  S  S39  1  0.36896000  0.18448000  0.10621300  1
  S  S40  1  0.14885333  0.85114667  0.77287967  1
  S  S41  1  0.14885333  0.29770667  0.77287967  1
  S  S42  1  0.12893800  0.06446900  0.19349000  1
  S  S43  1  0.26886433  0.73113567  0.86015667  1
  S  S44  1  0.26886433  0.53772867  0.86015667  1
  S  S45  1  0.17094200  0.08547100  0.71686700  1
  S  S46  1  0.24786233  0.75213767  0.38353367  1
  S  S47  1  0.24786233  0.49572467  0.38353367  1
  S  S48  1  0.36613400  0.08735000  0.67358700  1
  S  S49  1  0.24598333  0.94545067  0.34025367  1
  S  S50  1  0.38788267  0.96719933  0.00692033  1
  S  S51  1  0.38788267  0.42068333  0.00692033  1
  S  S52  1  0.36613400  0.27878400  0.67358700  1
  S  S53  1  0.24598333  0.30053267  0.34025367  1
  S  S54  1  0.03562667  0.51781333  0.43954633  1
  S  S55  1  0.81552000  0.18448000  0.10621300  1
  S  S56  1  0.81552000  0.63104000  0.10621300  1
  S  S57  1  0.79560467  0.39780233  0.52682333  1
  S  S58  1  0.93553100  0.06446900  0.19349000  1
  S  S59  1  0.93553100  0.87106200  0.19349000  1
  S  S60  1  0.83760867  0.41880433  0.05020033  1
  S  S61  1  0.91452900  0.08547100  0.71686700  1
  S  S62  1  0.91452900  0.82905800  0.71686700  1
  S  S63  1  0.03280067  0.42068333  0.00692033  1
  S  S64  1  0.91265000  0.27878400  0.67358700  1
  S  S65  1  0.05454933  0.30053267  0.34025367  1
  S  S66  1  0.05454933  0.75401667  0.34025367  1
  S  S67  1  0.03280067  0.61211733  0.00692033  1
  S  S68  1  0.91265000  0.63386600  0.67358700  1
  S  S69  1  0.70229333  0.85114667  0.77287967  1
  S  S70  1  0.48218667  0.51781333  0.43954633  1
  S  S71  1  0.48218667  0.96437333  0.43954633  1
  S  S72  1  0.46227133  0.73113567  0.86015667  1
  S  S73  1  0.60219767  0.39780233  0.52682333  1
  S  S74  1  0.60219767  0.20439533  0.52682333  1
  S  S75  1  0.50427533  0.75213767  0.38353367  1
  S  S76  1  0.58119567  0.41880433  0.05020033  1
  S  S77  1  0.58119567  0.16239133  0.05020033  1
  S  S78  1  0.69946733  0.75401667  0.34025367  1
  S  S79  1  0.57931667  0.61211733  0.00692033  1
  S  S80  1  0.72121600  0.63386600  0.67358700  1
  S  S81  1  0.72121600  0.08735000  0.67358700  1
  S  S82  1  0.69946733  0.94545067  0.34025367  1
  S  S83  1  0.57931667  0.96719933  0.00692033  1
