# generated using pymatgen
data_Na2Mn3Cl8
_symmetry_space_group_name_H-M   'P 1'
_cell_length_a   7.50105766
_cell_length_b   7.50105766
_cell_length_c   19.75499889
_cell_angle_alpha   90.00000000
_cell_angle_beta   90.00000000
_cell_angle_gamma   120.00000000
_symmetry_Int_Tables_number   1
_chemical_formula_structural   Na2Mn3Cl8
_chemical_formula_sum   'Na6 Mn9 Cl24'
_cell_volume   962.61505496
_cell_formula_units_Z   3
loop_
 _symmetry_equiv_pos_site_id
 _symmetry_equiv_pos_as_xyz
  1  'x, y, z'
loop_
 _atom_site_type_symbol
 _atom_site_label
 _atom_site_symmetry_multiplicity
 _atom_site_fract_x
 _atom_site_fract_y
 _atom_site_fract_z
 _atom_site_occupancy
  Na  Na0  1  0.00000000  0.00000000  0.15868500  1
  Na  Na1  1  0.66666667  0.33333333  0.17464833  1
  Na  Na2  1  0.66666667  0.33333333  0.49201833  1
  Na  Na3  1  0.33333333  0.66666667  0.50798167  1
  Na  Na4  1  0.33333333  0.66666667  0.82535167  1
  Na  Na5  1  0.00000000  0.00000000  0.84131500  1
  Mn  Mn6  1  0.50000000  0.00000000  0.00000000  1
  Mn  Mn7  1  0.00000000  0.50000000  0.00000000  1
  Mn  Mn8  1  0.50000000  0.50000000  0.00000000  1
  Mn  Mn9  1  0.16666667  0.33333333  0.33333333  1
  Mn  Mn10  1  0.66666667  0.83333333  0.33333333  1
  Mn  Mn11  1  0.16666667  0.83333333  0.33333333  1
  Mn  Mn12  1  0.83333333  0.66666667  0.66666667  1
  Mn  Mn13  1  0.33333333  0.16666667  0.66666667  1
  Mn  Mn14  1  0.83333333  0.16666667  0.66666667  1
  Cl  Cl15  1  0.31555200  0.15777600  0.26110400  1
  Cl  Cl16  1  0.84222400  0.68444800  0.26110400  1
  Cl  Cl17  1  0.33333333  0.66666667  0.26289667  1
  Cl  Cl18  1  0.33333333  0.66666667  0.07043667  1
  Cl  Cl19  1  0.82444267  0.64888533  0.07222933  1
  Cl  Cl20  1  0.35111467  0.17555733  0.07222933  1
  Cl  Cl21  1  0.82444267  0.17555733  0.07222933  1
  Cl  Cl22  1  0.84222400  0.15777600  0.26110400  1
  Cl  Cl23  1  0.98221867  0.49110933  0.59443733  1
  Cl  Cl24  1  0.50889067  0.01778133  0.59443733  1
  Cl  Cl25  1  0.00000000  0.00000000  0.59623000  1
  Cl  Cl26  1  0.00000000  0.00000000  0.40377000  1
  Cl  Cl27  1  0.49110933  0.98221867  0.40556267  1
  Cl  Cl28  1  0.01778133  0.50889067  0.40556267  1
  Cl  Cl29  1  0.49110933  0.50889067  0.40556267  1
  Cl  Cl30  1  0.50889067  0.49110933  0.59443733  1
  Cl  Cl31  1  0.64888533  0.82444267  0.92777067  1
  Cl  Cl32  1  0.17555733  0.35111467  0.92777067  1
  Cl  Cl33  1  0.66666667  0.33333333  0.92956333  1
  Cl  Cl34  1  0.66666667  0.33333333  0.73710333  1
  Cl  Cl35  1  0.15777600  0.31555200  0.73889600  1
  Cl  Cl36  1  0.68444800  0.84222400  0.73889600  1
  Cl  Cl37  1  0.15777600  0.84222400  0.73889600  1
  Cl  Cl38  1  0.17555733  0.82444267  0.92777067  1
