# generated using pymatgen
data_NaH4BrO2
_symmetry_space_group_name_H-M   'P 1'
_cell_length_a   6.64369700
_cell_length_b   10.47120300
_cell_length_c   6.80048985
_cell_angle_alpha   90.00000000
_cell_angle_beta   113.44597180
_cell_angle_gamma   90.00000000
_symmetry_Int_Tables_number   1
_chemical_formula_structural   NaH4BrO2
_chemical_formula_sum   'Na4 H16 Br4 O8'
_cell_volume   434.03246704
_cell_formula_units_Z   4
loop_
 _symmetry_equiv_pos_site_id
 _symmetry_equiv_pos_as_xyz
  1  'x, y, z'
loop_
 _atom_site_type_symbol
 _atom_site_label
 _atom_site_symmetry_multiplicity
 _atom_site_fract_x
 _atom_site_fract_y
 _atom_site_fract_z
 _atom_site_occupancy
  Na  Na0  1  0.98685800  0.33227700  0.04327100  1
  Na  Na1  1  0.01314200  0.66772300  0.95672900  1
  Na  Na2  1  0.01314200  0.83227700  0.45672900  1
  Na  Na3  1  0.98685800  0.16772300  0.54327100  1
  H  H4  1  0.76519000  0.03748100  0.13483600  1
  H  H5  1  0.23481000  0.53748100  0.36516400  1
  H  H6  1  0.23481000  0.96251900  0.86516400  1
  H  H7  1  0.76519000  0.46251900  0.63483600  1
  H  H8  1  0.63517000  0.98424800  0.26501400  1
  H  H9  1  0.36483000  0.48424800  0.23498600  1
  H  H10  1  0.36483000  0.01575200  0.73498600  1
  H  H11  1  0.63517000  0.51575200  0.76501400  1
  H  H12  1  0.35849400  0.21038700  0.41543700  1
  H  H13  1  0.64150600  0.71038700  0.08456300  1
  H  H14  1  0.64150600  0.78961300  0.58456300  1
  H  H15  1  0.35849400  0.28961300  0.91543700  1
  H  H16  1  0.22543100  0.40211200  0.77715000  1
  H  H17  1  0.77456900  0.90211200  0.72285000  1
  H  H18  1  0.77456900  0.59788800  0.22285000  1
  H  H19  1  0.22543100  0.09788800  0.27715000  1
  Br  Br20  1  0.70074100  0.11461400  0.78981600  1
  Br  Br21  1  0.29925900  0.61461400  0.71018400  1
  Br  Br22  1  0.29925900  0.88538600  0.21018400  1
  Br  Br23  1  0.70074100  0.38538600  0.28981600  1
  O  O24  1  0.21662700  0.98927000  0.71970200  1
  O  O25  1  0.79153400  0.68581600  0.17790900  1
  O  O26  1  0.79153400  0.81418400  0.67790900  1
  O  O27  1  0.20846600  0.31418400  0.82209100  1
  O  O28  1  0.78337300  0.48927000  0.78029800  1
  O  O29  1  0.78337300  0.01073000  0.28029800  1
  O  O30  1  0.21662700  0.51073000  0.21970200  1
  O  O31  1  0.20846600  0.18581600  0.32209100  1
