# generated using pymatgen
data_PH3O4
_symmetry_space_group_name_H-M   'P 1'
_cell_length_a   5.95778300
_cell_length_b   4.82173400
_cell_length_c   12.03267316
_cell_angle_alpha   90.00000000
_cell_angle_beta   96.44654609
_cell_angle_gamma   90.00000000
_symmetry_Int_Tables_number   1
_chemical_formula_structural   PH3O4
_chemical_formula_sum   'P4 H12 O16'
_cell_volume   343.47513466
_cell_formula_units_Z   4
loop_
 _symmetry_equiv_pos_site_id
 _symmetry_equiv_pos_as_xyz
  1  'x, y, z'
loop_
 _atom_site_type_symbol
 _atom_site_label
 _atom_site_symmetry_multiplicity
 _atom_site_fract_x
 _atom_site_fract_y
 _atom_site_fract_z
 _atom_site_occupancy
  P  P0  1  0.21052800  0.80241100  0.64705300  1
  P  P1  1  0.78947200  0.30241100  0.85294700  1
  P  P2  1  0.78947200  0.19758900  0.35294700  1
  P  P3  1  0.21052800  0.69758900  0.14705300  1
  H  H4  1  0.48766200  0.11695600  0.67987300  1
  H  H5  1  0.51233800  0.61695600  0.82012700  1
  H  H6  1  0.51233800  0.88304400  0.32012700  1
  H  H7  1  0.48766200  0.38304400  0.17987300  1
  H  H8  1  0.87400600  0.98515200  0.67453900  1
  H  H9  1  0.12599400  0.48515200  0.82546100  1
  H  H10  1  0.12599400  0.01484800  0.32546100  1
  H  H11  1  0.87400600  0.51484800  0.17453900  1
  H  H12  1  0.27426900  0.41775100  0.56126600  1
  H  H13  1  0.72573100  0.91775100  0.93873400  1
  H  H14  1  0.72573100  0.58224900  0.43873400  1
  H  H15  1  0.27426900  0.08224900  0.06126600  1
  O  O16  1  0.28054500  0.66860400  0.76009000  1
  O  O17  1  0.71945500  0.16860400  0.73991000  1
  O  O18  1  0.71945500  0.33139600  0.23991000  1
  O  O19  1  0.28054500  0.83139600  0.26009000  1
  O  O20  1  0.33027300  0.08960300  0.63481000  1
  O  O21  1  0.66972700  0.58960300  0.86519000  1
  O  O22  1  0.66972700  0.91039700  0.36519000  1
  O  O23  1  0.33027300  0.41039700  0.13481000  1
  O  O24  1  0.95182400  0.85370400  0.62399100  1
  O  O25  1  0.04817600  0.35370400  0.87600900  1
  O  O26  1  0.04817600  0.14629600  0.37600900  1
  O  O27  1  0.95182400  0.64629600  0.12399100  1
  O  O28  1  0.27222300  0.62038100  0.54656100  1
  O  O29  1  0.72777700  0.12038100  0.95343900  1
  O  O30  1  0.72777700  0.37961900  0.45343900  1
  O  O31  1  0.27222300  0.87961900  0.04656100  1
