# generated using pymatgen
data_HgI
_symmetry_space_group_name_H-M   'P 1'
_cell_length_a   5.19053200
_cell_length_b   5.19053200
_cell_length_c   11.80833400
_cell_angle_alpha   90.00000000
_cell_angle_beta   90.00000000
_cell_angle_gamma   90.00000000
_symmetry_Int_Tables_number   1
_chemical_formula_structural   HgI
_chemical_formula_sum   'Hg4 I4'
_cell_volume   318.13567631
_cell_formula_units_Z   4
loop_
 _symmetry_equiv_pos_site_id
 _symmetry_equiv_pos_as_xyz
  1  'x, y, z'
loop_
 _atom_site_type_symbol
 _atom_site_label
 _atom_site_symmetry_multiplicity
 _atom_site_fract_x
 _atom_site_fract_y
 _atom_site_fract_z
 _atom_site_occupancy
  Hg  Hg0  1  0.50000000  0.50000000  0.38704600  1
  Hg  Hg1  1  0.00000000  0.00000000  0.11295400  1
  Hg  Hg2  1  0.00000000  0.00000000  0.88704600  1
  Hg  Hg3  1  0.50000000  0.50000000  0.61295400  1
  I  I4  1  0.50000000  0.50000000  0.15251900  1
  I  I5  1  0.00000000  0.00000000  0.34748100  1
  I  I6  1  0.00000000  0.00000000  0.65251900  1
  I  I7  1  0.50000000  0.50000000  0.84748100  1
