# generated using pymatgen
data_Ge(Bi3O5)4
_symmetry_space_group_name_H-M   'P 1'
_cell_length_a   10.29825600
_cell_length_b   10.29825600
_cell_length_c   10.29825600
_cell_angle_alpha   90.00000000
_cell_angle_beta   90.00000000
_cell_angle_gamma   90.00000000
_symmetry_Int_Tables_number   1
_chemical_formula_structural   Ge(Bi3O5)4
_chemical_formula_sum   'Ge2 Bi24 O40'
_cell_volume   1092.17203110
_cell_formula_units_Z   2
loop_
 _symmetry_equiv_pos_site_id
 _symmetry_equiv_pos_as_xyz
  1  'x, y, z'
loop_
 _atom_site_type_symbol
 _atom_site_label
 _atom_site_symmetry_multiplicity
 _atom_site_fract_x
 _atom_site_fract_y
 _atom_site_fract_z
 _atom_site_occupancy
  Ge  Ge0  1  0.00000000  0.00000000  0.00000000  1
  Ge  Ge1  1  0.50000000  0.50000000  0.50000000  1
  Bi  Bi2  1  0.68154450  0.17700650  0.01544450  1
  Bi  Bi3  1  0.81845550  0.32299350  0.51544450  1
  Bi  Bi4  1  0.18154450  0.32299350  0.48455550  1
  Bi  Bi5  1  0.51544450  0.81845550  0.32299350  1
  Bi  Bi6  1  0.17700650  0.01544450  0.68154450  1
  Bi  Bi7  1  0.17700650  0.98455550  0.31845550  1
  Bi  Bi8  1  0.98455550  0.31845550  0.17700650  1
  Bi  Bi9  1  0.32299350  0.51544450  0.81845550  1
  Bi  Bi10  1  0.48455550  0.18154450  0.32299350  1
  Bi  Bi11  1  0.32299350  0.48455550  0.18154450  1
  Bi  Bi12  1  0.01544450  0.68154450  0.17700650  1
  Bi  Bi13  1  0.31845550  0.17700650  0.98455550  1
  Bi  Bi14  1  0.18154450  0.67700650  0.51544450  1
  Bi  Bi15  1  0.31845550  0.82299350  0.01544450  1
  Bi  Bi16  1  0.68154450  0.82299350  0.98455550  1
  Bi  Bi17  1  0.01544450  0.31845550  0.82299350  1
  Bi  Bi18  1  0.67700650  0.51544450  0.18154450  1
  Bi  Bi19  1  0.67700650  0.48455550  0.81845550  1
  Bi  Bi20  1  0.48455550  0.81845550  0.67700650  1
  Bi  Bi21  1  0.82299350  0.01544450  0.31845550  1
  Bi  Bi22  1  0.98455550  0.68154450  0.82299350  1
  Bi  Bi23  1  0.82299350  0.98455550  0.68154450  1
  Bi  Bi24  1  0.51544450  0.18154450  0.67700650  1
  Bi  Bi25  1  0.81845550  0.67700650  0.48455550  1
  O  O26  1  0.60076500  0.39923500  0.39923500  1
  O  O27  1  0.10076500  0.10076500  0.10076500  1
  O  O28  1  0.39923500  0.60076500  0.39923500  1
  O  O29  1  0.39923500  0.39923500  0.60076500  1
  O  O30  1  0.80545500  0.19454500  0.19454500  1
  O  O31  1  0.30545500  0.30545500  0.30545500  1
  O  O32  1  0.19454500  0.80545500  0.19454500  1
  O  O33  1  0.19454500  0.19454500  0.80545500  1
  O  O34  1  0.24883050  0.63169350  0.98836450  1
  O  O35  1  0.25116950  0.86830650  0.48836450  1
  O  O36  1  0.24883050  0.36830650  0.01163550  1
  O  O37  1  0.48836450  0.25116950  0.86830650  1
  O  O38  1  0.63169350  0.98836450  0.24883050  1
  O  O39  1  0.25116950  0.13169350  0.51163550  1
  O  O40  1  0.98836450  0.24883050  0.63169350  1
  O  O41  1  0.36830650  0.01163550  0.24883050  1
  O  O42  1  0.01163550  0.24883050  0.36830650  1
  O  O43  1  0.86830650  0.48836450  0.25116950  1
  O  O44  1  0.51163550  0.25116950  0.13169350  1
  O  O45  1  0.13169350  0.51163550  0.25116950  1
  O  O46  1  0.10076500  0.89923500  0.89923500  1
  O  O47  1  0.60076500  0.60076500  0.60076500  1
  O  O48  1  0.89923500  0.10076500  0.89923500  1
  O  O49  1  0.89923500  0.89923500  0.10076500  1
  O  O50  1  0.30545500  0.69454500  0.69454500  1
  O  O51  1  0.80545500  0.80545500  0.80545500  1
  O  O52  1  0.69454500  0.30545500  0.69454500  1
  O  O53  1  0.69454500  0.69454500  0.30545500  1
  O  O54  1  0.74883050  0.13169350  0.48836450  1
  O  O55  1  0.75116950  0.36830650  0.98836450  1
  O  O56  1  0.74883050  0.86830650  0.51163550  1
  O  O57  1  0.98836450  0.75116950  0.36830650  1
  O  O58  1  0.13169350  0.48836450  0.74883050  1
  O  O59  1  0.75116950  0.63169350  0.01163550  1
  O  O60  1  0.48836450  0.74883050  0.13169350  1
  O  O61  1  0.86830650  0.51163550  0.74883050  1
  O  O62  1  0.51163550  0.74883050  0.86830650  1
  O  O63  1  0.36830650  0.98836450  0.75116950  1
  O  O64  1  0.01163550  0.75116950  0.63169350  1
  O  O65  1  0.63169350  0.01163550  0.75116950  1
