# generated using pymatgen
data_Hg3(SCl)2
_symmetry_space_group_name_H-M   'P 1'
_cell_length_a   9.22135000
_cell_length_b   9.22135000
_cell_length_c   9.22135000
_cell_angle_alpha   90.00000000
_cell_angle_beta   90.00000000
_cell_angle_gamma   90.00000000
_symmetry_Int_Tables_number   1
_chemical_formula_structural   Hg3(SCl)2
_chemical_formula_sum   'Hg12 S8 Cl8'
_cell_volume   784.12178243
_cell_formula_units_Z   4
loop_
 _symmetry_equiv_pos_site_id
 _symmetry_equiv_pos_as_xyz
  1  'x, y, z'
loop_
 _atom_site_type_symbol
 _atom_site_label
 _atom_site_symmetry_multiplicity
 _atom_site_fract_x
 _atom_site_fract_y
 _atom_site_fract_z
 _atom_site_occupancy
  Hg  Hg0  1  0.75000000  0.44732600  0.50000000  1
  Hg  Hg1  1  0.05267400  0.50000000  0.25000000  1
  Hg  Hg2  1  0.50000000  0.75000000  0.44732600  1
  Hg  Hg3  1  0.44732600  0.50000000  0.75000000  1
  Hg  Hg4  1  0.50000000  0.25000000  0.05267400  1
  Hg  Hg5  1  0.25000000  0.05267400  0.50000000  1
  Hg  Hg6  1  0.25000000  0.94732600  0.00000000  1
  Hg  Hg7  1  0.55267400  0.00000000  0.75000000  1
  Hg  Hg8  1  0.00000000  0.25000000  0.94732600  1
  Hg  Hg9  1  0.94732600  0.00000000  0.25000000  1
  Hg  Hg10  1  0.00000000  0.75000000  0.55267400  1
  Hg  Hg11  1  0.75000000  0.55267400  0.00000000  1
  S  S12  1  0.51207400  0.98792600  0.01207400  1
  S  S13  1  0.48792600  0.48792600  0.48792600  1
  S  S14  1  0.98792600  0.01207400  0.51207400  1
  S  S15  1  0.01207400  0.51207400  0.98792600  1
  S  S16  1  0.01207400  0.48792600  0.51207400  1
  S  S17  1  0.98792600  0.98792600  0.98792600  1
  S  S18  1  0.48792600  0.51207400  0.01207400  1
  S  S19  1  0.51207400  0.01207400  0.48792600  1
  Cl  Cl20  1  0.25547400  0.24452600  0.75547400  1
  Cl  Cl21  1  0.24452600  0.24452600  0.24452600  1
  Cl  Cl22  1  0.75547400  0.25547400  0.24452600  1
  Cl  Cl23  1  0.24452600  0.75547400  0.25547400  1
  Cl  Cl24  1  0.75547400  0.74452600  0.25547400  1
  Cl  Cl25  1  0.74452600  0.74452600  0.74452600  1
  Cl  Cl26  1  0.25547400  0.75547400  0.74452600  1
  Cl  Cl27  1  0.74452600  0.25547400  0.75547400  1
