# generated using pymatgen
data_SbPbClO2
_symmetry_space_group_name_H-M   'P 1'
_cell_length_a   5.67501800
_cell_length_b   12.57484000
_cell_length_c   5.50581300
_cell_angle_alpha   90.00000000
_cell_angle_beta   90.00000000
_cell_angle_gamma   90.00000000
_symmetry_Int_Tables_number   1
_chemical_formula_structural   SbPbClO2
_chemical_formula_sum   'Sb4 Pb4 Cl4 O8'
_cell_volume   392.90826829
_cell_formula_units_Z   4
loop_
 _symmetry_equiv_pos_site_id
 _symmetry_equiv_pos_as_xyz
  1  'x, y, z'
loop_
 _atom_site_type_symbol
 _atom_site_label
 _atom_site_symmetry_multiplicity
 _atom_site_fract_x
 _atom_site_fract_y
 _atom_site_fract_z
 _atom_site_occupancy
  Sb  Sb0  1  0.50000000  0.42201600  0.75000000  1
  Sb  Sb1  1  0.00000000  0.07798400  0.25000000  1
  Sb  Sb2  1  0.00000000  0.92201600  0.75000000  1
  Sb  Sb3  1  0.50000000  0.57798400  0.25000000  1
  Pb  Pb4  1  0.50000000  0.11867400  0.75000000  1
  Pb  Pb5  1  0.00000000  0.38132600  0.25000000  1
  Pb  Pb6  1  0.00000000  0.61867400  0.75000000  1
  Pb  Pb7  1  0.50000000  0.88132600  0.25000000  1
  Cl  Cl8  1  0.50000000  0.24700500  0.25000000  1
  Cl  Cl9  1  0.00000000  0.25299500  0.75000000  1
  Cl  Cl10  1  0.00000000  0.74700500  0.25000000  1
  Cl  Cl11  1  0.50000000  0.75299500  0.75000000  1
  O  O12  1  0.22765600  0.00000000  0.00000000  1
  O  O13  1  0.77234400  0.00000000  0.50000000  1
  O  O14  1  0.77234400  0.00000000  0.00000000  1
  O  O15  1  0.22765600  0.00000000  0.50000000  1
  O  O16  1  0.72765600  0.50000000  0.00000000  1
  O  O17  1  0.27234400  0.50000000  0.50000000  1
  O  O18  1  0.27234400  0.50000000  0.00000000  1
  O  O19  1  0.72765600  0.50000000  0.50000000  1
