# generated using pymatgen
data_Sr3Al2(HO)12
_symmetry_space_group_name_H-M   'P 1'
_cell_length_a   13.20355200
_cell_length_b   13.20355200
_cell_length_c   13.20355200
_cell_angle_alpha   90.00000000
_cell_angle_beta   90.00000000
_cell_angle_gamma   90.00000000
_symmetry_Int_Tables_number   1
_chemical_formula_structural   Sr3Al2(HO)12
_chemical_formula_sum   'Sr24 Al16 H96 O96'
_cell_volume   2301.82520111
_cell_formula_units_Z   8
loop_
 _symmetry_equiv_pos_site_id
 _symmetry_equiv_pos_as_xyz
  1  'x, y, z'
loop_
 _atom_site_type_symbol
 _atom_site_label
 _atom_site_symmetry_multiplicity
 _atom_site_fract_x
 _atom_site_fract_y
 _atom_site_fract_z
 _atom_site_occupancy
  Sr  Sr0  1  0.12500000  0.00000000  0.25000000  1
  Sr  Sr1  1  0.87500000  0.50000000  0.25000000  1
  Sr  Sr2  1  0.00000000  0.25000000  0.12500000  1
  Sr  Sr3  1  0.25000000  0.87500000  0.50000000  1
  Sr  Sr4  1  0.50000000  0.25000000  0.87500000  1
  Sr  Sr5  1  0.25000000  0.12500000  0.00000000  1
  Sr  Sr6  1  0.25000000  0.62500000  0.00000000  1
  Sr  Sr7  1  0.37500000  0.50000000  0.25000000  1
  Sr  Sr8  1  0.62500000  0.00000000  0.25000000  1
  Sr  Sr9  1  0.50000000  0.25000000  0.37500000  1
  Sr  Sr10  1  0.00000000  0.25000000  0.62500000  1
  Sr  Sr11  1  0.25000000  0.37500000  0.50000000  1
  Sr  Sr12  1  0.62500000  0.50000000  0.75000000  1
  Sr  Sr13  1  0.37500000  0.00000000  0.75000000  1
  Sr  Sr14  1  0.50000000  0.75000000  0.62500000  1
  Sr  Sr15  1  0.75000000  0.37500000  0.00000000  1
  Sr  Sr16  1  0.00000000  0.75000000  0.37500000  1
  Sr  Sr17  1  0.75000000  0.62500000  0.50000000  1
  Sr  Sr18  1  0.75000000  0.12500000  0.50000000  1
  Sr  Sr19  1  0.87500000  0.00000000  0.75000000  1
  Sr  Sr20  1  0.12500000  0.50000000  0.75000000  1
  Sr  Sr21  1  0.00000000  0.75000000  0.87500000  1
  Sr  Sr22  1  0.50000000  0.75000000  0.12500000  1
  Sr  Sr23  1  0.75000000  0.87500000  0.00000000  1
  Al  Al24  1  0.75000000  0.25000000  0.25000000  1
  Al  Al25  1  0.00000000  0.00000000  0.50000000  1
  Al  Al26  1  0.50000000  0.00000000  0.00000000  1
  Al  Al27  1  0.00000000  0.00000000  0.00000000  1
  Al  Al28  1  0.25000000  0.25000000  0.75000000  1
  Al  Al29  1  0.25000000  0.25000000  0.25000000  1
  Al  Al30  1  0.25000000  0.75000000  0.25000000  1
  Al  Al31  1  0.00000000  0.50000000  0.00000000  1
  Al  Al32  1  0.25000000  0.75000000  0.75000000  1
  Al  Al33  1  0.50000000  0.50000000  0.00000000  1
  Al  Al34  1  0.00000000  0.50000000  0.50000000  1
  Al  Al35  1  0.50000000  0.50000000  0.50000000  1
  Al  Al36  1  0.75000000  0.75000000  0.25000000  1
  Al  Al37  1  0.75000000  0.75000000  0.75000000  1
  Al  Al38  1  0.75000000  0.25000000  0.75000000  1
  Al  Al39  1  0.50000000  0.00000000  0.50000000  1
  H  H40  1  0.21025400  0.15103100  0.59823200  1
  H  H41  1  0.59823200  0.21025400  0.15103100  1
  H  H42  1  0.34896900  0.40176800  0.71025400  1
  H  H43  1  0.28974600  0.15103100  0.40176800  1
  H  H44  1  0.84823200  0.09896900  0.96025400  1
  H  H45  1  0.59823200  0.78974600  0.34896900  1
  H  H46  1  0.15176800  0.40103100  0.96025400  1
  H  H47  1  0.15103100  0.59823200  0.21025400  1
  H  H48  1  0.34823200  0.40103100  0.03974600  1
  H  H49  1  0.96025400  0.15176800  0.40103100  1
  H  H50  1  0.09896900  0.96025400  0.84823200  1
  H  H51  1  0.09896900  0.03974600  0.65176800  1
  H  H52  1  0.03974600  0.65176800  0.09896900  1
  H  H53  1  0.40103100  0.96025400  0.15176800  1
  H  H54  1  0.03974600  0.34823200  0.40103100  1
  H  H55  1  0.40103100  0.03974600  0.34823200  1
  H  H56  1  0.96025400  0.84823200  0.09896900  1
  H  H57  1  0.71025400  0.34896900  0.40176800  1
  H  H58  1  0.78974600  0.34896900  0.59823200  1
  H  H59  1  0.40176800  0.28974600  0.15103100  1
  H  H60  1  0.34896900  0.59823200  0.78974600  1
  H  H61  1  0.65176800  0.09896900  0.03974600  1
  H  H62  1  0.28974600  0.34896900  0.90176800  1
  H  H63  1  0.90176800  0.28974600  0.34896900  1
  H  H64  1  0.15103100  0.09823200  0.78974600  1
  H  H65  1  0.21025400  0.34896900  0.09823200  1
  H  H66  1  0.65176800  0.40103100  0.53974600  1
  H  H67  1  0.90176800  0.71025400  0.15103100  1
  H  H68  1  0.34823200  0.09896900  0.53974600  1
  H  H69  1  0.34896900  0.90176800  0.28974600  1
  H  H70  1  0.15176800  0.09896900  0.46025400  1
  H  H71  1  0.53974600  0.34823200  0.09896900  1
  H  H72  1  0.40103100  0.53974600  0.65176800  1
  H  H73  1  0.40103100  0.46025400  0.84823200  1
  H  H74  1  0.46025400  0.84823200  0.40103100  1
  H  H75  1  0.09896900  0.53974600  0.34823200  1
  H  H76  1  0.46025400  0.15176800  0.09896900  1
  H  H77  1  0.09896900  0.46025400  0.15176800  1
  H  H78  1  0.53974600  0.65176800  0.40103100  1
  H  H79  1  0.78974600  0.15103100  0.09823200  1
  H  H80  1  0.71025400  0.15103100  0.90176800  1
  H  H81  1  0.09823200  0.21025400  0.34896900  1
  H  H82  1  0.09823200  0.78974600  0.15103100  1
  H  H83  1  0.34896900  0.09823200  0.21025400  1
  H  H84  1  0.15103100  0.90176800  0.71025400  1
  H  H85  1  0.84823200  0.40103100  0.46025400  1
  H  H86  1  0.40176800  0.71025400  0.34896900  1
  H  H87  1  0.15103100  0.40176800  0.28974600  1
  H  H88  1  0.71025400  0.65103100  0.09823200  1
  H  H89  1  0.09823200  0.71025400  0.65103100  1
  H  H90  1  0.84896900  0.90176800  0.21025400  1
  H  H91  1  0.78974600  0.65103100  0.90176800  1
  H  H92  1  0.34823200  0.59896900  0.46025400  1
  H  H93  1  0.09823200  0.28974600  0.84896900  1
  H  H94  1  0.65176800  0.90103100  0.46025400  1
  H  H95  1  0.65103100  0.09823200  0.71025400  1
  H  H96  1  0.84823200  0.90103100  0.53974600  1
  H  H97  1  0.46025400  0.65176800  0.90103100  1
  H  H98  1  0.59896900  0.46025400  0.34823200  1
  H  H99  1  0.59896900  0.53974600  0.15176800  1
  H  H100  1  0.53974600  0.15176800  0.59896900  1
  H  H101  1  0.90103100  0.46025400  0.65176800  1
  H  H102  1  0.53974600  0.84823200  0.90103100  1
  H  H103  1  0.90103100  0.53974600  0.84823200  1
  H  H104  1  0.46025400  0.34823200  0.59896900  1
  H  H105  1  0.21025400  0.84896900  0.90176800  1
  H  H106  1  0.28974600  0.84896900  0.09823200  1
  H  H107  1  0.90176800  0.78974600  0.65103100  1
  H  H108  1  0.84896900  0.09823200  0.28974600  1
  H  H109  1  0.15176800  0.59896900  0.53974600  1
  H  H110  1  0.78974600  0.84896900  0.40176800  1
  H  H111  1  0.40176800  0.78974600  0.84896900  1
  H  H112  1  0.65103100  0.59823200  0.28974600  1
  H  H113  1  0.71025400  0.84896900  0.59823200  1
  H  H114  1  0.15176800  0.90103100  0.03974600  1
  H  H115  1  0.40176800  0.21025400  0.65103100  1
  H  H116  1  0.84823200  0.59896900  0.03974600  1
  H  H117  1  0.84896900  0.40176800  0.78974600  1
  H  H118  1  0.65176800  0.59896900  0.96025400  1
  H  H119  1  0.03974600  0.84823200  0.59896900  1
  H  H120  1  0.90103100  0.03974600  0.15176800  1
  H  H121  1  0.90103100  0.96025400  0.34823200  1
  H  H122  1  0.96025400  0.34823200  0.90103100  1
  H  H123  1  0.59896900  0.03974600  0.84823200  1
  H  H124  1  0.96025400  0.65176800  0.59896900  1
  H  H125  1  0.59896900  0.96025400  0.65176800  1
  H  H126  1  0.03974600  0.15176800  0.90103100  1
  H  H127  1  0.28974600  0.65103100  0.59823200  1
  H  H128  1  0.21025400  0.65103100  0.40176800  1
  H  H129  1  0.59823200  0.71025400  0.84896900  1
  H  H130  1  0.59823200  0.28974600  0.65103100  1
  H  H131  1  0.84896900  0.59823200  0.71025400  1
  H  H132  1  0.65103100  0.40176800  0.21025400  1
  H  H133  1  0.34823200  0.90103100  0.96025400  1
  H  H134  1  0.90176800  0.21025400  0.84896900  1
  H  H135  1  0.65103100  0.90176800  0.78974600  1
  O  O136  1  0.45176500  0.13570500  0.02771800  1
  O  O137  1  0.13570500  0.97228200  0.04823500  1
  O  O138  1  0.86429500  0.47228200  0.45176500  1
  O  O139  1  0.61429500  0.29823500  0.72228200  1
  O  O140  1  0.27771800  0.88570500  0.29823500  1
  O  O141  1  0.88570500  0.29823500  0.27771800  1
  O  O142  1  0.27771800  0.11429500  0.20176500  1
  O  O143  1  0.88570500  0.70176500  0.22228200  1
  O  O144  1  0.22228200  0.88570500  0.70176500  1
  O  O145  1  0.72228200  0.61429500  0.29823500  1
  O  O146  1  0.02771800  0.45176500  0.13570500  1
  O  O147  1  0.29823500  0.27771800  0.88570500  1
  O  O148  1  0.02771800  0.54823500  0.36429500  1
  O  O149  1  0.20176500  0.27771800  0.11429500  1
  O  O150  1  0.04823500  0.13570500  0.97228200  1
  O  O151  1  0.29823500  0.72228200  0.61429500  1
  O  O152  1  0.13570500  0.02771800  0.45176500  1
  O  O153  1  0.47228200  0.45176500  0.86429500  1
  O  O154  1  0.54823500  0.36429500  0.02771800  1
  O  O155  1  0.36429500  0.02771800  0.54823500  1
  O  O156  1  0.97228200  0.04823500  0.13570500  1
  O  O157  1  0.70176500  0.22228200  0.88570500  1
  O  O158  1  0.13570500  0.47228200  0.95176500  1
  O  O159  1  0.95176500  0.13570500  0.47228200  1
  O  O160  1  0.02771800  0.04823500  0.63570500  1
  O  O161  1  0.36429500  0.47228200  0.04823500  1
  O  O162  1  0.20176500  0.77771800  0.88570500  1
  O  O163  1  0.45176500  0.36429500  0.52771800  1
  O  O164  1  0.29823500  0.22228200  0.38570500  1
  O  O165  1  0.47228200  0.95176500  0.13570500  1
  O  O166  1  0.20176500  0.22228200  0.61429500  1
  O  O167  1  0.38570500  0.29823500  0.22228200  1
  O  O168  1  0.77771800  0.88570500  0.20176500  1
  O  O169  1  0.27771800  0.61429500  0.79823500  1
  O  O170  1  0.61429500  0.79823500  0.27771800  1
  O  O171  1  0.22228200  0.38570500  0.29823500  1
  O  O172  1  0.61429500  0.20176500  0.22228200  1
  O  O173  1  0.22228200  0.61429500  0.20176500  1
  O  O174  1  0.88570500  0.20176500  0.77771800  1
  O  O175  1  0.63570500  0.02771800  0.04823500  1
  O  O176  1  0.36429500  0.52771800  0.45176500  1
  O  O177  1  0.04823500  0.36429500  0.47228200  1
  O  O178  1  0.04823500  0.63570500  0.02771800  1
  O  O179  1  0.47228200  0.04823500  0.36429500  1
  O  O180  1  0.52771800  0.45176500  0.36429500  1
  O  O181  1  0.79823500  0.27771800  0.61429500  1
  O  O182  1  0.45176500  0.86429500  0.47228200  1
  O  O183  1  0.11429500  0.20176500  0.27771800  1
  O  O184  1  0.95176500  0.63570500  0.52771800  1
  O  O185  1  0.63570500  0.47228200  0.54823500  1
  O  O186  1  0.36429500  0.97228200  0.95176500  1
  O  O187  1  0.11429500  0.79823500  0.22228200  1
  O  O188  1  0.77771800  0.38570500  0.79823500  1
  O  O189  1  0.38570500  0.79823500  0.77771800  1
  O  O190  1  0.77771800  0.61429500  0.70176500  1
  O  O191  1  0.38570500  0.20176500  0.72228200  1
  O  O192  1  0.72228200  0.38570500  0.20176500  1
  O  O193  1  0.22228200  0.11429500  0.79823500  1
  O  O194  1  0.52771800  0.95176500  0.63570500  1
  O  O195  1  0.79823500  0.77771800  0.38570500  1
  O  O196  1  0.52771800  0.04823500  0.86429500  1
  O  O197  1  0.70176500  0.77771800  0.61429500  1
  O  O198  1  0.54823500  0.63570500  0.47228200  1
  O  O199  1  0.79823500  0.22228200  0.11429500  1
  O  O200  1  0.63570500  0.52771800  0.95176500  1
  O  O201  1  0.97228200  0.95176500  0.36429500  1
  O  O202  1  0.04823500  0.86429500  0.52771800  1
  O  O203  1  0.86429500  0.52771800  0.04823500  1
  O  O204  1  0.47228200  0.54823500  0.63570500  1
  O  O205  1  0.20176500  0.72228200  0.38570500  1
  O  O206  1  0.63570500  0.97228200  0.45176500  1
  O  O207  1  0.45176500  0.63570500  0.97228200  1
  O  O208  1  0.52771800  0.54823500  0.13570500  1
  O  O209  1  0.86429500  0.97228200  0.54823500  1
  O  O210  1  0.70176500  0.27771800  0.38570500  1
  O  O211  1  0.95176500  0.86429500  0.02771800  1
  O  O212  1  0.79823500  0.72228200  0.88570500  1
  O  O213  1  0.97228200  0.45176500  0.63570500  1
  O  O214  1  0.70176500  0.72228200  0.11429500  1
  O  O215  1  0.88570500  0.79823500  0.72228200  1
  O  O216  1  0.27771800  0.38570500  0.70176500  1
  O  O217  1  0.77771800  0.11429500  0.29823500  1
  O  O218  1  0.11429500  0.29823500  0.77771800  1
  O  O219  1  0.72228200  0.88570500  0.79823500  1
  O  O220  1  0.11429500  0.70176500  0.72228200  1
  O  O221  1  0.72228200  0.11429500  0.70176500  1
  O  O222  1  0.38570500  0.70176500  0.27771800  1
  O  O223  1  0.13570500  0.52771800  0.54823500  1
  O  O224  1  0.86429500  0.02771800  0.95176500  1
  O  O225  1  0.54823500  0.86429500  0.97228200  1
  O  O226  1  0.54823500  0.13570500  0.52771800  1
  O  O227  1  0.97228200  0.54823500  0.86429500  1
  O  O228  1  0.02771800  0.95176500  0.86429500  1
  O  O229  1  0.29823500  0.77771800  0.11429500  1
  O  O230  1  0.95176500  0.36429500  0.97228200  1
  O  O231  1  0.61429500  0.70176500  0.77771800  1
