# generated using pymatgen
data_Ag25(BiO6)3
_symmetry_space_group_name_H-M   'P 1'
_cell_length_a   11.74570259
_cell_length_b   11.74570259
_cell_length_c   6.41115600
_cell_angle_alpha   90.00000000
_cell_angle_beta   90.00000000
_cell_angle_gamma   120.00000000
_symmetry_Int_Tables_number   1
_chemical_formula_structural   Ag25(BiO6)3
_chemical_formula_sum   'Ag25 Bi3 O18'
_cell_volume   765.99330938
_cell_formula_units_Z   1
loop_
 _symmetry_equiv_pos_site_id
 _symmetry_equiv_pos_as_xyz
  1  'x, y, z'
loop_
 _atom_site_type_symbol
 _atom_site_label
 _atom_site_symmetry_multiplicity
 _atom_site_fract_x
 _atom_site_fract_y
 _atom_site_fract_z
 _atom_site_occupancy
  Ag  Ag0  1  0.04817000  0.30470800  0.33932200  1
  Ag  Ag1  1  0.76499100  0.24914100  0.24758000  1
  Ag  Ag2  1  0.75085900  0.51585000  0.24758000  1
  Ag  Ag3  1  0.48415000  0.23500900  0.24758000  1
  Ag  Ag4  1  0.23500900  0.75085900  0.75242000  1
  Ag  Ag5  1  0.24914100  0.48415000  0.75242000  1
  Ag  Ag6  1  0.50000000  0.00000000  0.50000000  1
  Ag  Ag7  1  0.00000000  0.50000000  0.50000000  1
  Ag  Ag8  1  0.50000000  0.50000000  0.50000000  1
  Ag  Ag9  1  0.00000000  0.00000000  0.00000000  1
  Ag  Ag10  1  0.69529200  0.74346200  0.33932200  1
  Ag  Ag11  1  0.95183000  0.69529200  0.66067800  1
  Ag  Ag12  1  0.74346200  0.04817000  0.66067800  1
  Ag  Ag13  1  0.30470800  0.25653800  0.66067800  1
  Ag  Ag14  1  0.97915900  0.25004700  0.84451100  1
  Ag  Ag15  1  0.27088800  0.02084100  0.84451100  1
  Ag  Ag16  1  0.74995300  0.72911200  0.84451100  1
  Ag  Ag17  1  0.02084100  0.74995300  0.15548900  1
  Ag  Ag18  1  0.72911200  0.97915900  0.15548900  1
  Ag  Ag19  1  0.25004700  0.27088800  0.15548900  1
  Ag  Ag20  1  0.50000000  0.50000000  0.00000000  1
  Ag  Ag21  1  0.00000000  0.50000000  0.00000000  1
  Ag  Ag22  1  0.50000000  0.00000000  0.00000000  1
  Ag  Ag23  1  0.51585000  0.76499100  0.75242000  1
  Ag  Ag24  1  0.25653800  0.95183000  0.33932200  1
  Bi  Bi25  1  0.00000000  0.00000000  0.50000000  1
  Bi  Bi26  1  0.66666667  0.33333333  0.75915900  1
  Bi  Bi27  1  0.33333333  0.66666667  0.24084100  1
  O  O28  1  0.67622300  0.18249600  0.54879100  1
  O  O29  1  0.50627300  0.32377700  0.54879100  1
  O  O30  1  0.81750400  0.49372700  0.54879100  1
  O  O31  1  0.18249600  0.50627300  0.45120900  1
  O  O32  1  0.92242700  0.09530800  0.29329400  1
  O  O33  1  0.17288100  0.07757300  0.29329400  1
  O  O34  1  0.90469200  0.82711900  0.29329400  1
  O  O35  1  0.07757300  0.90469200  0.70670600  1
  O  O36  1  0.82711900  0.92242700  0.70670600  1
  O  O37  1  0.09530800  0.17288100  0.70670600  1
  O  O38  1  0.83967400  0.31071600  0.93941500  1
  O  O39  1  0.47104200  0.16032600  0.93941500  1
  O  O40  1  0.68928400  0.52895800  0.93941500  1
  O  O41  1  0.16032600  0.68928400  0.06058500  1
  O  O42  1  0.52895800  0.83967400  0.06058500  1
  O  O43  1  0.31071600  0.47104200  0.06058500  1
  O  O44  1  0.32377700  0.81750400  0.45120900  1
  O  O45  1  0.49372700  0.67622300  0.45120900  1
