# generated using pymatgen
data_BaP10
_symmetry_space_group_name_H-M   'P 1'
_cell_length_a   6.49497200
_cell_length_b   12.98335200
_cell_length_c   12.14039500
_cell_angle_alpha   90.00000000
_cell_angle_beta   90.00000000
_cell_angle_gamma   90.00000000
_symmetry_Int_Tables_number   1
_chemical_formula_structural   BaP10
_chemical_formula_sum   'Ba4 P40'
_cell_volume   1023.75711252
_cell_formula_units_Z   4
loop_
 _symmetry_equiv_pos_site_id
 _symmetry_equiv_pos_as_xyz
  1  'x, y, z'
loop_
 _atom_site_type_symbol
 _atom_site_label
 _atom_site_symmetry_multiplicity
 _atom_site_fract_x
 _atom_site_fract_y
 _atom_site_fract_z
 _atom_site_occupancy
  Ba  Ba0  1  0.50000000  0.31323500  0.49348800  1
  Ba  Ba1  1  0.00000000  0.18676500  0.99348800  1
  Ba  Ba2  1  0.00000000  0.81323500  0.49348800  1
  Ba  Ba3  1  0.50000000  0.68676500  0.99348800  1
  P  P4  1  0.74928000  0.47836600  0.68399200  1
  P  P5  1  0.75072000  0.02163400  0.18399200  1
  P  P6  1  0.00000000  0.38910500  0.39450000  1
  P  P7  1  0.50000000  0.11089500  0.89450000  1
  P  P8  1  0.00000000  0.06592600  0.44224200  1
  P  P9  1  0.50000000  0.43407400  0.94224200  1
  P  P10  1  0.00000000  0.40778700  0.21680400  1
  P  P11  1  0.50000000  0.09221300  0.71680400  1
  P  P12  1  0.50000000  0.31294500  0.07018700  1
  P  P13  1  0.00000000  0.18705500  0.57018700  1
  P  P14  1  0.50000000  0.40825700  0.22022900  1
  P  P15  1  0.00000000  0.09174300  0.72022900  1
  P  P16  1  0.50000000  0.05124600  0.43534700  1
  P  P17  1  0.00000000  0.44875400  0.93534700  1
  P  P18  1  0.25496400  0.12359500  0.33491000  1
  P  P19  1  0.24503600  0.37640500  0.83491000  1
  P  P20  1  0.74503600  0.12359500  0.33491000  1
  P  P21  1  0.75496400  0.37640500  0.83491000  1
  P  P22  1  0.24928000  0.02163400  0.18399200  1
  P  P23  1  0.25072000  0.47836600  0.68399200  1
  P  P24  1  0.24928000  0.97836600  0.68399200  1
  P  P25  1  0.25072000  0.52163400  0.18399200  1
  P  P26  1  0.50000000  0.88910500  0.39450000  1
  P  P27  1  0.00000000  0.61089500  0.89450000  1
  P  P28  1  0.50000000  0.56592600  0.44224200  1
  P  P29  1  0.00000000  0.93407400  0.94224200  1
  P  P30  1  0.50000000  0.90778700  0.21680400  1
  P  P31  1  0.00000000  0.59221300  0.71680400  1
  P  P32  1  0.00000000  0.81294500  0.07018700  1
  P  P33  1  0.50000000  0.68705500  0.57018700  1
  P  P34  1  0.00000000  0.90825700  0.22022900  1
  P  P35  1  0.50000000  0.59174300  0.72022900  1
  P  P36  1  0.00000000  0.55124600  0.43534700  1
  P  P37  1  0.50000000  0.94875400  0.93534700  1
  P  P38  1  0.75496400  0.62359500  0.33491000  1
  P  P39  1  0.74503600  0.87640500  0.83491000  1
  P  P40  1  0.24503600  0.62359500  0.33491000  1
  P  P41  1  0.25496400  0.87640500  0.83491000  1
  P  P42  1  0.74928000  0.52163400  0.18399200  1
  P  P43  1  0.75072000  0.97836600  0.68399200  1
