# generated using pymatgen
data_Li5CrCl8
_symmetry_space_group_name_H-M   'P 1'
_cell_length_a   7.32914800
_cell_length_b   10.27276400
_cell_length_c   7.29589400
_cell_angle_alpha   90.00000000
_cell_angle_beta   90.00000000
_cell_angle_gamma   90.00000000
_symmetry_Int_Tables_number   1
_chemical_formula_structural   Li5CrCl8
_chemical_formula_sum   'Li10 Cr2 Cl16'
_cell_volume   549.31229316
_cell_formula_units_Z   2
loop_
 _symmetry_equiv_pos_site_id
 _symmetry_equiv_pos_as_xyz
  1  'x, y, z'
loop_
 _atom_site_type_symbol
 _atom_site_label
 _atom_site_symmetry_multiplicity
 _atom_site_fract_x
 _atom_site_fract_y
 _atom_site_fract_z
 _atom_site_occupancy
  Li  Li0  1  0.25000000  0.75000000  0.23317300  1
  Li  Li1  1  0.25000000  0.25000000  0.76682700  1
  Li  Li2  1  0.25000000  0.75000000  0.76682700  1
  Li  Li3  1  0.25000000  0.25000000  0.23317300  1
  Li  Li4  1  0.50000000  0.00000000  0.00000000  1
  Li  Li5  1  0.75000000  0.25000000  0.23317300  1
  Li  Li6  1  0.75000000  0.75000000  0.76682700  1
  Li  Li7  1  0.75000000  0.25000000  0.76682700  1
  Li  Li8  1  0.75000000  0.75000000  0.23317300  1
  Li  Li9  1  0.00000000  0.50000000  0.00000000  1
  Cr  Cr10  1  0.50000000  0.00000000  0.50000000  1
  Cr  Cr11  1  0.00000000  0.50000000  0.50000000  1
  Cl  Cl12  1  0.27233900  0.00000000  0.27002300  1
  Cl  Cl13  1  0.72766100  0.00000000  0.27002300  1
  Cl  Cl14  1  0.50000000  0.23069000  0.50000000  1
  Cl  Cl15  1  0.27233900  0.00000000  0.72997700  1
  Cl  Cl16  1  0.72766100  0.00000000  0.72997700  1
  Cl  Cl17  1  0.50000000  0.24723900  0.00000000  1
  Cl  Cl18  1  0.50000000  0.76931000  0.50000000  1
  Cl  Cl19  1  0.50000000  0.75276100  0.00000000  1
  Cl  Cl20  1  0.77233900  0.50000000  0.27002300  1
  Cl  Cl21  1  0.22766100  0.50000000  0.27002300  1
  Cl  Cl22  1  0.00000000  0.73069000  0.50000000  1
  Cl  Cl23  1  0.77233900  0.50000000  0.72997700  1
  Cl  Cl24  1  0.22766100  0.50000000  0.72997700  1
  Cl  Cl25  1  0.00000000  0.74723900  0.00000000  1
  Cl  Cl26  1  0.00000000  0.26931000  0.50000000  1
  Cl  Cl27  1  0.00000000  0.25276100  0.00000000  1
