# generated using pymatgen
data_SrH12(ClO3)2
_symmetry_space_group_name_H-M   'P 1'
_cell_length_a   7.99695956
_cell_length_b   7.99695956
_cell_length_c   4.19579100
_cell_angle_alpha   90.00000000
_cell_angle_beta   90.00000000
_cell_angle_gamma   120.00000000
_symmetry_Int_Tables_number   1
_chemical_formula_structural   SrH12(ClO3)2
_chemical_formula_sum   'Sr1 H12 Cl2 O6'
_cell_volume   232.37760854
_cell_formula_units_Z   1
loop_
 _symmetry_equiv_pos_site_id
 _symmetry_equiv_pos_as_xyz
  1  'x, y, z'
loop_
 _atom_site_type_symbol
 _atom_site_label
 _atom_site_symmetry_multiplicity
 _atom_site_fract_x
 _atom_site_fract_y
 _atom_site_fract_z
 _atom_site_occupancy
  Sr  Sr0  1  0.00000000  0.00000000  0.00000000  1
  H  H1  1  0.88718500  0.64329100  0.49722600  1
  H  H2  1  0.35670900  0.24389400  0.49722600  1
  H  H3  1  0.75610600  0.11281500  0.49722600  1
  H  H4  1  0.24389400  0.35670900  0.50277400  1
  H  H5  1  0.11281500  0.75610600  0.50277400  1
  H  H6  1  0.64329100  0.88718500  0.50277400  1
  H  H7  1  0.90021900  0.34491900  0.90692500  1
  H  H8  1  0.65508100  0.55530000  0.90692500  1
  H  H9  1  0.44470000  0.09978100  0.90692500  1
  H  H10  1  0.34491900  0.90021900  0.09307500  1
  H  H11  1  0.09978100  0.44470000  0.09307500  1
  H  H12  1  0.55530000  0.65508100  0.09307500  1
  Cl  Cl13  1  0.66666667  0.33333333  0.61877600  1
  Cl  Cl14  1  0.33333333  0.66666667  0.38122400  1
  O  O15  1  0.22471700  0.22471700  0.50000000  1
  O  O16  1  0.00000000  0.77528300  0.50000000  1
  O  O17  1  0.77528300  0.00000000  0.50000000  1
  O  O18  1  0.67827800  0.67827800  0.00000000  1
  O  O19  1  0.00000000  0.32172200  0.00000000  1
  O  O20  1  0.32172200  0.00000000  0.00000000  1
