# generated using pymatgen
data_Si2Cl2O3
_symmetry_space_group_name_H-M   'P 1'
_cell_length_a   12.86594413
_cell_length_b   12.86594413
_cell_length_c   13.42013610
_cell_angle_alpha   90.00000000
_cell_angle_beta   90.00000000
_cell_angle_gamma   120.00000000
_symmetry_Int_Tables_number   1
_chemical_formula_structural   Si2Cl2O3
_chemical_formula_sum   'Si24 Cl24 O36'
_cell_volume   1923.84852298
_cell_formula_units_Z   12
loop_
 _symmetry_equiv_pos_site_id
 _symmetry_equiv_pos_as_xyz
  1  'x, y, z'
loop_
 _atom_site_type_symbol
 _atom_site_label
 _atom_site_symmetry_multiplicity
 _atom_site_fract_x
 _atom_site_fract_y
 _atom_site_fract_z
 _atom_site_occupancy
  Si  Si0  1  0.14255900  0.46128000  0.59941600  1
  Si  Si1  1  0.53872000  0.68127900  0.59941600  1
  Si  Si2  1  0.00000000  0.00000000  0.20232600  1
  Si  Si3  1  0.85744100  0.53872000  0.40058400  1
  Si  Si4  1  0.46128000  0.31872100  0.40058400  1
  Si  Si5  1  0.68127900  0.14255900  0.40058400  1
  Si  Si6  1  0.00000000  0.00000000  0.79767400  1
  Si  Si7  1  0.31872100  0.85744100  0.59941600  1
  Si  Si8  1  0.80922567  0.79461333  0.93274933  1
  Si  Si9  1  0.20538667  0.01461233  0.93274933  1
  Si  Si10  1  0.66666667  0.33333333  0.53565933  1
  Si  Si11  1  0.52410767  0.87205333  0.73391733  1
  Si  Si12  1  0.12794667  0.65205433  0.73391733  1
  Si  Si13  1  0.34794567  0.47589233  0.73391733  1
  Si  Si14  1  0.66666667  0.33333333  0.13100733  1
  Si  Si15  1  0.98538767  0.19077433  0.93274933  1
  Si  Si16  1  0.47589233  0.12794667  0.26608267  1
  Si  Si17  1  0.87205333  0.34794567  0.26608267  1
  Si  Si18  1  0.33333333  0.66666667  0.86899267  1
  Si  Si19  1  0.19077433  0.20538667  0.06725067  1
  Si  Si20  1  0.79461333  0.98538767  0.06725067  1
  Si  Si21  1  0.01461233  0.80922567  0.06725067  1
  Si  Si22  1  0.33333333  0.66666667  0.46434067  1
  Si  Si23  1  0.65205433  0.52410767  0.26608267  1
  Cl  Cl24  1  0.00068400  0.30732000  0.54980600  1
  Cl  Cl25  1  0.30663600  0.99931600  0.54980600  1
  Cl  Cl26  1  0.99931600  0.69268000  0.45019400  1
  Cl  Cl27  1  0.30732000  0.30663600  0.45019400  1
  Cl  Cl28  1  0.69336400  0.00068400  0.45019400  1
  Cl  Cl29  1  0.00000000  0.00000000  0.64735200  1
  Cl  Cl30  1  0.00000000  0.00000000  0.35264800  1
  Cl  Cl31  1  0.69268000  0.69336400  0.54980600  1
  Cl  Cl32  1  0.66735067  0.64065333  0.88313933  1
  Cl  Cl33  1  0.97330267  0.33264933  0.88313933  1
  Cl  Cl34  1  0.66598267  0.02601333  0.78352733  1
  Cl  Cl35  1  0.97398667  0.63996933  0.78352733  1
  Cl  Cl36  1  0.36003067  0.33401733  0.78352733  1
  Cl  Cl37  1  0.66666667  0.33333333  0.98068533  1
  Cl  Cl38  1  0.66666667  0.33333333  0.68598133  1
  Cl  Cl39  1  0.35934667  0.02669733  0.88313933  1
  Cl  Cl40  1  0.33401733  0.97398667  0.21647267  1
  Cl  Cl41  1  0.63996933  0.66598267  0.21647267  1
  Cl  Cl42  1  0.33264933  0.35934667  0.11686067  1
  Cl  Cl43  1  0.64065333  0.97330267  0.11686067  1
  Cl  Cl44  1  0.02669733  0.66735067  0.11686067  1
  Cl  Cl45  1  0.33333333  0.66666667  0.31401867  1
  Cl  Cl46  1  0.33333333  0.66666667  0.01931467  1
  Cl  Cl47  1  0.02601333  0.36003067  0.21647267  1
  O  O48  1  0.22547667  0.42773033  0.66883533  1
  O  O49  1  0.11358233  0.12489667  0.16218467  1
  O  O50  1  0.87510333  0.98868567  0.16218467  1
  O  O51  1  0.01131433  0.88641767  0.16218467  1
  O  O52  1  0.12489667  0.01131433  0.83781533  1
  O  O53  1  0.98868567  0.11358233  0.83781533  1
  O  O54  1  0.88641767  0.87510333  0.83781533  1
  O  O55  1  0.79774633  0.22547667  0.33116467  1
  O  O56  1  0.57226967  0.79774633  0.66883533  1
  O  O57  1  0.20225367  0.77452333  0.66883533  1
  O  O58  1  0.77452333  0.57226967  0.33116467  1
  O  O59  1  0.42773033  0.20225367  0.33116467  1
  O  O60  1  0.89214333  0.76106367  0.00216867  1
  O  O61  1  0.78024900  0.45823000  0.49551800  1
  O  O62  1  0.54177000  0.32201900  0.49551800  1
  O  O63  1  0.67798100  0.21975100  0.49551800  1
  O  O64  1  0.79156333  0.34464767  0.17114867  1
  O  O65  1  0.65535233  0.44691567  0.17114867  1
  O  O66  1  0.55308433  0.20843667  0.17114867  1
  O  O67  1  0.46441300  0.55881000  0.66449800  1
  O  O68  1  0.23893633  0.13107967  0.00216867  1
  O  O69  1  0.86892033  0.10785667  0.00216867  1
  O  O70  1  0.44119000  0.90560300  0.66449800  1
  O  O71  1  0.09439700  0.53558700  0.66449800  1
  O  O72  1  0.55881000  0.09439700  0.33550200  1
  O  O73  1  0.44691567  0.79156333  0.82885133  1
  O  O74  1  0.20843667  0.65535233  0.82885133  1
  O  O75  1  0.34464767  0.55308433  0.82885133  1
  O  O76  1  0.45823000  0.67798100  0.50448200  1
  O  O77  1  0.32201900  0.78024900  0.50448200  1
  O  O78  1  0.21975100  0.54177000  0.50448200  1
  O  O79  1  0.13107967  0.89214333  0.99783133  1
  O  O80  1  0.90560300  0.46441300  0.33550200  1
  O  O81  1  0.53558700  0.44119000  0.33550200  1
  O  O82  1  0.10785667  0.23893633  0.99783133  1
  O  O83  1  0.76106367  0.86892033  0.99783133  1
