# generated using pymatgen
data_ZnP4H16(NO8)2
_symmetry_space_group_name_H-M   'P 1'
_cell_length_a   7.14772400
_cell_length_b   7.41927034
_cell_length_c   7.83863608
_cell_angle_alpha   99.26811001
_cell_angle_beta   108.91014632
_cell_angle_gamma   89.75051410
_symmetry_Int_Tables_number   1
_chemical_formula_structural   ZnP4H16(NO8)2
_chemical_formula_sum   'Zn1 P4 H16 N2 O16'
_cell_volume   387.61070965
_cell_formula_units_Z   1
loop_
 _symmetry_equiv_pos_site_id
 _symmetry_equiv_pos_as_xyz
  1  'x, y, z'
loop_
 _atom_site_type_symbol
 _atom_site_label
 _atom_site_symmetry_multiplicity
 _atom_site_fract_x
 _atom_site_fract_y
 _atom_site_fract_z
 _atom_site_occupancy
  Zn  Zn0  1  0.00000000  0.50000000  0.00000000  1
  P  P1  1  0.83482400  0.25399900  0.25742500  1
  P  P2  1  0.16517600  0.74600100  0.74257500  1
  P  P3  1  0.24604200  0.21680400  0.25836200  1
  P  P4  1  0.75395800  0.78319600  0.74163800  1
  H  H5  1  0.57369000  0.71808300  0.32862000  1
  H  H6  1  0.42631000  0.28191700  0.67138000  1
  H  H7  1  0.44542300  0.68347200  0.10020100  1
  H  H8  1  0.55457700  0.31652800  0.89979900  1
  H  H9  1  0.67619100  0.60732900  0.17592900  1
  H  H10  1  0.35614000  0.16507400  0.81079300  1
  H  H11  1  0.12007000  0.70175300  0.34750200  1
  H  H12  1  0.87993000  0.29824700  0.65249800  1
  H  H13  1  0.64386000  0.83492600  0.18920700  1
  H  H14  1  0.87789500  0.16556100  0.79416400  1
  H  H15  1  0.75770200  0.02097200  0.02269000  1
  H  H16  1  0.24229800  0.97902800  0.97731000  1
  H  H17  1  0.56620300  0.27372600  0.42272300  1
  H  H18  1  0.43379700  0.72627400  0.57727700  1
  H  H19  1  0.32380900  0.39267100  0.82407100  1
  H  H20  1  0.12210500  0.83443900  0.20583600  1
  N  N21  1  0.58431400  0.71101900  0.19828500  1
  N  N22  1  0.41568600  0.28898100  0.80171500  1
  O  O23  1  0.07117200  0.23764400  0.34929600  1
  O  O24  1  0.94149600  0.27910500  0.78076100  1
  O  O25  1  0.05850400  0.72089500  0.21923900  1
  O  O26  1  0.23711200  0.69109900  0.58124300  1
  O  O27  1  0.25421800  0.94310800  0.84462600  1
  O  O28  1  0.20238300  0.61556900  0.88089900  1
  O  O29  1  0.74578200  0.05689200  0.15537400  1
  O  O30  1  0.92882800  0.76235600  0.65070400  1
  O  O31  1  0.23207400  0.02011600  0.15920600  1
  O  O32  1  0.76792600  0.97988400  0.84079400  1
  O  O33  1  0.42907300  0.24903300  0.44005500  1
  O  O34  1  0.57092700  0.75096700  0.55994500  1
  O  O35  1  0.23993000  0.36281600  0.14323000  1
  O  O36  1  0.76007000  0.63718400  0.85677000  1
  O  O37  1  0.76288800  0.30890100  0.41875700  1
  O  O38  1  0.79761700  0.38443100  0.11910100  1
