# generated using pymatgen
data_CaAsH5O6
_symmetry_space_group_name_H-M   'P 1'
_cell_length_a   6.70761400
_cell_length_b   15.43689200
_cell_length_c   6.06828993
_cell_angle_alpha   90.00000000
_cell_angle_beta   121.00391745
_cell_angle_gamma   90.00000000
_symmetry_Int_Tables_number   1
_chemical_formula_structural   CaAsH5O6
_chemical_formula_sum   'Ca4 As4 H20 O24'
_cell_volume   538.56980735
_cell_formula_units_Z   4
loop_
 _symmetry_equiv_pos_site_id
 _symmetry_equiv_pos_as_xyz
  1  'x, y, z'
loop_
 _atom_site_type_symbol
 _atom_site_label
 _atom_site_symmetry_multiplicity
 _atom_site_fract_x
 _atom_site_fract_y
 _atom_site_fract_z
 _atom_site_occupancy
  Ca  Ca0  1  0.50821950  0.32759350  0.74699700  1
  Ca  Ca1  1  0.00821950  0.17240650  0.24699700  1
  Ca  Ca2  1  0.00821950  0.82759350  0.74699700  1
  Ca  Ca3  1  0.50821950  0.67240650  0.24699700  1
  As  As4  1  0.98758000  0.32445600  0.73054600  1
  As  As5  1  0.48758000  0.17554400  0.23054600  1
  As  As6  1  0.48758000  0.82445600  0.73054600  1
  As  As7  1  0.98758000  0.67554400  0.23054600  1
  H  H8  1  0.29760100  0.33283200  0.14835900  1
  H  H9  1  0.79760100  0.16716800  0.64835900  1
  H  H10  1  0.75497900  0.48974300  0.09580900  1
  H  H11  1  0.25497900  0.01025700  0.59580900  1
  H  H12  1  0.74309200  0.41415300  0.26689000  1
  H  H13  1  0.24309200  0.08584700  0.76689000  1
  H  H14  1  0.77546250  0.01010050  0.51721100  1
  H  H15  1  0.27546250  0.48989950  0.01721100  1
  H  H16  1  0.11117250  0.43306350  0.35883300  1
  H  H17  1  0.61117250  0.06693650  0.85883300  1
  H  H18  1  0.79760100  0.83283200  0.14835900  1
  H  H19  1  0.29760100  0.66716800  0.64835900  1
  H  H20  1  0.25497900  0.98974300  0.09580900  1
  H  H21  1  0.75497900  0.51025700  0.59580900  1
  H  H22  1  0.24309200  0.91415300  0.26689000  1
  H  H23  1  0.74309200  0.58584700  0.76689000  1
  H  H24  1  0.27546250  0.51010050  0.51721100  1
  H  H25  1  0.77546250  0.98989950  0.01721100  1
  H  H26  1  0.61117250  0.93306350  0.35883300  1
  H  H27  1  0.11117250  0.56693650  0.85883300  1
  O  O28  1  0.26753000  0.44626800  0.50394500  1
  O  O29  1  0.25274400  0.07466100  0.61035100  1
  O  O30  1  0.75274400  0.42533900  0.11035100  1
  O  O31  1  0.76753000  0.05373200  0.00394500  1
  O  O32  1  0.23508400  0.37460900  0.99667600  1
  O  O33  1  0.73508400  0.12539100  0.49667600  1
  O  O34  1  0.10203950  0.27846050  0.56576500  1
  O  O35  1  0.60203950  0.22153950  0.06576500  1
  O  O36  1  0.77370100  0.39922600  0.57174700  1
  O  O37  1  0.27370100  0.10077400  0.07174700  1
  O  O38  1  0.87529400  0.24944000  0.84847100  1
  O  O39  1  0.37529400  0.25056000  0.34847100  1
  O  O40  1  0.76753000  0.94626800  0.50394500  1
  O  O41  1  0.75274400  0.57466100  0.61035100  1
  O  O42  1  0.25274400  0.92533900  0.11035100  1
  O  O43  1  0.26753000  0.55373200  0.00394500  1
  O  O44  1  0.73508400  0.87460900  0.99667600  1
  O  O45  1  0.23508400  0.62539100  0.49667600  1
  O  O46  1  0.60203950  0.77846050  0.56576500  1
  O  O47  1  0.10203950  0.72153950  0.06576500  1
  O  O48  1  0.27370100  0.89922600  0.57174700  1
  O  O49  1  0.77370100  0.60077400  0.07174700  1
  O  O50  1  0.37529400  0.74944000  0.84847100  1
  O  O51  1  0.87529400  0.75056000  0.34847100  1
