# generated using pymatgen
data_Tl2TeCl6
_symmetry_space_group_name_H-M   'P 1'
_cell_length_a   10.37390200
_cell_length_b   10.37390200
_cell_length_c   10.37390200
_cell_angle_alpha   90.00000000
_cell_angle_beta   90.00000000
_cell_angle_gamma   90.00000000
_symmetry_Int_Tables_number   1
_chemical_formula_structural   Tl2TeCl6
_chemical_formula_sum   'Tl8 Te4 Cl24'
_cell_volume   1116.41695368
_cell_formula_units_Z   4
loop_
 _symmetry_equiv_pos_site_id
 _symmetry_equiv_pos_as_xyz
  1  'x, y, z'
loop_
 _atom_site_type_symbol
 _atom_site_label
 _atom_site_symmetry_multiplicity
 _atom_site_fract_x
 _atom_site_fract_y
 _atom_site_fract_z
 _atom_site_occupancy
  Tl  Tl0  1  0.25000000  0.25000000  0.75000000  1
  Tl  Tl1  1  0.25000000  0.75000000  0.75000000  1
  Tl  Tl2  1  0.25000000  0.75000000  0.25000000  1
  Tl  Tl3  1  0.25000000  0.25000000  0.25000000  1
  Tl  Tl4  1  0.75000000  0.25000000  0.25000000  1
  Tl  Tl5  1  0.75000000  0.75000000  0.25000000  1
  Tl  Tl6  1  0.75000000  0.75000000  0.75000000  1
  Tl  Tl7  1  0.75000000  0.25000000  0.75000000  1
  Te  Te8  1  0.00000000  0.00000000  0.00000000  1
  Te  Te9  1  0.00000000  0.50000000  0.50000000  1
  Te  Te10  1  0.50000000  0.00000000  0.50000000  1
  Te  Te11  1  0.50000000  0.50000000  0.00000000  1
  Cl  Cl12  1  0.00000000  0.00000000  0.75315900  1
  Cl  Cl13  1  0.50000000  0.25315900  0.00000000  1
  Cl  Cl14  1  0.50000000  0.74684100  0.00000000  1
  Cl  Cl15  1  0.50000000  0.00000000  0.74684100  1
  Cl  Cl16  1  0.75315900  0.00000000  0.00000000  1
  Cl  Cl17  1  0.24684100  0.00000000  0.00000000  1
  Cl  Cl18  1  0.00000000  0.50000000  0.25315900  1
  Cl  Cl19  1  0.50000000  0.75315900  0.50000000  1
  Cl  Cl20  1  0.50000000  0.24684100  0.50000000  1
  Cl  Cl21  1  0.50000000  0.50000000  0.24684100  1
  Cl  Cl22  1  0.75315900  0.50000000  0.50000000  1
  Cl  Cl23  1  0.24684100  0.50000000  0.50000000  1
  Cl  Cl24  1  0.50000000  0.00000000  0.25315900  1
  Cl  Cl25  1  0.00000000  0.25315900  0.50000000  1
  Cl  Cl26  1  0.00000000  0.74684100  0.50000000  1
  Cl  Cl27  1  0.00000000  0.00000000  0.24684100  1
  Cl  Cl28  1  0.25315900  0.00000000  0.50000000  1
  Cl  Cl29  1  0.74684100  0.00000000  0.50000000  1
  Cl  Cl30  1  0.50000000  0.50000000  0.75315900  1
  Cl  Cl31  1  0.00000000  0.75315900  0.00000000  1
  Cl  Cl32  1  0.00000000  0.24684100  0.00000000  1
  Cl  Cl33  1  0.00000000  0.50000000  0.74684100  1
  Cl  Cl34  1  0.25315900  0.50000000  0.00000000  1
  Cl  Cl35  1  0.74684100  0.50000000  0.00000000  1
