# generated using pymatgen
data_LiN3
_symmetry_space_group_name_H-M   'P 1'
_cell_length_a   5.68506800
_cell_length_b   3.35405000
_cell_length_c   4.98858271
_cell_angle_alpha   90.00000000
_cell_angle_beta   107.26838708
_cell_angle_gamma   90.00000000
_symmetry_Int_Tables_number   1
_chemical_formula_structural   LiN3
_chemical_formula_sum   'Li2 N6'
_cell_volume   90.83464311
_cell_formula_units_Z   2
loop_
 _symmetry_equiv_pos_site_id
 _symmetry_equiv_pos_as_xyz
  1  'x, y, z'
loop_
 _atom_site_type_symbol
 _atom_site_label
 _atom_site_symmetry_multiplicity
 _atom_site_fract_x
 _atom_site_fract_y
 _atom_site_fract_z
 _atom_site_occupancy
  Li  Li0  1  0.00000000  0.00000000  0.00000000  1
  Li  Li1  1  0.50000000  0.50000000  0.00000000  1
  N  N2  1  0.39418900  0.00000000  0.25670700  1
  N  N3  1  0.60581100  0.00000000  0.74329300  1
  N  N4  1  0.50000000  0.00000000  0.50000000  1
  N  N5  1  0.89418900  0.50000000  0.25670700  1
  N  N6  1  0.10581100  0.50000000  0.74329300  1
  N  N7  1  0.00000000  0.50000000  0.50000000  1
