# generated using pymatgen
data_Cs2UO4
_symmetry_space_group_name_H-M   'P 1'
_cell_length_a   4.42602400
_cell_length_b   4.42602400
_cell_length_c   15.33763600
_cell_angle_alpha   90.00000000
_cell_angle_beta   90.00000000
_cell_angle_gamma   90.00000000
_symmetry_Int_Tables_number   1
_chemical_formula_structural   Cs2UO4
_chemical_formula_sum   'Cs4 U2 O8'
_cell_volume   300.45951078
_cell_formula_units_Z   2
loop_
 _symmetry_equiv_pos_site_id
 _symmetry_equiv_pos_as_xyz
  1  'x, y, z'
loop_
 _atom_site_type_symbol
 _atom_site_label
 _atom_site_symmetry_multiplicity
 _atom_site_fract_x
 _atom_site_fract_y
 _atom_site_fract_z
 _atom_site_occupancy
  Cs  Cs0  1  0.00000000  0.00000000  0.34588100  1
  Cs  Cs1  1  0.50000000  0.50000000  0.15411900  1
  Cs  Cs2  1  0.50000000  0.50000000  0.84588100  1
  Cs  Cs3  1  0.00000000  0.00000000  0.65411900  1
  U  U4  1  0.00000000  0.00000000  0.00000000  1
  U  U5  1  0.50000000  0.50000000  0.50000000  1
  O  O6  1  0.50000000  0.50000000  0.37298700  1
  O  O7  1  0.00000000  0.00000000  0.12701300  1
  O  O8  1  0.00000000  0.50000000  0.00000000  1
  O  O9  1  0.50000000  0.00000000  0.00000000  1
  O  O10  1  0.00000000  0.00000000  0.87298700  1
  O  O11  1  0.50000000  0.50000000  0.62701300  1
  O  O12  1  0.50000000  0.00000000  0.50000000  1
  O  O13  1  0.00000000  0.50000000  0.50000000  1
