# generated using pymatgen
data_IO2
_symmetry_space_group_name_H-M   'P 1'
_cell_length_a   8.14847100
_cell_length_b   7.01199500
_cell_length_c   8.33402123
_cell_angle_alpha   90.00000000
_cell_angle_beta   116.99717244
_cell_angle_gamma   90.00000000
_symmetry_Int_Tables_number   1
_chemical_formula_structural   IO2
_chemical_formula_sum   'I8 O16'
_cell_volume   424.29130151
_cell_formula_units_Z   8
loop_
 _symmetry_equiv_pos_site_id
 _symmetry_equiv_pos_as_xyz
  1  'x, y, z'
loop_
 _atom_site_type_symbol
 _atom_site_label
 _atom_site_symmetry_multiplicity
 _atom_site_fract_x
 _atom_site_fract_y
 _atom_site_fract_z
 _atom_site_occupancy
  I  I0  1  0.85949300  0.87911500  0.68432700  1
  I  I1  1  0.14050700  0.37911500  0.81567300  1
  I  I2  1  0.14050700  0.12088500  0.31567300  1
  I  I3  1  0.85949300  0.62088500  0.18432700  1
  I  I4  1  0.30535500  0.74224900  0.14757500  1
  I  I5  1  0.69464500  0.24224900  0.35242500  1
  I  I6  1  0.69464500  0.25775100  0.85242500  1
  I  I7  1  0.30535500  0.75775100  0.64757500  1
  O  O8  1  0.05261800  0.74362400  0.51235000  1
  O  O9  1  0.94738200  0.24362400  0.98765000  1
  O  O10  1  0.94738200  0.25637600  0.48765000  1
  O  O11  1  0.05261800  0.75637600  0.01235000  1
  O  O12  1  0.31115300  0.65189300  0.35396800  1
  O  O13  1  0.68884700  0.15189300  0.14603200  1
  O  O14  1  0.68884700  0.34810700  0.64603200  1
  O  O15  1  0.31115300  0.84810700  0.85396800  1
  O  O16  1  0.69906600  0.95581700  0.43779700  1
  O  O17  1  0.30093400  0.45581700  0.06220300  1
  O  O18  1  0.30093400  0.04418300  0.56220300  1
  O  O19  1  0.69906600  0.54418300  0.93779700  1
  O  O20  1  0.69410600  0.96079800  0.77976800  1
  O  O21  1  0.30589400  0.46079800  0.72023200  1
  O  O22  1  0.30589400  0.03920200  0.22023200  1
  O  O23  1  0.69410600  0.53920200  0.27976800  1
