# generated using pymatgen
data_CuGe5Pb3O14
_symmetry_space_group_name_H-M   'P 1'
_cell_length_a   18.22396000
_cell_length_b   8.26832600
_cell_length_c   10.55061526
_cell_angle_alpha   90.00000000
_cell_angle_beta   124.25943971
_cell_angle_gamma   90.00000000
_symmetry_Int_Tables_number   1
_chemical_formula_structural   CuGe5Pb3O14
_chemical_formula_sum   'Cu4 Ge20 Pb12 O56'
_cell_volume   1313.95175622
_cell_formula_units_Z   4
loop_
 _symmetry_equiv_pos_site_id
 _symmetry_equiv_pos_as_xyz
  1  'x, y, z'
loop_
 _atom_site_type_symbol
 _atom_site_label
 _atom_site_symmetry_multiplicity
 _atom_site_fract_x
 _atom_site_fract_y
 _atom_site_fract_z
 _atom_site_occupancy
  Cu  Cu0  1  0.00000000  0.00000000  0.50000000  1
  Cu  Cu1  1  0.00000000  0.00000000  0.00000000  1
  Cu  Cu2  1  0.50000000  0.50000000  0.50000000  1
  Cu  Cu3  1  0.50000000  0.50000000  0.00000000  1
  Ge  Ge4  1  0.66248250  0.18244650  0.13437400  1
  Ge  Ge5  1  0.83751750  0.68244650  0.36562600  1
  Ge  Ge6  1  0.62361950  0.79513250  0.15458500  1
  Ge  Ge7  1  0.87638050  0.29513250  0.34541500  1
  Ge  Ge8  1  0.37638050  0.20486750  0.84541500  1
  Ge  Ge9  1  0.12361950  0.70486750  0.65458500  1
  Ge  Ge10  1  0.00000000  0.21569100  0.25000000  1
  Ge  Ge11  1  0.00000000  0.78430900  0.75000000  1
  Ge  Ge12  1  0.33751750  0.81755350  0.86562600  1
  Ge  Ge13  1  0.16248250  0.31755350  0.63437400  1
  Ge  Ge14  1  0.16248250  0.68244650  0.13437400  1
  Ge  Ge15  1  0.33751750  0.18244650  0.36562600  1
  Ge  Ge16  1  0.12361950  0.29513250  0.15458500  1
  Ge  Ge17  1  0.37638050  0.79513250  0.34541500  1
  Ge  Ge18  1  0.87638050  0.70486750  0.84541500  1
  Ge  Ge19  1  0.62361950  0.20486750  0.65458500  1
  Ge  Ge20  1  0.50000000  0.71569100  0.25000000  1
  Ge  Ge21  1  0.50000000  0.28430900  0.75000000  1
  Ge  Ge22  1  0.83751750  0.31755350  0.86562600  1
  Ge  Ge23  1  0.66248250  0.81755350  0.63437400  1
  Pb  Pb24  1  0.18655100  0.96944400  0.43892200  1
  Pb  Pb25  1  0.81344900  0.96944400  0.06107800  1
  Pb  Pb26  1  0.81344900  0.03055600  0.56107800  1
  Pb  Pb27  1  0.18655100  0.03055600  0.93892200  1
  Pb  Pb28  1  0.00000000  0.64791100  0.25000000  1
  Pb  Pb29  1  0.00000000  0.35208900  0.75000000  1
  Pb  Pb30  1  0.68655100  0.46944400  0.43892200  1
  Pb  Pb31  1  0.31344900  0.46944400  0.06107800  1
  Pb  Pb32  1  0.31344900  0.53055600  0.56107800  1
  Pb  Pb33  1  0.68655100  0.53055600  0.93892200  1
  Pb  Pb34  1  0.50000000  0.14791100  0.25000000  1
  Pb  Pb35  1  0.50000000  0.85208900  0.75000000  1
  O  O36  1  0.15272900  0.27499900  0.78576900  1
  O  O37  1  0.34727100  0.77499900  0.71423100  1
  O  O38  1  0.84727100  0.72500100  0.21423100  1
  O  O39  1  0.65272900  0.22500100  0.28576900  1
  O  O40  1  0.27294550  0.27511550  0.68033400  1
  O  O41  1  0.22705450  0.77511550  0.81966600  1
  O  O42  1  0.72705450  0.72488450  0.31966600  1
  O  O43  1  0.77294550  0.22488450  0.18033400  1
  O  O44  1  0.05530500  0.38252000  0.20730300  1
  O  O45  1  0.94469500  0.38252000  0.29269700  1
  O  O46  1  0.94469500  0.61748000  0.79269700  1
  O  O47  1  0.05530500  0.61748000  0.70730300  1
  O  O48  1  0.06421000  0.93177900  0.71270600  1
  O  O49  1  0.93579000  0.93177900  0.78729400  1
  O  O50  1  0.93579000  0.06822100  0.28729400  1
  O  O51  1  0.06421000  0.06822100  0.21270600  1
  O  O52  1  0.15293750  0.52854650  0.58626300  1
  O  O53  1  0.34706250  0.02854650  0.91373700  1
  O  O54  1  0.07661850  0.17261250  0.98671200  1
  O  O55  1  0.92338150  0.17261250  0.51328800  1
  O  O56  1  0.92338150  0.82738750  0.01328800  1
  O  O57  1  0.07661850  0.82738750  0.48671200  1
  O  O58  1  0.09784450  0.80527550  0.97021200  1
  O  O59  1  0.90215550  0.80527550  0.52978800  1
  O  O60  1  0.90215550  0.19472450  0.02978800  1
  O  O61  1  0.09784450  0.19472450  0.47021200  1
  O  O62  1  0.65293750  0.97145350  0.08626300  1
  O  O63  1  0.84706250  0.47145350  0.41373700  1
  O  O64  1  0.65272900  0.77499900  0.78576900  1
  O  O65  1  0.84727100  0.27499900  0.71423100  1
  O  O66  1  0.34727100  0.22500100  0.21423100  1
  O  O67  1  0.15272900  0.72500100  0.28576900  1
  O  O68  1  0.77294550  0.77511550  0.68033400  1
  O  O69  1  0.72705450  0.27511550  0.81966600  1
  O  O70  1  0.22705450  0.22488450  0.31966600  1
  O  O71  1  0.27294550  0.72488450  0.18033400  1
  O  O72  1  0.55530500  0.88252000  0.20730300  1
  O  O73  1  0.44469500  0.88252000  0.29269700  1
  O  O74  1  0.44469500  0.11748000  0.79269700  1
  O  O75  1  0.55530500  0.11748000  0.70730300  1
  O  O76  1  0.56421000  0.43177900  0.71270600  1
  O  O77  1  0.43579000  0.43177900  0.78729400  1
  O  O78  1  0.43579000  0.56822100  0.28729400  1
  O  O79  1  0.56421000  0.56822100  0.21270600  1
  O  O80  1  0.65293750  0.02854650  0.58626300  1
  O  O81  1  0.84706250  0.52854650  0.91373700  1
  O  O82  1  0.57661850  0.67261250  0.98671200  1
  O  O83  1  0.42338150  0.67261250  0.51328800  1
  O  O84  1  0.42338150  0.32738750  0.01328800  1
  O  O85  1  0.57661850  0.32738750  0.48671200  1
  O  O86  1  0.59784450  0.30527550  0.97021200  1
  O  O87  1  0.40215550  0.30527550  0.52978800  1
  O  O88  1  0.40215550  0.69472450  0.02978800  1
  O  O89  1  0.59784450  0.69472450  0.47021200  1
  O  O90  1  0.15293750  0.47145350  0.08626300  1
  O  O91  1  0.34706250  0.97145350  0.41373700  1
