# generated using pymatgen
data_K2NaInAs2
_symmetry_space_group_name_H-M   'P 1'
_cell_length_a   6.82426400
_cell_length_b   6.86873800
_cell_length_c   15.49779400
_cell_angle_alpha   90.00000000
_cell_angle_beta   90.00000000
_cell_angle_gamma   90.00000000
_symmetry_Int_Tables_number   1
_chemical_formula_structural   K2NaInAs2
_chemical_formula_sum   'K8 Na4 In4 As8'
_cell_volume   726.44485839
_cell_formula_units_Z   4
loop_
 _symmetry_equiv_pos_site_id
 _symmetry_equiv_pos_as_xyz
  1  'x, y, z'
loop_
 _atom_site_type_symbol
 _atom_site_label
 _atom_site_symmetry_multiplicity
 _atom_site_fract_x
 _atom_site_fract_y
 _atom_site_fract_z
 _atom_site_occupancy
  K  K0  1  0.26063400  0.00000000  0.32407500  1
  K  K1  1  0.76063400  0.00000000  0.17592500  1
  K  K2  1  0.73936600  0.50000000  0.32407500  1
  K  K3  1  0.23936600  0.50000000  0.17592500  1
  K  K4  1  0.76063400  0.50000000  0.82407500  1
  K  K5  1  0.26063400  0.50000000  0.67592500  1
  K  K6  1  0.23936600  0.00000000  0.82407500  1
  K  K7  1  0.73936600  0.00000000  0.67592500  1
  Na  Na8  1  0.00000000  0.25000000  0.00000000  1
  Na  Na9  1  0.00000000  0.75000000  0.00000000  1
  Na  Na10  1  0.50000000  0.75000000  0.50000000  1
  Na  Na11  1  0.50000000  0.25000000  0.50000000  1
  In  In12  1  0.50000000  0.75000000  0.00000000  1
  In  In13  1  0.50000000  0.25000000  0.00000000  1
  In  In14  1  0.00000000  0.25000000  0.50000000  1
  In  In15  1  0.00000000  0.75000000  0.50000000  1
  As  As16  1  0.71751200  0.50000000  0.10175600  1
  As  As17  1  0.78248800  0.00000000  0.39824400  1
  As  As18  1  0.21751200  0.50000000  0.39824400  1
  As  As19  1  0.28248800  0.00000000  0.10175600  1
  As  As20  1  0.21751200  0.00000000  0.60175600  1
  As  As21  1  0.28248800  0.50000000  0.89824400  1
  As  As22  1  0.71751200  0.00000000  0.89824400  1
  As  As23  1  0.78248800  0.50000000  0.60175600  1
