# generated using pymatgen
data_Li2ZnCl4
_symmetry_space_group_name_H-M   'P 1'
_cell_length_a   10.42939400
_cell_length_b   10.42939400
_cell_length_c   10.42939400
_cell_angle_alpha   90.00000000
_cell_angle_beta   90.00000000
_cell_angle_gamma   90.00000000
_symmetry_Int_Tables_number   1
_chemical_formula_structural   Li2ZnCl4
_chemical_formula_sum   'Li16 Zn8 Cl32'
_cell_volume   1134.42874754
_cell_formula_units_Z   8
loop_
 _symmetry_equiv_pos_site_id
 _symmetry_equiv_pos_as_xyz
  1  'x, y, z'
loop_
 _atom_site_type_symbol
 _atom_site_label
 _atom_site_symmetry_multiplicity
 _atom_site_fract_x
 _atom_site_fract_y
 _atom_site_fract_z
 _atom_site_occupancy
  Li  Li0  1  0.37500000  0.87500000  0.12500000  1
  Li  Li1  1  0.37500000  0.62500000  0.37500000  1
  Li  Li2  1  0.12500000  0.62500000  0.12500000  1
  Li  Li3  1  0.12500000  0.87500000  0.37500000  1
  Li  Li4  1  0.37500000  0.37500000  0.62500000  1
  Li  Li5  1  0.37500000  0.12500000  0.87500000  1
  Li  Li6  1  0.12500000  0.12500000  0.62500000  1
  Li  Li7  1  0.12500000  0.37500000  0.87500000  1
  Li  Li8  1  0.87500000  0.87500000  0.62500000  1
  Li  Li9  1  0.87500000  0.62500000  0.87500000  1
  Li  Li10  1  0.62500000  0.62500000  0.62500000  1
  Li  Li11  1  0.62500000  0.87500000  0.87500000  1
  Li  Li12  1  0.87500000  0.37500000  0.12500000  1
  Li  Li13  1  0.87500000  0.12500000  0.37500000  1
  Li  Li14  1  0.62500000  0.12500000  0.12500000  1
  Li  Li15  1  0.62500000  0.37500000  0.37500000  1
  Zn  Zn16  1  0.50000000  0.00000000  0.50000000  1
  Zn  Zn17  1  0.25000000  0.25000000  0.25000000  1
  Zn  Zn18  1  0.50000000  0.50000000  0.00000000  1
  Zn  Zn19  1  0.25000000  0.75000000  0.75000000  1
  Zn  Zn20  1  0.00000000  0.00000000  0.00000000  1
  Zn  Zn21  1  0.75000000  0.25000000  0.75000000  1
  Zn  Zn22  1  0.00000000  0.50000000  0.50000000  1
  Zn  Zn23  1  0.75000000  0.75000000  0.25000000  1
  Cl  Cl24  1  0.37819600  0.12180400  0.12180400  1
  Cl  Cl25  1  0.37180400  0.87180400  0.37180400  1
  Cl  Cl26  1  0.37819600  0.37819600  0.37819600  1
  Cl  Cl27  1  0.87180400  0.12819600  0.12819600  1
  Cl  Cl28  1  0.12819600  0.87180400  0.12819600  1
  Cl  Cl29  1  0.62819600  0.12819600  0.37180400  1
  Cl  Cl30  1  0.12180400  0.37819600  0.12180400  1
  Cl  Cl31  1  0.12180400  0.12180400  0.37819600  1
  Cl  Cl32  1  0.37819600  0.62180400  0.62180400  1
  Cl  Cl33  1  0.37180400  0.37180400  0.87180400  1
  Cl  Cl34  1  0.37819600  0.87819600  0.87819600  1
  Cl  Cl35  1  0.87180400  0.62819600  0.62819600  1
  Cl  Cl36  1  0.12819600  0.37180400  0.62819600  1
  Cl  Cl37  1  0.62819600  0.62819600  0.87180400  1
  Cl  Cl38  1  0.12180400  0.87819600  0.62180400  1
  Cl  Cl39  1  0.12180400  0.62180400  0.87819600  1
  Cl  Cl40  1  0.87819600  0.12180400  0.62180400  1
  Cl  Cl41  1  0.87180400  0.87180400  0.87180400  1
  Cl  Cl42  1  0.87819600  0.37819600  0.87819600  1
  Cl  Cl43  1  0.37180400  0.12819600  0.62819600  1
  Cl  Cl44  1  0.62819600  0.87180400  0.62819600  1
  Cl  Cl45  1  0.12819600  0.12819600  0.87180400  1
  Cl  Cl46  1  0.62180400  0.37819600  0.62180400  1
  Cl  Cl47  1  0.62180400  0.12180400  0.87819600  1
  Cl  Cl48  1  0.87819600  0.62180400  0.12180400  1
  Cl  Cl49  1  0.87180400  0.37180400  0.37180400  1
  Cl  Cl50  1  0.87819600  0.87819600  0.37819600  1
  Cl  Cl51  1  0.37180400  0.62819600  0.12819600  1
  Cl  Cl52  1  0.62819600  0.37180400  0.12819600  1
  Cl  Cl53  1  0.12819600  0.62819600  0.37180400  1
  Cl  Cl54  1  0.62180400  0.87819600  0.12180400  1
  Cl  Cl55  1  0.62180400  0.62180400  0.37819600  1
