# generated using pymatgen
data_NaAlBP2H3O10
_symmetry_space_group_name_H-M   'P 1'
_cell_length_a   10.56612000
_cell_length_b   8.08051400
_cell_length_c   9.11282657
_cell_angle_alpha   90.00000000
_cell_angle_beta   116.98665918
_cell_angle_gamma   90.00000000
_symmetry_Int_Tables_number   1
_chemical_formula_structural   NaAlBP2H3O10
_chemical_formula_sum   'Na4 Al4 B4 P8 H12 O40'
_cell_volume   693.33005056
_cell_formula_units_Z   4
loop_
 _symmetry_equiv_pos_site_id
 _symmetry_equiv_pos_as_xyz
  1  'x, y, z'
loop_
 _atom_site_type_symbol
 _atom_site_label
 _atom_site_symmetry_multiplicity
 _atom_site_fract_x
 _atom_site_fract_y
 _atom_site_fract_z
 _atom_site_occupancy
  Na  Na0  1  0.00000000  0.86988300  0.25000000  1
  Na  Na1  1  0.00000000  0.13011700  0.75000000  1
  Na  Na2  1  0.50000000  0.36988300  0.25000000  1
  Na  Na3  1  0.50000000  0.63011700  0.75000000  1
  Al  Al4  1  0.25000000  0.75000000  0.00000000  1
  Al  Al5  1  0.75000000  0.75000000  0.50000000  1
  Al  Al6  1  0.75000000  0.25000000  0.00000000  1
  Al  Al7  1  0.25000000  0.25000000  0.50000000  1
  B  B8  1  0.00000000  0.46625600  0.25000000  1
  B  B9  1  0.00000000  0.53374400  0.75000000  1
  B  B10  1  0.50000000  0.96625600  0.25000000  1
  B  B11  1  0.50000000  0.03374400  0.75000000  1
  P  P12  1  0.27331100  0.56523200  0.31887000  1
  P  P13  1  0.72668900  0.56523200  0.18113000  1
  P  P14  1  0.72668900  0.43476800  0.68113000  1
  P  P15  1  0.27331100  0.43476800  0.81887000  1
  P  P16  1  0.77331100  0.06523200  0.31887000  1
  P  P17  1  0.22668900  0.06523200  0.18113000  1
  P  P18  1  0.22668900  0.93476800  0.68113000  1
  P  P19  1  0.77331100  0.93476800  0.81887000  1
  H  H20  1  0.75000000  0.75000000  0.00000000  1
  H  H21  1  0.25000000  0.75000000  0.50000000  1
  H  H22  1  0.99684750  0.31697450  0.43296100  1
  H  H23  1  0.00315250  0.31697450  0.06703900  1
  H  H24  1  0.99684750  0.68302550  0.93296100  1
  H  H25  1  0.00315250  0.68302550  0.56703900  1
  H  H26  1  0.25000000  0.25000000  0.00000000  1
  H  H27  1  0.75000000  0.25000000  0.50000000  1
  H  H28  1  0.49684750  0.81697450  0.43296100  1
  H  H29  1  0.50315250  0.81697450  0.06703900  1
  H  H30  1  0.49684750  0.18302550  0.93296100  1
  H  H31  1  0.50315250  0.18302550  0.56703900  1
  O  O32  1  0.83542800  0.79931700  0.95527900  1
  O  O33  1  0.16457200  0.79931700  0.54472100  1
  O  O34  1  0.06724700  0.63677100  0.90129500  1
  O  O35  1  0.93275300  0.63677100  0.59870500  1
  O  O36  1  0.93275300  0.36322900  0.09870500  1
  O  O37  1  0.06724700  0.36322900  0.40129500  1
  O  O38  1  0.10691650  0.57722050  0.24265300  1
  O  O39  1  0.89308350  0.57722050  0.25734700  1
  O  O40  1  0.89308350  0.42277950  0.75734700  1
  O  O41  1  0.10691650  0.42277950  0.74265300  1
  O  O42  1  0.31904700  0.59710900  0.18444800  1
  O  O43  1  0.68095300  0.59710900  0.31555200  1
  O  O44  1  0.68095300  0.40289100  0.81555200  1
  O  O45  1  0.31904700  0.40289100  0.68444800  1
  O  O46  1  0.32198150  0.39138250  0.39150300  1
  O  O47  1  0.67801850  0.39138250  0.10849700  1
  O  O48  1  0.67801850  0.60861750  0.60849700  1
  O  O49  1  0.32198150  0.60861750  0.89150300  1
  O  O50  1  0.83542800  0.20068300  0.45527900  1
  O  O51  1  0.16457200  0.20068300  0.04472100  1
  O  O52  1  0.33542800  0.29931700  0.95527900  1
  O  O53  1  0.66457200  0.29931700  0.54472100  1
  O  O54  1  0.56724700  0.13677100  0.90129500  1
  O  O55  1  0.43275300  0.13677100  0.59870500  1
  O  O56  1  0.43275300  0.86322900  0.09870500  1
  O  O57  1  0.56724700  0.86322900  0.40129500  1
  O  O58  1  0.60691650  0.07722050  0.24265300  1
  O  O59  1  0.39308350  0.07722050  0.25734700  1
  O  O60  1  0.39308350  0.92277950  0.75734700  1
  O  O61  1  0.60691650  0.92277950  0.74265300  1
  O  O62  1  0.81904700  0.09710900  0.18444800  1
  O  O63  1  0.18095300  0.09710900  0.31555200  1
  O  O64  1  0.18095300  0.90289100  0.81555200  1
  O  O65  1  0.81904700  0.90289100  0.68444800  1
  O  O66  1  0.82198150  0.89138250  0.39150300  1
  O  O67  1  0.17801850  0.89138250  0.10849700  1
  O  O68  1  0.17801850  0.10861750  0.60849700  1
  O  O69  1  0.82198150  0.10861750  0.89150300  1
  O  O70  1  0.33542800  0.70068300  0.45527900  1
  O  O71  1  0.66457200  0.70068300  0.04472100  1
