# generated using pymatgen
data_P(HO)3
_symmetry_space_group_name_H-M   'P 1'
_cell_length_a   6.97045300
_cell_length_b   7.34201200
_cell_length_c   12.25209100
_cell_angle_alpha   90.00000000
_cell_angle_beta   90.00000000
_cell_angle_gamma   90.00000000
_symmetry_Int_Tables_number   1
_chemical_formula_structural   P(HO)3
_chemical_formula_sum   'P8 H24 O24'
_cell_volume   627.02709367
_cell_formula_units_Z   8
loop_
 _symmetry_equiv_pos_site_id
 _symmetry_equiv_pos_as_xyz
  1  'x, y, z'
loop_
 _atom_site_type_symbol
 _atom_site_label
 _atom_site_symmetry_multiplicity
 _atom_site_fract_x
 _atom_site_fract_y
 _atom_site_fract_z
 _atom_site_occupancy
  P  P0  1  0.46699800  0.03753500  0.38009400  1
  P  P1  1  0.96699800  0.46246500  0.88009400  1
  P  P2  1  0.96699800  0.96246500  0.61990600  1
  P  P3  1  0.46699800  0.53753500  0.11990600  1
  P  P4  1  0.99520800  0.50277300  0.37109900  1
  P  P5  1  0.49520800  0.49722700  0.62890100  1
  P  P6  1  0.49520800  0.99722700  0.87109900  1
  P  P7  1  0.99520800  0.00277300  0.12890100  1
  H  H8  1  0.65865600  0.45908500  0.25861500  1
  H  H9  1  0.15865600  0.54091500  0.74138500  1
  H  H10  1  0.15865600  0.04091500  0.75861500  1
  H  H11  1  0.65865600  0.95908500  0.24138500  1
  H  H12  1  0.55948800  0.70220300  0.09501900  1
  H  H13  1  0.05948800  0.29779700  0.90498100  1
  H  H14  1  0.05948800  0.79779700  0.59501900  1
  H  H15  1  0.55948800  0.20220300  0.40498100  1
  H  H16  1  0.16555700  0.07461500  0.44105200  1
  H  H17  1  0.66555700  0.92538500  0.55894800  1
  H  H18  1  0.66555700  0.42538500  0.94105200  1
  H  H19  1  0.16555700  0.57461500  0.05894800  1
  H  H20  1  0.98158800  0.31062900  0.51196800  1
  H  H21  1  0.48158800  0.68937100  0.48803200  1
  H  H22  1  0.48158800  0.18937100  0.01196800  1
  H  H23  1  0.93635600  0.78474900  0.30858900  1
  H  H24  1  0.18803000  0.96820000  0.15422400  1
  H  H25  1  0.68803000  0.03180000  0.84577600  1
  H  H26  1  0.68803000  0.53180000  0.65422400  1
  H  H27  1  0.18803000  0.46820000  0.34577600  1
  H  H28  1  0.93635600  0.28474900  0.19141100  1
  H  H29  1  0.43635600  0.71525100  0.80858900  1
  H  H30  1  0.43635600  0.21525100  0.69141100  1
  H  H31  1  0.98158800  0.81062900  0.98803200  1
  O  O32  1  0.86851100  0.40789100  0.28733900  1
  O  O33  1  0.36851100  0.59210900  0.71266100  1
  O  O34  1  0.36851100  0.09210900  0.78733900  1
  O  O35  1  0.86851100  0.90789100  0.21266100  1
  O  O36  1  0.96497800  0.21327800  0.12144500  1
  O  O37  1  0.45998600  0.55595400  0.50766200  1
  O  O38  1  0.45998600  0.05595400  0.99233800  1
  O  O39  1  0.95998600  0.94404600  0.00766200  1
  O  O40  1  0.24692200  0.07483100  0.37097000  1
  O  O41  1  0.74692200  0.92516900  0.62903000  1
  O  O42  1  0.74692200  0.42516900  0.87097000  1
  O  O43  1  0.24692200  0.57483100  0.12903000  1
  O  O44  1  0.51785400  0.98605900  0.25977000  1
  O  O45  1  0.01785400  0.01394100  0.74023000  1
  O  O46  1  0.01785400  0.51394100  0.75977000  1
  O  O47  1  0.51785400  0.48605900  0.24023000  1
  O  O48  1  0.52296900  0.89762500  0.46563500  1
  O  O49  1  0.02296900  0.10237500  0.53436500  1
  O  O50  1  0.02296900  0.60237500  0.96563500  1
  O  O51  1  0.52296900  0.39762500  0.03436500  1
  O  O52  1  0.96497800  0.71327800  0.37855500  1
  O  O53  1  0.46497800  0.28672200  0.62144500  1
  O  O54  1  0.46497800  0.78672200  0.87855500  1
  O  O55  1  0.95998600  0.44404600  0.49233800  1
