# generated using pymatgen
data_NaGa3Te5
_symmetry_space_group_name_H-M   'P 1'
_cell_length_a   14.95298218
_cell_length_b   14.95298218
_cell_length_c   18.07730434
_cell_angle_alpha   90.00000000
_cell_angle_beta   90.00000000
_cell_angle_gamma   120.00000000
_symmetry_Int_Tables_number   1
_chemical_formula_structural   NaGa3Te5
_chemical_formula_sum   'Na12 Ga36 Te60'
_cell_volume   3500.41819699
_cell_formula_units_Z   12
loop_
 _symmetry_equiv_pos_site_id
 _symmetry_equiv_pos_as_xyz
  1  'x, y, z'
loop_
 _atom_site_type_symbol
 _atom_site_label
 _atom_site_symmetry_multiplicity
 _atom_site_fract_x
 _atom_site_fract_y
 _atom_site_fract_z
 _atom_site_occupancy
  Na  Na0  1  0.66666667  0.07697533  0.33333333  1
  Na  Na1  1  0.92302467  0.58969133  0.33333333  1
  Na  Na2  1  0.41030867  0.33333333  0.33333333  1
  Na  Na3  1  0.00000000  0.00000000  0.50000000  1
  Na  Na4  1  0.33333333  0.41030867  0.66666667  1
  Na  Na5  1  0.58969133  0.92302467  0.66666667  1
  Na  Na6  1  0.07697533  0.66666667  0.66666667  1
  Na  Na7  1  0.66666667  0.33333333  0.83333333  1
  Na  Na8  1  0.00000000  0.74364200  0.00000000  1
  Na  Na9  1  0.25635800  0.25635800  0.00000000  1
  Na  Na10  1  0.74364200  0.00000000  0.00000000  1
  Na  Na11  1  0.33333333  0.66666667  0.16666667  1
  Ga  Ga12  1  0.11467667  0.92482933  0.76337133  1
  Ga  Ga13  1  0.07517067  0.18984733  0.76337133  1
  Ga  Ga14  1  0.81015267  0.88532333  0.76337133  1
  Ga  Ga15  1  0.18984733  0.07517067  0.23662867  1
  Ga  Ga16  1  0.92482933  0.11467667  0.23662867  1
  Ga  Ga17  1  0.88532333  0.81015267  0.23662867  1
  Ga  Ga18  1  0.74708033  0.67143767  0.41853767  1
  Ga  Ga19  1  0.32856233  0.07564267  0.41853767  1
  Ga  Ga20  1  0.92435733  0.25291967  0.41853767  1
  Ga  Ga21  1  0.07564267  0.32856233  0.58146233  1
  Ga  Ga22  1  0.67143767  0.74708033  0.58146233  1
  Ga  Ga23  1  0.25291967  0.92435733  0.58146233  1
  Ga  Ga24  1  0.78134333  0.25816267  0.09670467  1
  Ga  Ga25  1  0.74183733  0.52318067  0.09670467  1
  Ga  Ga26  1  0.47681933  0.21865667  0.09670467  1
  Ga  Ga27  1  0.85651400  0.40850400  0.56996200  1
  Ga  Ga28  1  0.59149600  0.44801000  0.56996200  1
  Ga  Ga29  1  0.55199000  0.14348600  0.56996200  1
  Ga  Ga30  1  0.41374700  0.00477100  0.75187100  1
  Ga  Ga31  1  0.99522900  0.40897600  0.75187100  1
  Ga  Ga32  1  0.59102400  0.58625300  0.75187100  1
  Ga  Ga33  1  0.74230933  0.66189567  0.91479567  1
  Ga  Ga34  1  0.33810433  0.08041367  0.91479567  1
  Ga  Ga35  1  0.91958633  0.25769067  0.91479567  1
  Ga  Ga36  1  0.44801000  0.59149600  0.43003800  1
  Ga  Ga37  1  0.40850400  0.85651400  0.43003800  1
  Ga  Ga38  1  0.14348600  0.55199000  0.43003800  1
  Ga  Ga39  1  0.52318067  0.74183733  0.90329533  1
  Ga  Ga40  1  0.25816267  0.78134333  0.90329533  1
  Ga  Ga41  1  0.21865667  0.47681933  0.90329533  1
  Ga  Ga42  1  0.08041367  0.33810433  0.08520433  1
  Ga  Ga43  1  0.66189567  0.74230933  0.08520433  1
  Ga  Ga44  1  0.25769067  0.91958633  0.08520433  1
  Ga  Ga45  1  0.40897600  0.99522900  0.24812900  1
  Ga  Ga46  1  0.00477100  0.41374700  0.24812900  1
  Ga  Ga47  1  0.58625300  0.59102400  0.24812900  1
  Te  Te48  1  0.49312867  0.15979533  0.33333333  1
  Te  Te49  1  0.66666667  0.50687133  0.33333333  1
  Te  Te50  1  0.00000000  0.00000000  0.17253200  1
  Te  Te51  1  0.00000000  0.00000000  0.82746800  1
  Te  Te52  1  0.84020467  0.33333333  0.33333333  1
  Te  Te53  1  0.00000000  0.57715500  0.50000000  1
  Te  Te54  1  0.42284500  0.42284500  0.50000000  1
  Te  Te55  1  0.57715500  0.00000000  0.50000000  1
  Te  Te56  1  0.06437433  0.87270367  0.62246867  1
  Te  Te57  1  0.12729633  0.19167067  0.62246867  1
  Te  Te58  1  0.80832933  0.93562567  0.62246867  1
  Te  Te59  1  0.19167067  0.12729633  0.37753133  1
  Te  Te60  1  0.87270367  0.06437433  0.37753133  1
  Te  Te61  1  0.93562567  0.80832933  0.37753133  1
  Te  Te62  1  0.63229133  0.76426067  0.43765967  1
  Te  Te63  1  0.23573933  0.86803067  0.43765967  1
  Te  Te64  1  0.13196933  0.36770867  0.43765967  1
  Te  Te65  1  0.86803067  0.23573933  0.56234033  1
  Te  Te66  1  0.76426067  0.63229133  0.56234033  1
  Te  Te67  1  0.36770867  0.13196933  0.56234033  1
  Te  Te68  1  0.15979533  0.49312867  0.66666667  1
  Te  Te69  1  0.33333333  0.84020467  0.66666667  1
  Te  Te70  1  0.66666667  0.33333333  0.50586533  1
  Te  Te71  1  0.66666667  0.33333333  0.16080133  1
  Te  Te72  1  0.50687133  0.66666667  0.66666667  1
  Te  Te73  1  0.66666667  0.91048833  0.83333333  1
  Te  Te74  1  0.08951167  0.75617833  0.83333333  1
  Te  Te75  1  0.24382167  0.33333333  0.83333333  1
  Te  Te76  1  0.73104100  0.20603700  0.95580200  1
  Te  Te77  1  0.79396300  0.52500400  0.95580200  1
  Te  Te78  1  0.47499600  0.26895900  0.95580200  1
  Te  Te79  1  0.85833733  0.46062967  0.71086467  1
  Te  Te80  1  0.53937033  0.39770767  0.71086467  1
  Te  Te81  1  0.60229233  0.14166267  0.71086467  1
  Te  Te82  1  0.29895800  0.09759400  0.77099300  1
  Te  Te83  1  0.90240600  0.20136400  0.77099300  1
  Te  Te84  1  0.79863600  0.70104200  0.77099300  1
  Te  Te85  1  0.53469733  0.56907267  0.89567367  1
  Te  Te86  1  0.43092733  0.96562467  0.89567367  1
  Te  Te87  1  0.03437533  0.46530267  0.89567367  1
  Te  Te88  1  0.82646200  0.82646200  0.00000000  1
  Te  Te89  1  0.00000000  0.17353800  0.00000000  1
  Te  Te90  1  0.33333333  0.66666667  0.83919867  1
  Te  Te91  1  0.33333333  0.66666667  0.49413467  1
  Te  Te92  1  0.17353800  0.00000000  0.00000000  1
  Te  Te93  1  0.33333333  0.24382167  0.16666667  1
  Te  Te94  1  0.75617833  0.08951167  0.16666667  1
  Te  Te95  1  0.91048833  0.66666667  0.16666667  1
  Te  Te96  1  0.39770767  0.53937033  0.28913533  1
  Te  Te97  1  0.46062967  0.85833733  0.28913533  1
  Te  Te98  1  0.14166267  0.60229233  0.28913533  1
  Te  Te99  1  0.52500400  0.79396300  0.04419800  1
  Te  Te100  1  0.20603700  0.73104100  0.04419800  1
  Te  Te101  1  0.26895900  0.47499600  0.04419800  1
  Te  Te102  1  0.96562467  0.43092733  0.10432633  1
  Te  Te103  1  0.56907267  0.53469733  0.10432633  1
  Te  Te104  1  0.46530267  0.03437533  0.10432633  1
  Te  Te105  1  0.20136400  0.90240600  0.22900700  1
  Te  Te106  1  0.09759400  0.29895800  0.22900700  1
  Te  Te107  1  0.70104200  0.79863600  0.22900700  1
