# generated using pymatgen
data_La3Si2S8I
_symmetry_space_group_name_H-M   'P 1'
_cell_length_a   16.21600800
_cell_length_b   7.98277000
_cell_length_c   10.98758547
_cell_angle_alpha   90.00000000
_cell_angle_beta   97.92955261
_cell_angle_gamma   90.00000000
_symmetry_Int_Tables_number   1
_chemical_formula_structural   La3Si2S8I
_chemical_formula_sum   'La12 Si8 S32 I4'
_cell_volume   1408.72856131
_cell_formula_units_Z   4
loop_
 _symmetry_equiv_pos_site_id
 _symmetry_equiv_pos_as_xyz
  1  'x, y, z'
loop_
 _atom_site_type_symbol
 _atom_site_label
 _atom_site_symmetry_multiplicity
 _atom_site_fract_x
 _atom_site_fract_y
 _atom_site_fract_z
 _atom_site_occupancy
  La  La0  1  0.00000000  0.40588100  0.75000000  1
  La  La1  1  0.00000000  0.59411900  0.25000000  1
  La  La2  1  0.80206050  0.87889650  0.81961100  1
  La  La3  1  0.69793950  0.37889650  0.68038900  1
  La  La4  1  0.69793950  0.62110350  0.18038900  1
  La  La5  1  0.80206050  0.12110350  0.31961100  1
  La  La6  1  0.50000000  0.90588100  0.75000000  1
  La  La7  1  0.50000000  0.09411900  0.25000000  1
  La  La8  1  0.30206050  0.37889650  0.81961100  1
  La  La9  1  0.19793950  0.87889650  0.68038900  1
  La  La10  1  0.19793950  0.12110350  0.18038900  1
  La  La11  1  0.30206050  0.62110350  0.31961100  1
  Si  Si12  1  0.65981100  0.96312900  0.53015100  1
  Si  Si13  1  0.84018900  0.53687100  0.46984900  1
  Si  Si14  1  0.65981100  0.03687100  0.03015100  1
  Si  Si15  1  0.84018900  0.46312900  0.96984900  1
  Si  Si16  1  0.15981100  0.46312900  0.53015100  1
  Si  Si17  1  0.34018900  0.03687100  0.46984900  1
  Si  Si18  1  0.15981100  0.53687100  0.03015100  1
  Si  Si19  1  0.34018900  0.96312900  0.96984900  1
  S  S20  1  0.93086350  0.34831050  0.45645200  1
  S  S21  1  0.56913650  0.84831050  0.04354800  1
  S  S22  1  0.56913650  0.15168950  0.54354800  1
  S  S23  1  0.93086350  0.65168950  0.95645200  1
  S  S24  1  0.84977350  0.39993850  0.15936800  1
  S  S25  1  0.84977350  0.60006150  0.65936800  1
  S  S26  1  0.65022650  0.89993850  0.34063200  1
  S  S27  1  0.65022650  0.10006150  0.84063200  1
  S  S28  1  0.85499900  0.25778200  0.85211600  1
  S  S29  1  0.64500100  0.75778200  0.64788400  1
  S  S30  1  0.64500100  0.24221800  0.14788400  1
  S  S31  1  0.85499900  0.74221800  0.35211600  1
  S  S32  1  0.71949950  0.56889250  0.91409100  1
  S  S33  1  0.78050050  0.06889250  0.58590900  1
  S  S34  1  0.78050050  0.93110750  0.08590900  1
  S  S35  1  0.71949950  0.43110750  0.41409100  1
  S  S36  1  0.43086350  0.84831050  0.45645200  1
  S  S37  1  0.06913650  0.34831050  0.04354800  1
  S  S38  1  0.06913650  0.65168950  0.54354800  1
  S  S39  1  0.43086350  0.15168950  0.95645200  1
  S  S40  1  0.34977350  0.89993850  0.15936800  1
  S  S41  1  0.34977350  0.10006150  0.65936800  1
  S  S42  1  0.15022650  0.39993850  0.34063200  1
  S  S43  1  0.15022650  0.60006150  0.84063200  1
  S  S44  1  0.35499900  0.75778200  0.85211600  1
  S  S45  1  0.14500100  0.25778200  0.64788400  1
  S  S46  1  0.14500100  0.74221800  0.14788400  1
  S  S47  1  0.35499900  0.24221800  0.35211600  1
  S  S48  1  0.21949950  0.06889250  0.91409100  1
  S  S49  1  0.28050050  0.56889250  0.58590900  1
  S  S50  1  0.28050050  0.43110750  0.08590900  1
  S  S51  1  0.21949950  0.93110750  0.41409100  1
  I  I52  1  0.00000000  0.01319200  0.25000000  1
  I  I53  1  0.00000000  0.98680800  0.75000000  1
  I  I54  1  0.50000000  0.51319200  0.25000000  1
  I  I55  1  0.50000000  0.48680800  0.75000000  1
