# generated using pymatgen
data_K2MgCl4
_symmetry_space_group_name_H-M   'P 1'
_cell_length_a   5.00544400
_cell_length_b   5.00544400
_cell_length_c   15.76037400
_cell_angle_alpha   90.00000000
_cell_angle_beta   90.00000000
_cell_angle_gamma   90.00000000
_symmetry_Int_Tables_number   1
_chemical_formula_structural   K2MgCl4
_chemical_formula_sum   'K4 Mg2 Cl8'
_cell_volume   394.86781185
_cell_formula_units_Z   2
loop_
 _symmetry_equiv_pos_site_id
 _symmetry_equiv_pos_as_xyz
  1  'x, y, z'
loop_
 _atom_site_type_symbol
 _atom_site_label
 _atom_site_symmetry_multiplicity
 _atom_site_fract_x
 _atom_site_fract_y
 _atom_site_fract_z
 _atom_site_occupancy
  K  K0  1  0.50000000  0.50000000  0.14262000  1
  K  K1  1  0.00000000  0.00000000  0.35738000  1
  K  K2  1  0.00000000  0.00000000  0.64262000  1
  K  K3  1  0.50000000  0.50000000  0.85738000  1
  Mg  Mg4  1  0.00000000  0.00000000  0.00000000  1
  Mg  Mg5  1  0.50000000  0.50000000  0.50000000  1
  Cl  Cl6  1  0.50000000  0.50000000  0.34055000  1
  Cl  Cl7  1  0.00000000  0.00000000  0.15945000  1
  Cl  Cl8  1  0.00000000  0.50000000  0.00000000  1
  Cl  Cl9  1  0.50000000  0.00000000  0.00000000  1
  Cl  Cl10  1  0.00000000  0.00000000  0.84055000  1
  Cl  Cl11  1  0.50000000  0.50000000  0.65945000  1
  Cl  Cl12  1  0.50000000  0.00000000  0.50000000  1
  Cl  Cl13  1  0.00000000  0.50000000  0.50000000  1
