# generated using pymatgen
data_Rb3Ge2Br7
_symmetry_space_group_name_H-M   'P 1'
_cell_length_a   10.41361600
_cell_length_b   13.03604800
_cell_length_c   13.50915094
_cell_angle_alpha   90.00000000
_cell_angle_beta   101.95312568
_cell_angle_gamma   90.00000000
_symmetry_Int_Tables_number   1
_chemical_formula_structural   Rb3Ge2Br7
_chemical_formula_sum   'Rb12 Ge8 Br28'
_cell_volume   1794.13586568
_cell_formula_units_Z   4
loop_
 _symmetry_equiv_pos_site_id
 _symmetry_equiv_pos_as_xyz
  1  'x, y, z'
loop_
 _atom_site_type_symbol
 _atom_site_label
 _atom_site_symmetry_multiplicity
 _atom_site_fract_x
 _atom_site_fract_y
 _atom_site_fract_z
 _atom_site_occupancy
  Rb  Rb0  1  0.95051800  0.17727600  0.53351000  1
  Rb  Rb1  1  0.61180900  0.30729000  0.69178600  1
  Rb  Rb2  1  0.38819100  0.80729000  0.80821400  1
  Rb  Rb3  1  0.38819100  0.69271000  0.30821400  1
  Rb  Rb4  1  0.61180900  0.19271000  0.19178600  1
  Rb  Rb5  1  0.27481300  0.18455500  0.85988300  1
  Rb  Rb6  1  0.72518700  0.68455500  0.64011700  1
  Rb  Rb7  1  0.72518700  0.81544500  0.14011700  1
  Rb  Rb8  1  0.27481300  0.31544500  0.35988300  1
  Rb  Rb9  1  0.95051800  0.32272400  0.03351000  1
  Rb  Rb10  1  0.04948200  0.82272400  0.46649000  1
  Rb  Rb11  1  0.04948200  0.67727600  0.96649000  1
  Ge  Ge12  1  0.35593600  0.04935100  0.56883400  1
  Ge  Ge13  1  0.64406400  0.54935100  0.93116600  1
  Ge  Ge14  1  0.64406400  0.95064900  0.43116600  1
  Ge  Ge15  1  0.35593600  0.45064900  0.06883400  1
  Ge  Ge16  1  0.81493600  0.01045400  0.85506200  1
  Ge  Ge17  1  0.18506400  0.51045400  0.64493800  1
  Ge  Ge18  1  0.18506400  0.98954600  0.14493800  1
  Ge  Ge19  1  0.81493600  0.48954600  0.35506200  1
  Br  Br20  1  0.83456200  0.44051500  0.54138600  1
  Br  Br21  1  0.27793100  0.22564900  0.11334800  1
  Br  Br22  1  0.72206900  0.72564900  0.38665200  1
  Br  Br23  1  0.72206900  0.77435100  0.88665200  1
  Br  Br24  1  0.27793100  0.27435100  0.61334800  1
  Br  Br25  1  0.91095200  0.31600000  0.30101600  1
  Br  Br26  1  0.08904800  0.81600000  0.19898400  1
  Br  Br27  1  0.08904800  0.68400000  0.69898400  1
  Br  Br28  1  0.91095200  0.18400000  0.80101600  1
  Br  Br29  1  0.18470800  0.99508500  0.67254700  1
  Br  Br30  1  0.16543800  0.94051500  0.95861400  1
  Br  Br31  1  0.16543800  0.55948500  0.45861400  1
  Br  Br32  1  0.80917700  0.94062000  0.59955800  1
  Br  Br33  1  0.19082300  0.44062000  0.90044200  1
  Br  Br34  1  0.19082300  0.05938000  0.40044200  1
  Br  Br35  1  0.80917700  0.55938000  0.09955800  1
  Br  Br36  1  0.41489700  0.84956000  0.54231600  1
  Br  Br37  1  0.81529200  0.49508500  0.82745300  1
  Br  Br38  1  0.81529200  0.00491500  0.32745300  1
  Br  Br39  1  0.18470800  0.50491500  0.17254700  1
  Br  Br40  1  0.57126500  0.44054400  0.30156700  1
  Br  Br41  1  0.58510300  0.34956000  0.95768400  1
  Br  Br42  1  0.58510300  0.15044000  0.45768400  1
  Br  Br43  1  0.41489700  0.65044000  0.04231600  1
  Br  Br44  1  0.57126500  0.05945600  0.80156700  1
  Br  Br45  1  0.42873500  0.55945600  0.69843300  1
  Br  Br46  1  0.42873500  0.94054400  0.19843300  1
  Br  Br47  1  0.83456200  0.05948500  0.04138600  1
