# generated using pymatgen
data_K3B6BrO10
_symmetry_space_group_name_H-M   'P 1'
_cell_length_a   10.21588756
_cell_length_b   10.21588756
_cell_length_c   9.05908415
_cell_angle_alpha   90.00000000
_cell_angle_beta   90.00000000
_cell_angle_gamma   120.00000000
_symmetry_Int_Tables_number   1
_chemical_formula_structural   K3B6BrO10
_chemical_formula_sum   'K9 B18 Br3 O30'
_cell_volume   818.77982677
_cell_formula_units_Z   3
loop_
 _symmetry_equiv_pos_site_id
 _symmetry_equiv_pos_as_xyz
  1  'x, y, z'
loop_
 _atom_site_type_symbol
 _atom_site_label
 _atom_site_symmetry_multiplicity
 _atom_site_fract_x
 _atom_site_fract_y
 _atom_site_fract_z
 _atom_site_occupancy
  K  K0  1  0.15270967  0.84729033  0.77725133  1
  K  K1  1  0.69458067  0.84729033  0.77725133  1
  K  K2  1  0.15270967  0.30541933  0.77725133  1
  K  K3  1  0.81937633  0.18062367  0.11058467  1
  K  K4  1  0.36124733  0.18062367  0.11058467  1
  K  K5  1  0.81937633  0.63875267  0.11058467  1
  K  K6  1  0.48604300  0.51395700  0.44391800  1
  K  K7  1  0.02791400  0.51395700  0.44391800  1
  K  K8  1  0.48604300  0.97208600  0.44391800  1
  B  B9  1  0.91254800  0.08745200  0.44627400  1
  B  B10  1  0.17490400  0.08745200  0.44627400  1
  B  B11  1  0.91254800  0.82509600  0.44627400  1
  B  B12  1  0.70192733  0.85096367  0.32928167  1
  B  B13  1  0.14903633  0.85096367  0.32928167  1
  B  B14  1  0.14903633  0.29807267  0.32928167  1
  B  B15  1  0.57921467  0.42078533  0.77960733  1
  B  B16  1  0.84157067  0.42078533  0.77960733  1
  B  B17  1  0.57921467  0.15842933  0.77960733  1
  B  B18  1  0.36859400  0.18429700  0.66261500  1
  B  B19  1  0.81570300  0.18429700  0.66261500  1
  B  B20  1  0.81570300  0.63140600  0.66261500  1
  B  B21  1  0.24588133  0.75411867  0.11294067  1
  B  B22  1  0.50823733  0.75411867  0.11294067  1
  B  B23  1  0.24588133  0.49176267  0.11294067  1
  B  B24  1  0.03526067  0.51763033  0.99594833  1
  B  B25  1  0.48236967  0.51763033  0.99594833  1
  B  B26  1  0.48236967  0.96473933  0.99594833  1
  Br  Br27  1  0.00000000  0.00000000  0.99464800  1
  Br  Br28  1  0.66666667  0.33333333  0.32798133  1
  Br  Br29  1  0.33333333  0.66666667  0.66131467  1
  O  O30  1  0.88697800  0.77395600  0.59978200  1
  O  O31  1  0.00000000  0.00000000  0.44321500  1
  O  O32  1  0.22604400  0.11302200  0.59978200  1
  O  O33  1  0.88697800  0.11302200  0.59978200  1
  O  O34  1  0.99913233  0.23201567  0.36712867  1
  O  O35  1  0.76798433  0.76711667  0.36712867  1
  O  O36  1  0.23288333  0.00086767  0.36712867  1
  O  O37  1  0.76798433  0.00086767  0.36712867  1
  O  O38  1  0.99913233  0.76711667  0.36712867  1
  O  O39  1  0.23288333  0.23201567  0.36712867  1
  O  O40  1  0.55364467  0.10728933  0.93311533  1
  O  O41  1  0.66666667  0.33333333  0.77654833  1
  O  O42  1  0.89271067  0.44635533  0.93311533  1
  O  O43  1  0.55364467  0.44635533  0.93311533  1
  O  O44  1  0.66579900  0.56534900  0.70046200  1
  O  O45  1  0.43465100  0.10045000  0.70046200  1
  O  O46  1  0.89955000  0.33420100  0.70046200  1
  O  O47  1  0.43465100  0.33420100  0.70046200  1
  O  O48  1  0.66579900  0.10045000  0.70046200  1
  O  O49  1  0.89955000  0.56534900  0.70046200  1
  O  O50  1  0.22031133  0.44062267  0.26644867  1
  O  O51  1  0.33333333  0.66666667  0.10988167  1
  O  O52  1  0.55937733  0.77968867  0.26644867  1
  O  O53  1  0.22031133  0.77968867  0.26644867  1
  O  O54  1  0.33246567  0.89868233  0.03379533  1
  O  O55  1  0.10131767  0.43378333  0.03379533  1
  O  O56  1  0.56621667  0.66753433  0.03379533  1
  O  O57  1  0.10131767  0.66753433  0.03379533  1
  O  O58  1  0.33246567  0.43378333  0.03379533  1
  O  O59  1  0.56621667  0.89868233  0.03379533  1
