# generated using pymatgen
data_Na4Br2O
_symmetry_space_group_name_H-M   'P 1'
_cell_length_a   4.56260000
_cell_length_b   4.56260000
_cell_length_c   15.08872800
_cell_angle_alpha   90.00000000
_cell_angle_beta   90.00000000
_cell_angle_gamma   90.00000000
_symmetry_Int_Tables_number   1
_chemical_formula_structural   Na4Br2O
_chemical_formula_sum   'Na8 Br4 O2'
_cell_volume   314.10686046
_cell_formula_units_Z   2
loop_
 _symmetry_equiv_pos_site_id
 _symmetry_equiv_pos_as_xyz
  1  'x, y, z'
loop_
 _atom_site_type_symbol
 _atom_site_label
 _atom_site_symmetry_multiplicity
 _atom_site_fract_x
 _atom_site_fract_y
 _atom_site_fract_z
 _atom_site_occupancy
  Na  Na0  1  0.00000000  0.00000000  0.15204500  1
  Na  Na1  1  0.00000000  0.50000000  0.00000000  1
  Na  Na2  1  0.50000000  0.50000000  0.34795500  1
  Na  Na3  1  0.50000000  0.00000000  0.00000000  1
  Na  Na4  1  0.50000000  0.50000000  0.65204500  1
  Na  Na5  1  0.50000000  0.00000000  0.50000000  1
  Na  Na6  1  0.00000000  0.00000000  0.84795500  1
  Na  Na7  1  0.00000000  0.50000000  0.50000000  1
  Br  Br8  1  0.00000000  0.00000000  0.34857200  1
  Br  Br9  1  0.50000000  0.50000000  0.15142800  1
  Br  Br10  1  0.50000000  0.50000000  0.84857200  1
  Br  Br11  1  0.00000000  0.00000000  0.65142800  1
  O  O12  1  0.00000000  0.00000000  0.00000000  1
  O  O13  1  0.50000000  0.50000000  0.50000000  1
