# generated using pymatgen
data_Pd2Cl2O
_symmetry_space_group_name_H-M   'P 1'
_cell_length_a   6.47875600
_cell_length_b   6.47875600
_cell_length_c   10.04837400
_cell_angle_alpha   90.00000000
_cell_angle_beta   90.00000000
_cell_angle_gamma   90.00000000
_symmetry_Int_Tables_number   1
_chemical_formula_structural   Pd2Cl2O
_chemical_formula_sum   'Pd8 Cl8 O4'
_cell_volume   421.77325686
_cell_formula_units_Z   4
loop_
 _symmetry_equiv_pos_site_id
 _symmetry_equiv_pos_as_xyz
  1  'x, y, z'
loop_
 _atom_site_type_symbol
 _atom_site_label
 _atom_site_symmetry_multiplicity
 _atom_site_fract_x
 _atom_site_fract_y
 _atom_site_fract_z
 _atom_site_occupancy
  Pd  Pd0  1  0.00000000  0.25000000  0.12500000  1
  Pd  Pd1  1  0.75000000  0.50000000  0.37500000  1
  Pd  Pd2  1  0.25000000  0.50000000  0.37500000  1
  Pd  Pd3  1  0.00000000  0.75000000  0.12500000  1
  Pd  Pd4  1  0.50000000  0.75000000  0.62500000  1
  Pd  Pd5  1  0.25000000  0.00000000  0.87500000  1
  Pd  Pd6  1  0.75000000  0.00000000  0.87500000  1
  Pd  Pd7  1  0.50000000  0.25000000  0.62500000  1
  Cl  Cl8  1  0.50000000  0.50000000  0.20524500  1
  Cl  Cl9  1  0.50000000  0.00000000  0.45524500  1
  Cl  Cl10  1  0.00000000  0.00000000  0.29475500  1
  Cl  Cl11  1  0.50000000  0.00000000  0.04475500  1
  Cl  Cl12  1  0.00000000  0.00000000  0.70524500  1
  Cl  Cl13  1  0.00000000  0.50000000  0.95524500  1
  Cl  Cl14  1  0.50000000  0.50000000  0.79475500  1
  Cl  Cl15  1  0.00000000  0.50000000  0.54475500  1
  O  O16  1  0.00000000  0.00000000  0.00000000  1
  O  O17  1  0.00000000  0.50000000  0.25000000  1
  O  O18  1  0.50000000  0.50000000  0.50000000  1
  O  O19  1  0.50000000  0.00000000  0.75000000  1
