# generated using pymatgen
data_AgBi3S5
_symmetry_space_group_name_H-M   'P 1'
_cell_length_a   13.65939400
_cell_length_b   4.06071800
_cell_length_c   16.69662864
_cell_angle_alpha   90.00000000
_cell_angle_beta   95.50982553
_cell_angle_gamma   90.00000000
_symmetry_Int_Tables_number   1
_chemical_formula_structural   AgBi3S5
_chemical_formula_sum   'Ag4 Bi12 S20'
_cell_volume   921.83215054
_cell_formula_units_Z   4
loop_
 _symmetry_equiv_pos_site_id
 _symmetry_equiv_pos_as_xyz
  1  'x, y, z'
loop_
 _atom_site_type_symbol
 _atom_site_label
 _atom_site_symmetry_multiplicity
 _atom_site_fract_x
 _atom_site_fract_y
 _atom_site_fract_z
 _atom_site_occupancy
  Ag  Ag0  1  0.00000000  0.50000000  0.50000000  1
  Ag  Ag1  1  0.00000000  0.00000000  0.00000000  1
  Ag  Ag2  1  0.50000000  0.00000000  0.50000000  1
  Ag  Ag3  1  0.50000000  0.50000000  0.00000000  1
  Bi  Bi4  1  0.71977300  0.50000000  0.39394700  1
  Bi  Bi5  1  0.78022700  0.00000000  0.60605300  1
  Bi  Bi6  1  0.97445300  0.50000000  0.21702100  1
  Bi  Bi7  1  0.52554700  0.00000000  0.78297900  1
  Bi  Bi8  1  0.73652400  0.00000000  0.10882800  1
  Bi  Bi9  1  0.76347600  0.50000000  0.89117200  1
  Bi  Bi10  1  0.21977300  0.00000000  0.39394700  1
  Bi  Bi11  1  0.28022700  0.50000000  0.60605300  1
  Bi  Bi12  1  0.47445300  0.00000000  0.21702100  1
  Bi  Bi13  1  0.02554700  0.50000000  0.78297900  1
  Bi  Bi14  1  0.23652400  0.50000000  0.10882800  1
  Bi  Bi15  1  0.26347600  0.00000000  0.89117200  1
  S  S16  1  0.84878300  0.00000000  0.46541700  1
  S  S17  1  0.65121700  0.50000000  0.53458300  1
  S  S18  1  0.57586600  0.00000000  0.36416600  1
  S  S19  1  0.92413400  0.50000000  0.63583400  1
  S  S20  1  0.84621700  0.00000000  0.25576900  1
  S  S21  1  0.65378300  0.50000000  0.74423100  1
  S  S22  1  0.58919000  0.50000000  0.14059300  1
  S  S23  1  0.91081000  0.00000000  0.85940700  1
  S  S24  1  0.64637100  0.00000000  0.94246800  1
  S  S25  1  0.85362900  0.50000000  0.05753200  1
  S  S26  1  0.34878300  0.50000000  0.46541700  1
  S  S27  1  0.15121700  0.00000000  0.53458300  1
  S  S28  1  0.07586600  0.50000000  0.36416600  1
  S  S29  1  0.42413400  0.00000000  0.63583400  1
  S  S30  1  0.34621700  0.50000000  0.25576900  1
  S  S31  1  0.15378300  0.00000000  0.74423100  1
  S  S32  1  0.08919000  0.00000000  0.14059300  1
  S  S33  1  0.41081000  0.50000000  0.85940700  1
  S  S34  1  0.14637100  0.50000000  0.94246800  1
  S  S35  1  0.35362900  0.00000000  0.05753200  1
