# generated using pymatgen
data_Rb2PbO3
_symmetry_space_group_name_H-M   'P 1'
_cell_length_a   7.55211400
_cell_length_b   11.08566200
_cell_length_c   6.14073000
_cell_angle_alpha   90.00000000
_cell_angle_beta   90.00000000
_cell_angle_gamma   90.00000000
_symmetry_Int_Tables_number   1
_chemical_formula_structural   Rb2PbO3
_chemical_formula_sum   'Rb8 Pb4 O12'
_cell_volume   514.10304052
_cell_formula_units_Z   4
loop_
 _symmetry_equiv_pos_site_id
 _symmetry_equiv_pos_as_xyz
  1  'x, y, z'
loop_
 _atom_site_type_symbol
 _atom_site_label
 _atom_site_symmetry_multiplicity
 _atom_site_fract_x
 _atom_site_fract_y
 _atom_site_fract_z
 _atom_site_occupancy
  Rb  Rb0  1  0.35494400  0.16356500  0.74095600  1
  Rb  Rb1  1  0.64505600  0.16356500  0.24095600  1
  Rb  Rb2  1  0.64505600  0.83643500  0.24095600  1
  Rb  Rb3  1  0.35494400  0.83643500  0.74095600  1
  Rb  Rb4  1  0.85494400  0.66356500  0.74095600  1
  Rb  Rb5  1  0.14505600  0.66356500  0.24095600  1
  Rb  Rb6  1  0.14505600  0.33643500  0.24095600  1
  Rb  Rb7  1  0.85494400  0.33643500  0.74095600  1
  Pb  Pb8  1  0.09334400  0.00000000  0.26146300  1
  Pb  Pb9  1  0.90665600  0.00000000  0.76146300  1
  Pb  Pb10  1  0.59334400  0.50000000  0.26146300  1
  Pb  Pb11  1  0.40665600  0.50000000  0.76146300  1
  O  O12  1  0.36373500  0.00000000  0.30662700  1
  O  O13  1  0.63626500  0.00000000  0.80662700  1
  O  O14  1  0.51351300  0.63007100  0.00499900  1
  O  O15  1  0.48648700  0.36992900  0.50499900  1
  O  O16  1  0.51351300  0.36992900  0.00499900  1
  O  O17  1  0.48648700  0.63007100  0.50499900  1
  O  O18  1  0.86373500  0.50000000  0.30662700  1
  O  O19  1  0.13626500  0.50000000  0.80662700  1
  O  O20  1  0.01351300  0.13007100  0.00499900  1
  O  O21  1  0.98648700  0.86992900  0.50499900  1
  O  O22  1  0.01351300  0.86992900  0.00499900  1
  O  O23  1  0.98648700  0.13007100  0.50499900  1
