# generated using pymatgen
data_Sc2O3
_symmetry_space_group_name_H-M   'P 1'
_cell_length_a   9.92234200
_cell_length_b   9.92234200
_cell_length_c   9.92234200
_cell_angle_alpha   90.00000000
_cell_angle_beta   90.00000000
_cell_angle_gamma   90.00000000
_symmetry_Int_Tables_number   1
_chemical_formula_structural   Sc2O3
_chemical_formula_sum   'Sc32 O48'
_cell_volume   976.88305461
_cell_formula_units_Z   16
loop_
 _symmetry_equiv_pos_site_id
 _symmetry_equiv_pos_as_xyz
  1  'x, y, z'
loop_
 _atom_site_type_symbol
 _atom_site_label
 _atom_site_symmetry_multiplicity
 _atom_site_fract_x
 _atom_site_fract_y
 _atom_site_fract_z
 _atom_site_occupancy
  Sc  Sc0  1  0.00000000  0.50000000  0.00000000  1
  Sc  Sc1  1  0.00000000  0.00000000  0.50000000  1
  Sc  Sc2  1  0.50000000  0.00000000  0.00000000  1
  Sc  Sc3  1  0.00000000  0.00000000  0.00000000  1
  Sc  Sc4  1  0.75000000  0.28568000  0.50000000  1
  Sc  Sc5  1  0.25000000  0.21432000  0.50000000  1
  Sc  Sc6  1  0.28568000  0.50000000  0.75000000  1
  Sc  Sc7  1  0.21432000  0.50000000  0.25000000  1
  Sc  Sc8  1  0.50000000  0.75000000  0.28568000  1
  Sc  Sc9  1  0.50000000  0.25000000  0.21432000  1
  Sc  Sc10  1  0.75000000  0.21432000  0.00000000  1
  Sc  Sc11  1  0.25000000  0.28568000  0.00000000  1
  Sc  Sc12  1  0.21432000  0.00000000  0.75000000  1
  Sc  Sc13  1  0.28568000  0.00000000  0.25000000  1
  Sc  Sc14  1  0.00000000  0.75000000  0.21432000  1
  Sc  Sc15  1  0.00000000  0.25000000  0.28568000  1
  Sc  Sc16  1  0.50000000  0.00000000  0.50000000  1
  Sc  Sc17  1  0.50000000  0.50000000  0.00000000  1
  Sc  Sc18  1  0.00000000  0.50000000  0.50000000  1
  Sc  Sc19  1  0.50000000  0.50000000  0.50000000  1
  Sc  Sc20  1  0.25000000  0.78568000  0.00000000  1
  Sc  Sc21  1  0.75000000  0.71432000  0.00000000  1
  Sc  Sc22  1  0.78568000  0.00000000  0.25000000  1
  Sc  Sc23  1  0.71432000  0.00000000  0.75000000  1
  Sc  Sc24  1  0.00000000  0.25000000  0.78568000  1
  Sc  Sc25  1  0.00000000  0.75000000  0.71432000  1
  Sc  Sc26  1  0.25000000  0.71432000  0.50000000  1
  Sc  Sc27  1  0.75000000  0.78568000  0.50000000  1
  Sc  Sc28  1  0.71432000  0.50000000  0.25000000  1
  Sc  Sc29  1  0.78568000  0.50000000  0.75000000  1
  Sc  Sc30  1  0.50000000  0.25000000  0.71432000  1
  Sc  Sc31  1  0.50000000  0.75000000  0.78568000  1
  O  O32  1  0.09581950  0.35839350  0.13063250  1
  O  O33  1  0.40418050  0.35839350  0.86936750  1
  O  O34  1  0.59581950  0.14160650  0.86936750  1
  O  O35  1  0.90418050  0.14160650  0.13063250  1
  O  O36  1  0.35839350  0.13063250  0.09581950  1
  O  O37  1  0.35839350  0.86936750  0.40418050  1
  O  O38  1  0.14160650  0.86936750  0.59581950  1
  O  O39  1  0.14160650  0.13063250  0.90418050  1
  O  O40  1  0.13063250  0.09581950  0.35839350  1
  O  O41  1  0.86936750  0.40418050  0.35839350  1
  O  O42  1  0.86936750  0.59581950  0.14160650  1
  O  O43  1  0.13063250  0.90418050  0.14160650  1
  O  O44  1  0.40418050  0.14160650  0.36936750  1
  O  O45  1  0.09581950  0.14160650  0.63063250  1
  O  O46  1  0.90418050  0.35839350  0.63063250  1
  O  O47  1  0.59581950  0.35839350  0.36936750  1
  O  O48  1  0.14160650  0.36936750  0.40418050  1
  O  O49  1  0.14160650  0.63063250  0.09581950  1
  O  O50  1  0.35839350  0.63063250  0.90418050  1
  O  O51  1  0.35839350  0.36936750  0.59581950  1
  O  O52  1  0.36936750  0.40418050  0.14160650  1
  O  O53  1  0.63063250  0.09581950  0.14160650  1
  O  O54  1  0.63063250  0.90418050  0.35839350  1
  O  O55  1  0.36936750  0.59581950  0.35839350  1
  O  O56  1  0.59581950  0.85839350  0.63063250  1
  O  O57  1  0.90418050  0.85839350  0.36936750  1
  O  O58  1  0.09581950  0.64160650  0.36936750  1
  O  O59  1  0.40418050  0.64160650  0.63063250  1
  O  O60  1  0.85839350  0.63063250  0.59581950  1
  O  O61  1  0.85839350  0.36936750  0.90418050  1
  O  O62  1  0.64160650  0.36936750  0.09581950  1
  O  O63  1  0.64160650  0.63063250  0.40418050  1
  O  O64  1  0.63063250  0.59581950  0.85839350  1
  O  O65  1  0.36936750  0.90418050  0.85839350  1
  O  O66  1  0.36936750  0.09581950  0.64160650  1
  O  O67  1  0.63063250  0.40418050  0.64160650  1
  O  O68  1  0.90418050  0.64160650  0.86936750  1
  O  O69  1  0.59581950  0.64160650  0.13063250  1
  O  O70  1  0.40418050  0.85839350  0.13063250  1
  O  O71  1  0.09581950  0.85839350  0.86936750  1
  O  O72  1  0.64160650  0.86936750  0.90418050  1
  O  O73  1  0.64160650  0.13063250  0.59581950  1
  O  O74  1  0.85839350  0.13063250  0.40418050  1
  O  O75  1  0.85839350  0.86936750  0.09581950  1
  O  O76  1  0.86936750  0.90418050  0.64160650  1
  O  O77  1  0.13063250  0.59581950  0.64160650  1
  O  O78  1  0.13063250  0.40418050  0.85839350  1
  O  O79  1  0.86936750  0.09581950  0.85839350  1
