# generated using pymatgen
data_Cs(BH)6
_symmetry_space_group_name_H-M   'P 1'
_cell_length_a   11.41901400
_cell_length_b   11.41901400
_cell_length_c   11.41901400
_cell_angle_alpha   90.00000000
_cell_angle_beta   90.00000000
_cell_angle_gamma   90.00000000
_symmetry_Int_Tables_number   1
_chemical_formula_structural   Cs(BH)6
_chemical_formula_sum   'Cs8 B48 H48'
_cell_volume   1488.96954960
_cell_formula_units_Z   8
loop_
 _symmetry_equiv_pos_site_id
 _symmetry_equiv_pos_as_xyz
  1  'x, y, z'
loop_
 _atom_site_type_symbol
 _atom_site_label
 _atom_site_symmetry_multiplicity
 _atom_site_fract_x
 _atom_site_fract_y
 _atom_site_fract_z
 _atom_site_occupancy
  Cs  Cs0  1  0.25000000  0.25000000  0.25000000  1
  Cs  Cs1  1  0.25000000  0.25000000  0.75000000  1
  Cs  Cs2  1  0.25000000  0.75000000  0.75000000  1
  Cs  Cs3  1  0.25000000  0.75000000  0.25000000  1
  Cs  Cs4  1  0.75000000  0.25000000  0.75000000  1
  Cs  Cs5  1  0.75000000  0.25000000  0.25000000  1
  Cs  Cs6  1  0.75000000  0.75000000  0.25000000  1
  Cs  Cs7  1  0.75000000  0.75000000  0.75000000  1
  B  B8  1  0.92218200  0.12615300  0.00000000  1
  B  B9  1  0.07781800  0.12615300  0.00000000  1
  B  B10  1  0.12615300  0.00000000  0.92218200  1
  B  B11  1  0.50000000  0.07781800  0.37384700  1
  B  B12  1  0.87384700  0.00000000  0.07781800  1
  B  B13  1  0.87384700  0.00000000  0.92218200  1
  B  B14  1  0.50000000  0.07781800  0.62615300  1
  B  B15  1  0.00000000  0.42218200  0.62615300  1
  B  B16  1  0.12615300  0.00000000  0.07781800  1
  B  B17  1  0.57781800  0.37384700  0.00000000  1
  B  B18  1  0.42218200  0.37384700  0.00000000  1
  B  B19  1  0.00000000  0.42218200  0.37384700  1
  B  B20  1  0.92218200  0.62615300  0.50000000  1
  B  B21  1  0.07781800  0.62615300  0.50000000  1
  B  B22  1  0.12615300  0.50000000  0.42218200  1
  B  B23  1  0.50000000  0.57781800  0.87384700  1
  B  B24  1  0.87384700  0.50000000  0.57781800  1
  B  B25  1  0.87384700  0.50000000  0.42218200  1
  B  B26  1  0.50000000  0.57781800  0.12615300  1
  B  B27  1  0.00000000  0.92218200  0.12615300  1
  B  B28  1  0.12615300  0.50000000  0.57781800  1
  B  B29  1  0.57781800  0.87384700  0.50000000  1
  B  B30  1  0.42218200  0.87384700  0.50000000  1
  B  B31  1  0.00000000  0.92218200  0.87384700  1
  B  B32  1  0.42218200  0.12615300  0.50000000  1
  B  B33  1  0.57781800  0.12615300  0.50000000  1
  B  B34  1  0.62615300  0.00000000  0.42218200  1
  B  B35  1  0.00000000  0.07781800  0.87384700  1
  B  B36  1  0.37384700  0.00000000  0.57781800  1
  B  B37  1  0.37384700  0.00000000  0.42218200  1
  B  B38  1  0.00000000  0.07781800  0.12615300  1
  B  B39  1  0.50000000  0.42218200  0.12615300  1
  B  B40  1  0.62615300  0.00000000  0.57781800  1
  B  B41  1  0.07781800  0.37384700  0.50000000  1
  B  B42  1  0.92218200  0.37384700  0.50000000  1
  B  B43  1  0.50000000  0.42218200  0.87384700  1
  B  B44  1  0.42218200  0.62615300  0.00000000  1
  B  B45  1  0.57781800  0.62615300  0.00000000  1
  B  B46  1  0.62615300  0.50000000  0.92218200  1
  B  B47  1  0.00000000  0.57781800  0.37384700  1
  B  B48  1  0.37384700  0.50000000  0.07781800  1
  B  B49  1  0.37384700  0.50000000  0.92218200  1
  B  B50  1  0.00000000  0.57781800  0.62615300  1
  B  B51  1  0.50000000  0.92218200  0.62615300  1
  B  B52  1  0.62615300  0.50000000  0.07781800  1
  B  B53  1  0.07781800  0.87384700  0.00000000  1
  B  B54  1  0.92218200  0.87384700  0.00000000  1
  B  B55  1  0.50000000  0.92218200  0.37384700  1
  H  H56  1  0.13270850  0.21629350  0.00000000  1
  H  H57  1  0.86729150  0.21629350  0.00000000  1
  H  H58  1  0.21629350  0.00000000  0.86729150  1
  H  H59  1  0.50000000  0.13270850  0.28370650  1
  H  H60  1  0.78370650  0.00000000  0.13270850  1
  H  H61  1  0.78370650  0.00000000  0.86729150  1
  H  H62  1  0.50000000  0.13270850  0.71629350  1
  H  H63  1  0.00000000  0.36729150  0.71629350  1
  H  H64  1  0.21629350  0.00000000  0.13270850  1
  H  H65  1  0.63270850  0.28370650  0.00000000  1
  H  H66  1  0.36729150  0.28370650  0.00000000  1
  H  H67  1  0.00000000  0.36729150  0.28370650  1
  H  H68  1  0.13270850  0.71629350  0.50000000  1
  H  H69  1  0.86729150  0.71629350  0.50000000  1
  H  H70  1  0.21629350  0.50000000  0.36729150  1
  H  H71  1  0.50000000  0.63270850  0.78370650  1
  H  H72  1  0.78370650  0.50000000  0.63270850  1
  H  H73  1  0.78370650  0.50000000  0.36729150  1
  H  H74  1  0.50000000  0.63270850  0.21629350  1
  H  H75  1  0.00000000  0.86729150  0.21629350  1
  H  H76  1  0.21629350  0.50000000  0.63270850  1
  H  H77  1  0.63270850  0.78370650  0.50000000  1
  H  H78  1  0.36729150  0.78370650  0.50000000  1
  H  H79  1  0.00000000  0.86729150  0.78370650  1
  H  H80  1  0.63270850  0.21629350  0.50000000  1
  H  H81  1  0.36729150  0.21629350  0.50000000  1
  H  H82  1  0.71629350  0.00000000  0.36729150  1
  H  H83  1  0.00000000  0.13270850  0.78370650  1
  H  H84  1  0.28370650  0.00000000  0.63270850  1
  H  H85  1  0.28370650  0.00000000  0.36729150  1
  H  H86  1  0.00000000  0.13270850  0.21629350  1
  H  H87  1  0.50000000  0.36729150  0.21629350  1
  H  H88  1  0.71629350  0.00000000  0.63270850  1
  H  H89  1  0.13270850  0.28370650  0.50000000  1
  H  H90  1  0.86729150  0.28370650  0.50000000  1
  H  H91  1  0.50000000  0.36729150  0.78370650  1
  H  H92  1  0.63270850  0.71629350  0.00000000  1
  H  H93  1  0.36729150  0.71629350  0.00000000  1
  H  H94  1  0.71629350  0.50000000  0.86729150  1
  H  H95  1  0.00000000  0.63270850  0.28370650  1
  H  H96  1  0.28370650  0.50000000  0.13270850  1
  H  H97  1  0.28370650  0.50000000  0.86729150  1
  H  H98  1  0.00000000  0.63270850  0.71629350  1
  H  H99  1  0.50000000  0.86729150  0.71629350  1
  H  H100  1  0.71629350  0.50000000  0.13270850  1
  H  H101  1  0.13270850  0.78370650  0.00000000  1
  H  H102  1  0.86729150  0.78370650  0.00000000  1
  H  H103  1  0.50000000  0.86729150  0.28370650  1
