# generated using pymatgen
data_Si2Hg6O7
_symmetry_space_group_name_H-M   'P 1'
_cell_length_a   11.96903000
_cell_length_b   7.90744000
_cell_length_c   6.24849348
_cell_angle_alpha   90.00000000
_cell_angle_beta   112.09415261
_cell_angle_gamma   90.00000000
_symmetry_Int_Tables_number   1
_chemical_formula_structural   Si2Hg6O7
_chemical_formula_sum   'Si4 Hg12 O14'
_cell_volume   547.95768349
_cell_formula_units_Z   2
loop_
 _symmetry_equiv_pos_site_id
 _symmetry_equiv_pos_as_xyz
  1  'x, y, z'
loop_
 _atom_site_type_symbol
 _atom_site_label
 _atom_site_symmetry_multiplicity
 _atom_site_fract_x
 _atom_site_fract_y
 _atom_site_fract_z
 _atom_site_occupancy
  Si  Si0  1  0.64733000  0.00000000  0.10546800  1
  Si  Si1  1  0.35267000  0.00000000  0.89453200  1
  Si  Si2  1  0.14733000  0.50000000  0.10546800  1
  Si  Si3  1  0.85267000  0.50000000  0.89453200  1
  Hg  Hg4  1  0.38294500  0.25927800  0.41805100  1
  Hg  Hg5  1  0.61705500  0.25927800  0.58194900  1
  Hg  Hg6  1  0.61705500  0.74072200  0.58194900  1
  Hg  Hg7  1  0.38294500  0.74072200  0.41805100  1
  Hg  Hg8  1  0.11490400  0.00000000  0.04186800  1
  Hg  Hg9  1  0.88509600  0.00000000  0.95813200  1
  Hg  Hg10  1  0.88294500  0.75927800  0.41805100  1
  Hg  Hg11  1  0.11705500  0.75927800  0.58194900  1
  Hg  Hg12  1  0.11705500  0.24072200  0.58194900  1
  Hg  Hg13  1  0.88294500  0.24072200  0.41805100  1
  Hg  Hg14  1  0.61490400  0.50000000  0.04186800  1
  Hg  Hg15  1  0.38509600  0.50000000  0.95813200  1
  O  O16  1  0.50000000  0.00000000  0.00000000  1
  O  O17  1  0.69226050  0.82681350  0.26259600  1
  O  O18  1  0.30773950  0.82681350  0.73740400  1
  O  O19  1  0.30773950  0.17318650  0.73740400  1
  O  O20  1  0.69226050  0.17318650  0.26259600  1
  O  O21  1  0.30629500  0.00000000  0.11469800  1
  O  O22  1  0.69370500  0.00000000  0.88530200  1
  O  O23  1  0.00000000  0.50000000  0.00000000  1
  O  O24  1  0.19226050  0.32681350  0.26259600  1
  O  O25  1  0.80773950  0.32681350  0.73740400  1
  O  O26  1  0.80773950  0.67318650  0.73740400  1
  O  O27  1  0.19226050  0.67318650  0.26259600  1
  O  O28  1  0.80629500  0.50000000  0.11469800  1
  O  O29  1  0.19370500  0.50000000  0.88530200  1
