# generated using pymatgen
data_UO3
_symmetry_space_group_name_H-M   'P 1'
_cell_length_a   6.97865800
_cell_length_b   6.97865800
_cell_length_c   20.20616800
_cell_angle_alpha   90.00000000
_cell_angle_beta   90.00000000
_cell_angle_gamma   90.00000000
_symmetry_Int_Tables_number   1
_chemical_formula_structural   UO3
_chemical_formula_sum   'U16 O48'
_cell_volume   984.07407500
_cell_formula_units_Z   16
loop_
 _symmetry_equiv_pos_site_id
 _symmetry_equiv_pos_as_xyz
  1  'x, y, z'
loop_
 _atom_site_type_symbol
 _atom_site_label
 _atom_site_symmetry_multiplicity
 _atom_site_fract_x
 _atom_site_fract_y
 _atom_site_fract_z
 _atom_site_occupancy
  U  U0  1  0.25000000  0.00000000  0.37500000  1
  U  U1  1  0.50000000  0.25000000  0.12500000  1
  U  U2  1  0.50000000  0.75000000  0.12500000  1
  U  U3  1  0.75000000  0.00000000  0.37500000  1
  U  U4  1  0.00000000  0.50000000  0.06100500  1
  U  U5  1  0.50000000  0.50000000  0.31100500  1
  U  U6  1  0.00000000  0.00000000  0.18899500  1
  U  U7  1  0.00000000  0.50000000  0.43899500  1
  U  U8  1  0.75000000  0.50000000  0.87500000  1
  U  U9  1  0.00000000  0.75000000  0.62500000  1
  U  U10  1  0.00000000  0.25000000  0.62500000  1
  U  U11  1  0.25000000  0.50000000  0.87500000  1
  U  U12  1  0.50000000  0.00000000  0.56100500  1
  U  U13  1  0.00000000  0.00000000  0.81100500  1
  U  U14  1  0.50000000  0.50000000  0.68899500  1
  U  U15  1  0.50000000  0.00000000  0.93899500  1
  O  O16  1  0.25984500  0.50000000  0.44137400  1
  O  O17  1  0.00000000  0.75984500  0.05862600  1
  O  O18  1  0.00000000  0.24015500  0.05862600  1
  O  O19  1  0.75984500  0.50000000  0.30862600  1
  O  O20  1  0.24015500  0.50000000  0.30862600  1
  O  O21  1  0.00000000  0.25984500  0.19137400  1
  O  O22  1  0.00000000  0.74015500  0.19137400  1
  O  O23  1  0.74015500  0.50000000  0.44137400  1
  O  O24  1  0.80066300  0.00000000  0.28234900  1
  O  O25  1  0.50000000  0.80066300  0.03234900  1
  O  O26  1  0.50000000  0.19933700  0.03234900  1
  O  O27  1  0.30066300  0.00000000  0.46765100  1
  O  O28  1  0.69933700  0.00000000  0.46765100  1
  O  O29  1  0.50000000  0.30066300  0.21765100  1
  O  O30  1  0.50000000  0.69933700  0.21765100  1
  O  O31  1  0.19933700  0.00000000  0.28234900  1
  O  O32  1  0.69269700  0.00000000  0.14078300  1
  O  O33  1  0.00000000  0.19269700  0.39078300  1
  O  O34  1  0.00000000  0.80730300  0.39078300  1
  O  O35  1  0.69269700  0.50000000  0.10921700  1
  O  O36  1  0.30730300  0.50000000  0.10921700  1
  O  O37  1  0.50000000  0.19269700  0.35921700  1
  O  O38  1  0.50000000  0.80730300  0.35921700  1
  O  O39  1  0.30730300  0.00000000  0.14078300  1
  O  O40  1  0.75984500  0.00000000  0.94137400  1
  O  O41  1  0.50000000  0.25984500  0.55862600  1
  O  O42  1  0.50000000  0.74015500  0.55862600  1
  O  O43  1  0.25984500  0.00000000  0.80862600  1
  O  O44  1  0.74015500  0.00000000  0.80862600  1
  O  O45  1  0.50000000  0.75984500  0.69137400  1
  O  O46  1  0.50000000  0.24015500  0.69137400  1
  O  O47  1  0.24015500  0.00000000  0.94137400  1
  O  O48  1  0.30066300  0.50000000  0.78234900  1
  O  O49  1  0.00000000  0.30066300  0.53234900  1
  O  O50  1  0.00000000  0.69933700  0.53234900  1
  O  O51  1  0.80066300  0.50000000  0.96765100  1
  O  O52  1  0.19933700  0.50000000  0.96765100  1
  O  O53  1  0.00000000  0.80066300  0.71765100  1
  O  O54  1  0.00000000  0.19933700  0.71765100  1
  O  O55  1  0.69933700  0.50000000  0.78234900  1
  O  O56  1  0.19269700  0.50000000  0.64078300  1
  O  O57  1  0.50000000  0.69269700  0.89078300  1
  O  O58  1  0.50000000  0.30730300  0.89078300  1
  O  O59  1  0.19269700  0.00000000  0.60921700  1
  O  O60  1  0.80730300  0.00000000  0.60921700  1
  O  O61  1  0.00000000  0.69269700  0.85921700  1
  O  O62  1  0.00000000  0.30730300  0.85921700  1
  O  O63  1  0.80730300  0.50000000  0.64078300  1
