# generated using pymatgen
data_TlI
_symmetry_space_group_name_H-M   'P 1'
_cell_length_a   4.74040800
_cell_length_b   13.35834200
_cell_length_c   5.30780300
_cell_angle_alpha   90.00000000
_cell_angle_beta   90.00000000
_cell_angle_gamma   90.00000000
_symmetry_Int_Tables_number   1
_chemical_formula_structural   TlI
_chemical_formula_sum   'Tl4 I4'
_cell_volume   336.11127091
_cell_formula_units_Z   4
loop_
 _symmetry_equiv_pos_site_id
 _symmetry_equiv_pos_as_xyz
  1  'x, y, z'
loop_
 _atom_site_type_symbol
 _atom_site_label
 _atom_site_symmetry_multiplicity
 _atom_site_fract_x
 _atom_site_fract_y
 _atom_site_fract_z
 _atom_site_occupancy
  Tl  Tl0  1  0.00000000  0.61398700  0.75000000  1
  Tl  Tl1  1  0.50000000  0.88601300  0.25000000  1
  Tl  Tl2  1  0.50000000  0.11398700  0.75000000  1
  Tl  Tl3  1  0.00000000  0.38601300  0.25000000  1
  I  I4  1  0.00000000  0.86741600  0.75000000  1
  I  I5  1  0.50000000  0.63258400  0.25000000  1
  I  I6  1  0.50000000  0.36741600  0.75000000  1
  I  I7  1  0.00000000  0.13258400  0.25000000  1
