# generated using pymatgen
data_Li7TaO6
_symmetry_space_group_name_H-M   'P 1'
_cell_length_a   5.60229704
_cell_length_b   5.60229704
_cell_length_c   14.74890886
_cell_angle_alpha   90.00000000
_cell_angle_beta   90.00000000
_cell_angle_gamma   120.00000000
_symmetry_Int_Tables_number   1
_chemical_formula_structural   Li7TaO6
_chemical_formula_sum   'Li21 Ta3 O18'
_cell_volume   400.88775096
_cell_formula_units_Z   3
loop_
 _symmetry_equiv_pos_site_id
 _symmetry_equiv_pos_as_xyz
  1  'x, y, z'
loop_
 _atom_site_type_symbol
 _atom_site_label
 _atom_site_symmetry_multiplicity
 _atom_site_fract_x
 _atom_site_fract_y
 _atom_site_fract_z
 _atom_site_occupancy
  Li  Li0  1  0.38276100  0.99350300  0.11530500  1
  Li  Li1  1  0.61074200  0.61723900  0.11530500  1
  Li  Li2  1  0.00649700  0.38925800  0.11530500  1
  Li  Li3  1  0.27061967  0.28710333  0.21844533  1
  Li  Li4  1  0.01648367  0.72938033  0.21844533  1
  Li  Li5  1  0.71289667  0.98351633  0.21844533  1
  Li  Li6  1  0.33333333  0.66666667  0.32125667  1
  Li  Li7  1  0.04942767  0.32683633  0.44863833  1
  Li  Li8  1  0.27740867  0.95057233  0.44863833  1
  Li  Li9  1  0.67316367  0.72259133  0.44863833  1
  Li  Li10  1  0.93728633  0.62043667  0.55177867  1
  Li  Li11  1  0.68315033  0.06271367  0.55177867  1
  Li  Li12  1  0.37956333  0.31684967  0.55177867  1
  Li  Li13  1  0.00000000  0.00000000  0.65459000  1
  Li  Li14  1  0.71609433  0.66016967  0.78197167  1
  Li  Li15  1  0.94407533  0.28390567  0.78197167  1
  Li  Li16  1  0.33983033  0.05592467  0.78197167  1
  Li  Li17  1  0.60395300  0.95377000  0.88511200  1
  Li  Li18  1  0.34981700  0.39604700  0.88511200  1
  Li  Li19  1  0.04623000  0.65018300  0.88511200  1
  Li  Li20  1  0.66666667  0.33333333  0.98792333  1
  Ta  Ta21  1  0.00000000  0.00000000  0.00133300  1
  Ta  Ta22  1  0.66666667  0.33333333  0.33466633  1
  Ta  Ta23  1  0.33333333  0.66666667  0.66799967  1
  O  O24  1  0.63215333  0.61040867  0.25307967  1
  O  O25  1  0.38959133  0.02174467  0.25307967  1
  O  O26  1  0.97825533  0.36784667  0.25307967  1
  O  O27  1  0.71618933  0.00946367  0.08169567  1
  O  O28  1  0.29327433  0.28381067  0.08169567  1
  O  O29  1  0.99053633  0.70672567  0.08169567  1
  O  O30  1  0.29882000  0.94374200  0.58641300  1
  O  O31  1  0.05625800  0.35507800  0.58641300  1
  O  O32  1  0.64492200  0.70118000  0.58641300  1
  O  O33  1  0.38285600  0.34279700  0.41502900  1
  O  O34  1  0.95994100  0.61714400  0.41502900  1
  O  O35  1  0.65720300  0.04005900  0.41502900  1
  O  O36  1  0.96548667  0.27707533  0.91974633  1
  O  O37  1  0.72292467  0.68841133  0.91974633  1
  O  O38  1  0.31158867  0.03451333  0.91974633  1
  O  O39  1  0.04952267  0.67613033  0.74836233  1
  O  O40  1  0.62660767  0.95047733  0.74836233  1
  O  O41  1  0.32386967  0.37339233  0.74836233  1
