# generated using pymatgen
data_NaHF2
_symmetry_space_group_name_H-M   'P 1'
_cell_length_a   3.52274833
_cell_length_b   3.52274833
_cell_length_c   13.86406819
_cell_angle_alpha   90.00000000
_cell_angle_beta   90.00000000
_cell_angle_gamma   120.00000000
_symmetry_Int_Tables_number   1
_chemical_formula_structural   NaHF2
_chemical_formula_sum   'Na3 H3 F6'
_cell_volume   148.99941181
_cell_formula_units_Z   3
loop_
 _symmetry_equiv_pos_site_id
 _symmetry_equiv_pos_as_xyz
  1  'x, y, z'
loop_
 _atom_site_type_symbol
 _atom_site_label
 _atom_site_symmetry_multiplicity
 _atom_site_fract_x
 _atom_site_fract_y
 _atom_site_fract_z
 _atom_site_occupancy
  Na  Na0  1  0.00000000  0.00000000  0.00000000  1
  Na  Na1  1  0.66666667  0.33333333  0.33333333  1
  Na  Na2  1  0.33333333  0.66666667  0.66666667  1
  H  H3  1  0.33333333  0.66666667  0.16666667  1
  H  H4  1  1.00000000  1.00000000  0.50000000  1
  H  H5  1  0.66666667  0.33333333  0.83333333  1
  F  F6  1  0.33333333  0.66666667  0.08384067  1
  F  F7  1  0.33333333  0.66666667  0.24949267  1
  F  F8  1  0.00000000  0.00000000  0.41717400  1
  F  F9  1  0.00000000  0.00000000  0.58282600  1
  F  F10  1  0.66666667  0.33333333  0.75050733  1
  F  F11  1  0.66666667  0.33333333  0.91615933  1
