# generated using pymatgen
data_MoBr2
_symmetry_space_group_name_H-M   'P 1'
_cell_length_a   12.09451600
_cell_length_b   16.00975000
_cell_length_c   12.10007500
_cell_angle_alpha   90.00000000
_cell_angle_beta   90.00000000
_cell_angle_gamma   90.00000000
_symmetry_Int_Tables_number   1
_chemical_formula_structural   MoBr2
_chemical_formula_sum   'Mo24 Br48'
_cell_volume   2342.93967039
_cell_formula_units_Z   24
loop_
 _symmetry_equiv_pos_site_id
 _symmetry_equiv_pos_as_xyz
  1  'x, y, z'
loop_
 _atom_site_type_symbol
 _atom_site_label
 _atom_site_symmetry_multiplicity
 _atom_site_fract_x
 _atom_site_fract_y
 _atom_site_fract_z
 _atom_site_occupancy
  Mo  Mo0  1  0.06930100  0.00000000  0.86150300  1
  Mo  Mo1  1  0.43069900  0.00000000  0.36150300  1
  Mo  Mo2  1  0.56930100  0.00000000  0.63849700  1
  Mo  Mo3  1  0.93069900  0.00000000  0.13849700  1
  Mo  Mo4  1  0.86144000  0.00000000  0.93082600  1
  Mo  Mo5  1  0.63856000  0.00000000  0.43082600  1
  Mo  Mo6  1  0.36144000  0.00000000  0.56917400  1
  Mo  Mo7  1  0.13856000  0.00000000  0.06917400  1
  Mo  Mo8  1  0.50000000  0.88247300  0.50000000  1
  Mo  Mo9  1  0.50000000  0.61752700  0.00000000  1
  Mo  Mo10  1  0.50000000  0.11752700  0.50000000  1
  Mo  Mo11  1  0.50000000  0.38247300  0.00000000  1
  Mo  Mo12  1  0.56930100  0.50000000  0.86150300  1
  Mo  Mo13  1  0.93069900  0.50000000  0.36150300  1
  Mo  Mo14  1  0.06930100  0.50000000  0.63849700  1
  Mo  Mo15  1  0.43069900  0.50000000  0.13849700  1
  Mo  Mo16  1  0.36144000  0.50000000  0.93082600  1
  Mo  Mo17  1  0.13856000  0.50000000  0.43082600  1
  Mo  Mo18  1  0.86144000  0.50000000  0.56917400  1
  Mo  Mo19  1  0.63856000  0.50000000  0.06917400  1
  Mo  Mo20  1  0.00000000  0.38247300  0.50000000  1
  Mo  Mo21  1  0.00000000  0.11752700  0.00000000  1
  Mo  Mo22  1  0.00000000  0.61752700  0.50000000  1
  Mo  Mo23  1  0.00000000  0.88247300  0.00000000  1
  Br  Br24  1  0.65523400  0.00000000  0.84483700  1
  Br  Br25  1  0.84476600  0.00000000  0.34483700  1
  Br  Br26  1  0.15523400  0.00000000  0.65516300  1
  Br  Br27  1  0.34476600  0.00000000  0.15516300  1
  Br  Br28  1  0.50000000  0.72152000  0.50000000  1
  Br  Br29  1  0.50000000  0.77848000  0.00000000  1
  Br  Br30  1  0.50000000  0.27848000  0.50000000  1
  Br  Br31  1  0.50000000  0.22152000  0.00000000  1
  Br  Br32  1  0.20622800  0.11561900  0.93077000  1
  Br  Br33  1  0.29377200  0.88438100  0.43077000  1
  Br  Br34  1  0.70622800  0.88438100  0.56923000  1
  Br  Br35  1  0.79377200  0.11561900  0.06923000  1
  Br  Br36  1  0.56923650  0.38450150  0.20613800  1
  Br  Br37  1  0.43076350  0.11549850  0.70613800  1
  Br  Br38  1  0.56923650  0.11549850  0.29386200  1
  Br  Br39  1  0.43076350  0.38450150  0.79386200  1
  Br  Br40  1  0.43076350  0.61549850  0.79386200  1
  Br  Br41  1  0.56923650  0.88450150  0.29386200  1
  Br  Br42  1  0.43076350  0.88450150  0.70613800  1
  Br  Br43  1  0.56923650  0.61549850  0.20613800  1
  Br  Br44  1  0.20622800  0.88438100  0.93077000  1
  Br  Br45  1  0.29377200  0.11561900  0.43077000  1
  Br  Br46  1  0.70622800  0.11561900  0.56923000  1
  Br  Br47  1  0.79377200  0.88438100  0.06923000  1
  Br  Br48  1  0.15523400  0.50000000  0.84483700  1
  Br  Br49  1  0.34476600  0.50000000  0.34483700  1
  Br  Br50  1  0.65523400  0.50000000  0.65516300  1
  Br  Br51  1  0.84476600  0.50000000  0.15516300  1
  Br  Br52  1  0.00000000  0.22152000  0.50000000  1
  Br  Br53  1  0.00000000  0.27848000  0.00000000  1
  Br  Br54  1  0.00000000  0.77848000  0.50000000  1
  Br  Br55  1  0.00000000  0.72152000  0.00000000  1
  Br  Br56  1  0.70622800  0.61561900  0.93077000  1
  Br  Br57  1  0.79377200  0.38438100  0.43077000  1
  Br  Br58  1  0.20622800  0.38438100  0.56923000  1
  Br  Br59  1  0.29377200  0.61561900  0.06923000  1
  Br  Br60  1  0.06923650  0.88450150  0.20613800  1
  Br  Br61  1  0.93076350  0.61549850  0.70613800  1
  Br  Br62  1  0.06923650  0.61549850  0.29386200  1
  Br  Br63  1  0.93076350  0.88450150  0.79386200  1
  Br  Br64  1  0.93076350  0.11549850  0.79386200  1
  Br  Br65  1  0.06923650  0.38450150  0.29386200  1
  Br  Br66  1  0.93076350  0.38450150  0.70613800  1
  Br  Br67  1  0.06923650  0.11549850  0.20613800  1
  Br  Br68  1  0.70622800  0.38438100  0.93077000  1
  Br  Br69  1  0.79377200  0.61561900  0.43077000  1
  Br  Br70  1  0.20622800  0.61561900  0.56923000  1
  Br  Br71  1  0.29377200  0.38438100  0.06923000  1
