# generated using pymatgen
data_Ba2PdF6
_symmetry_space_group_name_H-M   'P 1'
_cell_length_a   6.30139200
_cell_length_b   17.33171200
_cell_length_c   6.29644200
_cell_angle_alpha   90.00000000
_cell_angle_beta   90.00000000
_cell_angle_gamma   90.00000000
_symmetry_Int_Tables_number   1
_chemical_formula_structural   Ba2PdF6
_chemical_formula_sum   'Ba8 Pd4 F24'
_cell_volume   687.65905836
_cell_formula_units_Z   4
loop_
 _symmetry_equiv_pos_site_id
 _symmetry_equiv_pos_as_xyz
  1  'x, y, z'
loop_
 _atom_site_type_symbol
 _atom_site_label
 _atom_site_symmetry_multiplicity
 _atom_site_fract_x
 _atom_site_fract_y
 _atom_site_fract_z
 _atom_site_occupancy
  Ba  Ba0  1  0.50000000  0.16053900  0.50000000  1
  Ba  Ba1  1  0.50000000  0.33946100  0.00000000  1
  Ba  Ba2  1  0.00000000  0.33946100  0.50000000  1
  Ba  Ba3  1  0.00000000  0.16053900  0.00000000  1
  Ba  Ba4  1  0.00000000  0.66053900  0.50000000  1
  Ba  Ba5  1  0.00000000  0.83946100  0.00000000  1
  Ba  Ba6  1  0.50000000  0.83946100  0.50000000  1
  Ba  Ba7  1  0.50000000  0.66053900  0.00000000  1
  Pd  Pd8  1  0.00000000  0.00000000  0.50000000  1
  Pd  Pd9  1  0.50000000  0.00000000  0.00000000  1
  Pd  Pd10  1  0.50000000  0.50000000  0.50000000  1
  Pd  Pd11  1  0.00000000  0.50000000  0.00000000  1
  F  F12  1  0.15716100  0.41714200  0.84225000  1
  F  F13  1  0.84283900  0.08285800  0.34225000  1
  F  F14  1  0.15716100  0.08285800  0.65775000  1
  F  F15  1  0.84283900  0.41714200  0.15775000  1
  F  F16  1  0.34283900  0.08285800  0.15775000  1
  F  F17  1  0.65716100  0.41714200  0.65775000  1
  F  F18  1  0.25689400  0.25000000  0.75000000  1
  F  F19  1  0.74310600  0.25000000  0.25000000  1
  F  F20  1  0.24310600  0.25000000  0.25000000  1
  F  F21  1  0.75689400  0.25000000  0.75000000  1
  F  F22  1  0.65716100  0.08285800  0.84225000  1
  F  F23  1  0.34283900  0.41714200  0.34225000  1
  F  F24  1  0.65716100  0.91714200  0.84225000  1
  F  F25  1  0.34283900  0.58285800  0.34225000  1
  F  F26  1  0.65716100  0.58285800  0.65775000  1
  F  F27  1  0.34283900  0.91714200  0.15775000  1
  F  F28  1  0.84283900  0.58285800  0.15775000  1
  F  F29  1  0.15716100  0.91714200  0.65775000  1
  F  F30  1  0.75689400  0.75000000  0.75000000  1
  F  F31  1  0.24310600  0.75000000  0.25000000  1
  F  F32  1  0.74310600  0.75000000  0.25000000  1
  F  F33  1  0.25689400  0.75000000  0.75000000  1
  F  F34  1  0.15716100  0.58285800  0.84225000  1
  F  F35  1  0.84283900  0.91714200  0.34225000  1
