# generated using pymatgen
data_Cs2PtI6
_symmetry_space_group_name_H-M   'P 1'
_cell_length_a   11.73815200
_cell_length_b   11.73815200
_cell_length_c   11.73815200
_cell_angle_alpha   90.00000000
_cell_angle_beta   90.00000000
_cell_angle_gamma   90.00000000
_symmetry_Int_Tables_number   1
_chemical_formula_structural   Cs2PtI6
_chemical_formula_sum   'Cs8 Pt4 I24'
_cell_volume   1617.33202806
_cell_formula_units_Z   4
loop_
 _symmetry_equiv_pos_site_id
 _symmetry_equiv_pos_as_xyz
  1  'x, y, z'
loop_
 _atom_site_type_symbol
 _atom_site_label
 _atom_site_symmetry_multiplicity
 _atom_site_fract_x
 _atom_site_fract_y
 _atom_site_fract_z
 _atom_site_occupancy
  Cs  Cs0  1  0.25000000  0.25000000  0.75000000  1
  Cs  Cs1  1  0.25000000  0.75000000  0.75000000  1
  Cs  Cs2  1  0.25000000  0.75000000  0.25000000  1
  Cs  Cs3  1  0.25000000  0.25000000  0.25000000  1
  Cs  Cs4  1  0.75000000  0.25000000  0.25000000  1
  Cs  Cs5  1  0.75000000  0.75000000  0.25000000  1
  Cs  Cs6  1  0.75000000  0.75000000  0.75000000  1
  Cs  Cs7  1  0.75000000  0.25000000  0.75000000  1
  Pt  Pt8  1  0.00000000  0.00000000  0.00000000  1
  Pt  Pt9  1  0.00000000  0.50000000  0.50000000  1
  Pt  Pt10  1  0.50000000  0.00000000  0.50000000  1
  Pt  Pt11  1  0.50000000  0.50000000  0.00000000  1
  I  I12  1  0.50000000  0.73128600  0.00000000  1
  I  I13  1  0.23128600  0.00000000  0.00000000  1
  I  I14  1  0.50000000  0.00000000  0.73128600  1
  I  I15  1  0.50000000  0.26871400  0.00000000  1
  I  I16  1  0.00000000  0.00000000  0.76871400  1
  I  I17  1  0.76871400  0.00000000  0.00000000  1
  I  I18  1  0.50000000  0.23128600  0.50000000  1
  I  I19  1  0.23128600  0.50000000  0.50000000  1
  I  I20  1  0.50000000  0.50000000  0.23128600  1
  I  I21  1  0.50000000  0.76871400  0.50000000  1
  I  I22  1  0.00000000  0.50000000  0.26871400  1
  I  I23  1  0.76871400  0.50000000  0.50000000  1
  I  I24  1  0.00000000  0.73128600  0.50000000  1
  I  I25  1  0.73128600  0.00000000  0.50000000  1
  I  I26  1  0.00000000  0.00000000  0.23128600  1
  I  I27  1  0.00000000  0.26871400  0.50000000  1
  I  I28  1  0.50000000  0.00000000  0.26871400  1
  I  I29  1  0.26871400  0.00000000  0.50000000  1
  I  I30  1  0.00000000  0.23128600  0.00000000  1
  I  I31  1  0.73128600  0.50000000  0.00000000  1
  I  I32  1  0.00000000  0.50000000  0.73128600  1
  I  I33  1  0.00000000  0.76871400  0.00000000  1
  I  I34  1  0.50000000  0.50000000  0.76871400  1
  I  I35  1  0.26871400  0.50000000  0.00000000  1
