# generated using pymatgen
data_InAgS2
_symmetry_space_group_name_H-M   'P 1'
_cell_length_a   3.82202242
_cell_length_b   3.82202242
_cell_length_c   19.39910170
_cell_angle_alpha   90.00000000
_cell_angle_beta   90.00000000
_cell_angle_gamma   120.00000000
_symmetry_Int_Tables_number   1
_chemical_formula_structural   InAgS2
_chemical_formula_sum   'In3 Ag3 S6'
_cell_volume   245.41364854
_cell_formula_units_Z   3
loop_
 _symmetry_equiv_pos_site_id
 _symmetry_equiv_pos_as_xyz
  1  'x, y, z'
loop_
 _atom_site_type_symbol
 _atom_site_label
 _atom_site_symmetry_multiplicity
 _atom_site_fract_x
 _atom_site_fract_y
 _atom_site_fract_z
 _atom_site_occupancy
  In  In0  1  0.00000000  0.00000000  0.00000000  1
  In  In1  1  0.66666667  0.33333333  0.33333333  1
  In  In2  1  0.33333333  0.66666667  0.66666667  1
  Ag  Ag3  1  0.33333333  0.66666667  0.16666667  1
  Ag  Ag4  1  1.00000000  1.00000000  0.50000000  1
  Ag  Ag5  1  0.66666667  0.33333333  0.83333333  1
  S  S6  1  0.00000000  0.00000000  0.25543300  1
  S  S7  1  0.66666667  0.33333333  0.07790033  1
  S  S8  1  0.66666667  0.33333333  0.58876633  1
  S  S9  1  0.33333333  0.66666667  0.41123367  1
  S  S10  1  0.33333333  0.66666667  0.92209967  1
  S  S11  1  0.00000000  0.00000000  0.74456700  1
