# generated using pymatgen
data_KScF4
_symmetry_space_group_name_H-M   'P 1'
_cell_length_a   15.92587200
_cell_length_b   4.12117800
_cell_length_c   13.51127167
_cell_angle_alpha   90.00000000
_cell_angle_beta   107.75095122
_cell_angle_gamma   90.00000000
_symmetry_Int_Tables_number   1
_chemical_formula_structural   KScF4
_chemical_formula_sum   'K8 Sc8 F32'
_cell_volume   844.57064682
_cell_formula_units_Z   8
loop_
 _symmetry_equiv_pos_site_id
 _symmetry_equiv_pos_as_xyz
  1  'x, y, z'
loop_
 _atom_site_type_symbol
 _atom_site_label
 _atom_site_symmetry_multiplicity
 _atom_site_fract_x
 _atom_site_fract_y
 _atom_site_fract_z
 _atom_site_occupancy
  K  K0  1  0.74323000  0.50000000  0.13534300  1
  K  K1  1  0.75677000  0.00000000  0.86465700  1
  K  K2  1  0.64026600  0.00000000  0.36402000  1
  K  K3  1  0.85973400  0.50000000  0.63598000  1
  K  K4  1  0.24323000  0.00000000  0.13534300  1
  K  K5  1  0.25677000  0.50000000  0.86465700  1
  K  K6  1  0.14026600  0.50000000  0.36402000  1
  K  K7  1  0.35973400  0.00000000  0.63598000  1
  Sc  Sc8  1  0.88102500  0.00000000  0.38632500  1
  Sc  Sc9  1  0.61897500  0.50000000  0.61367500  1
  Sc  Sc10  1  0.97298400  0.00000000  0.13886400  1
  Sc  Sc11  1  0.52701600  0.50000000  0.86113600  1
  Sc  Sc12  1  0.38102500  0.50000000  0.38632500  1
  Sc  Sc13  1  0.11897500  0.00000000  0.61367500  1
  Sc  Sc14  1  0.47298400  0.50000000  0.13886400  1
  Sc  Sc15  1  0.02701600  0.00000000  0.86113600  1
  F  F16  1  0.00000000  0.00000000  0.50000000  1
  F  F17  1  0.00000000  0.00000000  0.00000000  1
  F  F18  1  0.95479700  0.00000000  0.28289400  1
  F  F19  1  0.54520300  0.50000000  0.71710600  1
  F  F20  1  0.97163400  0.50000000  0.14225600  1
  F  F21  1  0.52836600  0.00000000  0.85774400  1
  F  F22  1  0.76922000  0.00000000  0.27007000  1
  F  F23  1  0.73078000  0.50000000  0.72993000  1
  F  F24  1  0.89800200  0.00000000  0.78452100  1
  F  F25  1  0.60199800  0.50000000  0.21547900  1
  F  F26  1  0.61561900  0.00000000  0.61672200  1
  F  F27  1  0.88438100  0.50000000  0.38327800  1
  F  F28  1  0.67644200  0.50000000  0.50372700  1
  F  F29  1  0.82355800  0.00000000  0.49627300  1
  F  F30  1  0.65848600  0.50000000  0.92999400  1
  F  F31  1  0.84151400  0.00000000  0.07000600  1
  F  F32  1  0.50000000  0.50000000  0.50000000  1
  F  F33  1  0.50000000  0.50000000  0.00000000  1
  F  F34  1  0.45479700  0.50000000  0.28289400  1
  F  F35  1  0.04520300  0.00000000  0.71710600  1
  F  F36  1  0.47163400  0.00000000  0.14225600  1
  F  F37  1  0.02836600  0.50000000  0.85774400  1
  F  F38  1  0.26922000  0.50000000  0.27007000  1
  F  F39  1  0.23078000  0.00000000  0.72993000  1
  F  F40  1  0.39800200  0.50000000  0.78452100  1
  F  F41  1  0.10199800  0.00000000  0.21547900  1
  F  F42  1  0.11561900  0.50000000  0.61672200  1
  F  F43  1  0.38438100  0.00000000  0.38327800  1
  F  F44  1  0.17644200  0.00000000  0.50372700  1
  F  F45  1  0.32355800  0.50000000  0.49627300  1
  F  F46  1  0.15848600  0.00000000  0.92999400  1
  F  F47  1  0.34151400  0.50000000  0.07000600  1
