# generated using pymatgen
data_RbCrI3
_symmetry_space_group_name_H-M   'P 1'
_cell_length_a   14.04131400
_cell_length_b   8.12637200
_cell_length_c   14.42091642
_cell_angle_alpha   90.00000000
_cell_angle_beta   96.04627498
_cell_angle_gamma   90.00000000
_symmetry_Int_Tables_number   1
_chemical_formula_structural   RbCrI3
_chemical_formula_sum   'Rb8 Cr8 I24'
_cell_volume   1636.34415591
_cell_formula_units_Z   8
loop_
 _symmetry_equiv_pos_site_id
 _symmetry_equiv_pos_as_xyz
  1  'x, y, z'
loop_
 _atom_site_type_symbol
 _atom_site_label
 _atom_site_symmetry_multiplicity
 _atom_site_fract_x
 _atom_site_fract_y
 _atom_site_fract_z
 _atom_site_occupancy
  Rb  Rb0  1  0.66613450  0.01409550  0.11784400  1
  Rb  Rb1  1  0.33386550  0.01409550  0.88215600  1
  Rb  Rb2  1  0.66161700  0.04698500  0.61942400  1
  Rb  Rb3  1  0.33838300  0.04698500  0.38057600  1
  Rb  Rb4  1  0.16613450  0.51409550  0.11784400  1
  Rb  Rb5  1  0.83386550  0.51409550  0.88215600  1
  Rb  Rb6  1  0.16161700  0.54698500  0.61942400  1
  Rb  Rb7  1  0.83838300  0.54698500  0.38057600  1
  Cr  Cr8  1  0.49911300  0.53381600  0.24968800  1
  Cr  Cr9  1  0.50088700  0.53381600  0.75031200  1
  Cr  Cr10  1  0.50000000  0.56731200  0.50000000  1
  Cr  Cr11  1  0.50000000  0.49620100  0.00000000  1
  Cr  Cr12  1  0.99911300  0.03381600  0.24968800  1
  Cr  Cr13  1  0.00088700  0.03381600  0.75031200  1
  Cr  Cr14  1  0.00000000  0.06731200  0.50000000  1
  Cr  Cr15  1  0.00000000  0.99620100  0.00000000  1
  I  I16  1  0.83346650  0.02232250  0.83582700  1
  I  I17  1  0.16653350  0.02232250  0.16417300  1
  I  I18  1  0.16735800  0.04946800  0.66365100  1
  I  I19  1  0.83264200  0.04946800  0.33634900  1
  I  I20  1  0.58485450  0.80337350  0.39749300  1
  I  I21  1  0.41514550  0.80337350  0.60250700  1
  I  I22  1  0.57951000  0.73847700  0.89377700  1
  I  I23  1  0.42049000  0.73847700  0.10622300  1
  I  I24  1  0.57642200  0.32506700  0.39182700  1
  I  I25  1  0.42357800  0.32506700  0.60817300  1
  I  I26  1  0.58249400  0.25914000  0.89628900  1
  I  I27  1  0.41750600  0.25914000  0.10371100  1
  I  I28  1  0.33346650  0.52232250  0.83582700  1
  I  I29  1  0.66653350  0.52232250  0.16417300  1
  I  I30  1  0.66735800  0.54946800  0.66365100  1
  I  I31  1  0.33264200  0.54946800  0.33634900  1
  I  I32  1  0.08485450  0.30337350  0.39749300  1
  I  I33  1  0.91514550  0.30337350  0.60250700  1
  I  I34  1  0.07951000  0.23847700  0.89377700  1
  I  I35  1  0.92049000  0.23847700  0.10622300  1
  I  I36  1  0.07642200  0.82506700  0.39182700  1
  I  I37  1  0.92357800  0.82506700  0.60817300  1
  I  I38  1  0.08249400  0.75914000  0.89628900  1
  I  I39  1  0.91750600  0.75914000  0.10371100  1
