# generated using pymatgen
data_CoH9(CN2)3
_symmetry_space_group_name_H-M   'P 1'
_cell_length_a   10.99039046
_cell_length_b   10.99039046
_cell_length_c   10.91421936
_cell_angle_alpha   90.00000000
_cell_angle_beta   90.00000000
_cell_angle_gamma   120.00000000
_symmetry_Int_Tables_number   1
_chemical_formula_structural   CoH9(CN2)3
_chemical_formula_sum   'Co6 H54 C18 N36'
_cell_volume   1141.69356818
_cell_formula_units_Z   6
loop_
 _symmetry_equiv_pos_site_id
 _symmetry_equiv_pos_as_xyz
  1  'x, y, z'
loop_
 _atom_site_type_symbol
 _atom_site_label
 _atom_site_symmetry_multiplicity
 _atom_site_fract_x
 _atom_site_fract_y
 _atom_site_fract_z
 _atom_site_occupancy
  Co  Co0  1  0.00000000  0.00000000  0.50000000  1
  Co  Co1  1  0.00000000  0.00000000  0.00000000  1
  Co  Co2  1  0.66666667  0.33333333  0.83333333  1
  Co  Co3  1  0.66666667  0.33333333  0.33333333  1
  Co  Co4  1  0.33333333  0.66666667  0.16666667  1
  Co  Co5  1  0.33333333  0.66666667  0.66666667  1
  H  H6  1  0.01810367  0.78486933  0.43426833  1
  H  H7  1  0.21513067  0.23323433  0.43426833  1
  H  H8  1  0.78486933  0.76676567  0.56573167  1
  H  H9  1  0.23323433  0.01810367  0.56573167  1
  H  H10  1  0.02806933  0.87691967  0.31185367  1
  H  H11  1  0.12308033  0.15114967  0.31185367  1
  H  H12  1  0.84885033  0.97193067  0.31185367  1
  H  H13  1  0.97193067  0.12308033  0.68814633  1
  H  H14  1  0.87691967  0.84885033  0.68814633  1
  H  H15  1  0.15114967  0.02806933  0.68814633  1
  H  H16  1  0.87421433  0.77311267  0.37509167  1
  H  H17  1  0.98189633  0.21513067  0.56573167  1
  H  H18  1  0.89889833  0.12578567  0.37509167  1
  H  H19  1  0.12578567  0.22688733  0.62490833  1
  H  H20  1  0.77311267  0.89889833  0.62490833  1
  H  H21  1  0.10110167  0.87421433  0.62490833  1
  H  H22  1  0.76676567  0.98189633  0.43426833  1
  H  H23  1  0.22688733  0.10110167  0.37509167  1
  H  H24  1  0.68477033  0.11820267  0.76760167  1
  H  H25  1  0.88179733  0.56656767  0.76760167  1
  H  H26  1  0.45153600  0.10009900  0.89906500  1
  H  H27  1  0.89990100  0.35143700  0.89906500  1
  H  H28  1  0.69473600  0.21025300  0.64518700  1
  H  H29  1  0.78974700  0.48448300  0.64518700  1
  H  H30  1  0.51551700  0.30526400  0.64518700  1
  H  H31  1  0.63859733  0.45641367  0.02147967  1
  H  H32  1  0.54358633  0.18218367  0.02147967  1
  H  H33  1  0.81781633  0.36140267  0.02147967  1
  H  H34  1  0.54088100  0.10644600  0.70842500  1
  H  H35  1  0.64856300  0.54846400  0.89906500  1
  H  H36  1  0.56556500  0.45911900  0.70842500  1
  H  H37  1  0.79245233  0.56022067  0.95824167  1
  H  H38  1  0.43977933  0.23223167  0.95824167  1
  H  H39  1  0.76776833  0.20754767  0.95824167  1
  H  H40  1  0.43343233  0.31522967  0.76760167  1
  H  H41  1  0.89355400  0.43443500  0.70842500  1
  H  H42  1  0.35143700  0.45153600  0.10093500  1
  H  H43  1  0.54846400  0.89990100  0.10093500  1
  H  H44  1  0.11820267  0.43343233  0.23239833  1
  H  H45  1  0.56656767  0.68477033  0.23239833  1
  H  H46  1  0.36140267  0.54358633  0.97852033  1
  H  H47  1  0.45641367  0.81781633  0.97852033  1
  H  H48  1  0.18218367  0.63859733  0.97852033  1
  H  H49  1  0.30526400  0.78974700  0.35481300  1
  H  H50  1  0.21025300  0.51551700  0.35481300  1
  H  H51  1  0.48448300  0.69473600  0.35481300  1
  H  H52  1  0.20754767  0.43977933  0.04175833  1
  H  H53  1  0.31522967  0.88179733  0.23239833  1
  H  H54  1  0.23223167  0.79245233  0.04175833  1
  H  H55  1  0.45911900  0.89355400  0.29157500  1
  H  H56  1  0.10644600  0.56556500  0.29157500  1
  H  H57  1  0.43443500  0.54088100  0.29157500  1
  H  H58  1  0.10009900  0.64856300  0.10093500  1
  H  H59  1  0.56022067  0.76776833  0.04175833  1
  C  C60  1  0.51748733  0.20709867  0.43283067  1
  C  C61  1  0.48251267  0.79290133  0.56716933  1
  C  C62  1  0.68961133  0.48251267  0.43283067  1
  C  C63  1  0.20709867  0.68961133  0.56716933  1
  C  C64  1  0.31038867  0.51748733  0.56716933  1
  C  C65  1  0.79290133  0.31038867  0.43283067  1
  C  C66  1  0.18415400  0.54043200  0.76616400  1
  C  C67  1  0.14917933  0.12623467  0.90050267  1
  C  C68  1  0.35627800  0.81584600  0.76616400  1
  C  C69  1  0.87376533  0.02294467  0.90050267  1
  C  C70  1  0.97705533  0.85082067  0.90050267  1
  C  C71  1  0.45956800  0.64372200  0.76616400  1
  C  C72  1  0.85082067  0.87376533  0.09949733  1
  C  C73  1  0.81584600  0.45956800  0.23383600  1
  C  C74  1  0.02294467  0.14917933  0.09949733  1
  C  C75  1  0.54043200  0.35627800  0.23383600  1
  C  C76  1  0.64372200  0.18415400  0.23383600  1
  C  C77  1  0.12623467  0.97705533  0.09949733  1
  N  N78  1  0.15717967  0.13473933  0.39467133  1
  N  N79  1  0.84282033  0.86526067  0.60532867  1
  N  N80  1  0.13473933  0.97755967  0.60532867  1
  N  N81  1  0.02244033  0.15717967  0.60532867  1
  N  N82  1  0.29386100  0.42505800  0.50222300  1
  N  N83  1  0.57494200  0.86880300  0.50222300  1
  N  N84  1  0.13119700  0.70613900  0.50222300  1
  N  N85  1  0.97755967  0.84282033  0.39467133  1
  N  N86  1  0.42505800  0.13119700  0.49777700  1
  N  N87  1  0.86880300  0.29386100  0.49777700  1
  N  N88  1  0.86526067  0.02244033  0.39467133  1
  N  N89  1  0.70613900  0.57494200  0.49777700  1
  N  N90  1  0.82384633  0.46807267  0.72800467  1
  N  N91  1  0.50948700  0.19859400  0.93866200  1
  N  N92  1  0.80140600  0.31089300  0.93866200  1
  N  N93  1  0.68910700  0.49051300  0.93866200  1
  N  N94  1  0.96052767  0.75839133  0.83555633  1
  N  N95  1  0.24160867  0.20213633  0.83555633  1
  N  N96  1  0.79786367  0.03947233  0.83555633  1
  N  N97  1  0.64422633  0.17615367  0.72800467  1
  N  N98  1  0.09172467  0.46453033  0.83111033  1
  N  N99  1  0.53546967  0.62719433  0.83111033  1
  N  N100  1  0.53192733  0.35577367  0.72800467  1
  N  N101  1  0.37280567  0.90827533  0.83111033  1
  N  N102  1  0.49051300  0.80140600  0.06133800  1
  N  N103  1  0.17615367  0.53192733  0.27199533  1
  N  N104  1  0.46807267  0.64422633  0.27199533  1
  N  N105  1  0.35577367  0.82384633  0.27199533  1
  N  N106  1  0.62719433  0.09172467  0.16888967  1
  N  N107  1  0.90827533  0.53546967  0.16888967  1
  N  N108  1  0.46453033  0.37280567  0.16888967  1
  N  N109  1  0.31089300  0.50948700  0.06133800  1
  N  N110  1  0.75839133  0.79786367  0.16444367  1
  N  N111  1  0.20213633  0.96052767  0.16444367  1
  N  N112  1  0.19859400  0.68910700  0.06133800  1
  N  N113  1  0.03947233  0.24160867  0.16444367  1
