# generated using pymatgen
data_HgH12C2(Br2N3)2
_symmetry_space_group_name_H-M   'P 1'
_cell_length_a   10.38351600
_cell_length_b   11.31973400
_cell_length_c   13.53489697
_cell_angle_alpha   90.00000000
_cell_angle_beta   108.79632433
_cell_angle_gamma   90.00000000
_symmetry_Int_Tables_number   1
_chemical_formula_structural   HgH12C2(Br2N3)2
_chemical_formula_sum   'Hg4 H48 C8 Br16 N24'
_cell_volume   1506.03198594
_cell_formula_units_Z   4
loop_
 _symmetry_equiv_pos_site_id
 _symmetry_equiv_pos_as_xyz
  1  'x, y, z'
loop_
 _atom_site_type_symbol
 _atom_site_label
 _atom_site_symmetry_multiplicity
 _atom_site_fract_x
 _atom_site_fract_y
 _atom_site_fract_z
 _atom_site_occupancy
  Hg  Hg0  1  0.50000000  0.28794000  0.25000000  1
  Hg  Hg1  1  0.50000000  0.71206000  0.75000000  1
  Hg  Hg2  1  0.00000000  0.78794000  0.25000000  1
  Hg  Hg3  1  0.00000000  0.21206000  0.75000000  1
  H  H4  1  0.27890900  0.15632600  0.65099400  1
  H  H5  1  0.72109100  0.15632600  0.84900600  1
  H  H6  1  0.72109100  0.84367400  0.34900600  1
  H  H7  1  0.27890900  0.84367400  0.15099400  1
  H  H8  1  0.36611400  0.02607600  0.64731400  1
  H  H9  1  0.63388600  0.02607600  0.85268600  1
  H  H10  1  0.63388600  0.97392400  0.35268600  1
  H  H11  1  0.36611400  0.97392400  0.14731400  1
  H  H12  1  0.48921650  0.34439350  0.56270800  1
  H  H13  1  0.51078350  0.34439350  0.93729200  1
  H  H14  1  0.51078350  0.65560650  0.43729200  1
  H  H15  1  0.48921650  0.65560650  0.06270800  1
  H  H16  1  0.35262950  0.33594250  0.61186700  1
  H  H17  1  0.57398900  0.04033800  0.60506400  1
  H  H18  1  0.64737050  0.66405750  0.38813300  1
  H  H19  1  0.35262950  0.66405750  0.11186700  1
  H  H20  1  0.42601100  0.95966200  0.39493600  1
  H  H21  1  0.42601100  0.04033800  0.89493600  1
  H  H22  1  0.61881450  0.82582350  0.06307100  1
  H  H23  1  0.38118550  0.82582350  0.43692900  1
  H  H24  1  0.38118550  0.17417650  0.93692900  1
  H  H25  1  0.61881450  0.17417650  0.56307100  1
  H  H26  1  0.57398900  0.95966200  0.10506400  1
  H  H27  1  0.64737050  0.33594250  0.88813300  1
  H  H28  1  0.77890900  0.65632600  0.65099400  1
  H  H29  1  0.22109100  0.65632600  0.84900600  1
  H  H30  1  0.22109100  0.34367400  0.34900600  1
  H  H31  1  0.77890900  0.34367400  0.15099400  1
  H  H32  1  0.86611400  0.52607600  0.64731400  1
  H  H33  1  0.13388600  0.52607600  0.85268600  1
  H  H34  1  0.13388600  0.47392400  0.35268600  1
  H  H35  1  0.86611400  0.47392400  0.14731400  1
  H  H36  1  0.98921650  0.84439350  0.56270800  1
  H  H37  1  0.01078350  0.84439350  0.93729200  1
  H  H38  1  0.01078350  0.15560650  0.43729200  1
  H  H39  1  0.98921650  0.15560650  0.06270800  1
  H  H40  1  0.85262950  0.83594250  0.61186700  1
  H  H41  1  0.07398900  0.54033800  0.60506400  1
  H  H42  1  0.14737050  0.16405750  0.38813300  1
  H  H43  1  0.85262950  0.16405750  0.11186700  1
  H  H44  1  0.92601100  0.45966200  0.39493600  1
  H  H45  1  0.92601100  0.54033800  0.89493600  1
  H  H46  1  0.11881450  0.32582350  0.06307100  1
  H  H47  1  0.88118550  0.32582350  0.43692900  1
  H  H48  1  0.88118550  0.67417650  0.93692900  1
  H  H49  1  0.11881450  0.67417650  0.56307100  1
  H  H50  1  0.07398900  0.45966200  0.10506400  1
  H  H51  1  0.14737050  0.83594250  0.88813300  1
  C  C52  1  0.44370600  0.82207700  0.10172500  1
  C  C53  1  0.44370600  0.17792300  0.60172500  1
  C  C54  1  0.55629400  0.17792300  0.89827500  1
  C  C55  1  0.55629400  0.82207700  0.39827500  1
  C  C56  1  0.94370600  0.32207700  0.10172500  1
  C  C57  1  0.94370600  0.67792300  0.60172500  1
  C  C58  1  0.05629400  0.67792300  0.89827500  1
  C  C59  1  0.05629400  0.32207700  0.39827500  1
  Br  Br60  1  0.31102250  0.86415450  0.78065300  1
  Br  Br61  1  0.88466900  0.89286000  0.06975300  1
  Br  Br62  1  0.11533100  0.10714000  0.93024700  1
  Br  Br63  1  0.88466900  0.10714000  0.56975300  1
  Br  Br64  1  0.31102250  0.13584550  0.28065300  1
  Br  Br65  1  0.11533100  0.89286000  0.43024700  1
  Br  Br66  1  0.68897750  0.86415450  0.71934700  1
  Br  Br67  1  0.68897750  0.13584550  0.21934700  1
  Br  Br68  1  0.81102250  0.36415450  0.78065300  1
  Br  Br69  1  0.38466900  0.39286000  0.06975300  1
  Br  Br70  1  0.61533100  0.60714000  0.93024700  1
  Br  Br71  1  0.38466900  0.60714000  0.56975300  1
  Br  Br72  1  0.81102250  0.63584550  0.28065300  1
  Br  Br73  1  0.61533100  0.39286000  0.43024700  1
  Br  Br74  1  0.18897750  0.36415450  0.71934700  1
  Br  Br75  1  0.18897750  0.63584550  0.21934700  1
  N  N76  1  0.54687050  0.12476650  0.58027300  1
  N  N77  1  0.42505100  0.29431400  0.58859500  1
  N  N78  1  0.45312950  0.87523350  0.41972700  1
  N  N79  1  0.54687050  0.87523350  0.08027300  1
  N  N80  1  0.57494900  0.70568600  0.41140500  1
  N  N81  1  0.42505100  0.70568600  0.08859500  1
  N  N82  1  0.45312950  0.12476650  0.91972700  1
  N  N83  1  0.57494900  0.29431400  0.91140500  1
  N  N84  1  0.35579550  0.11444750  0.63399500  1
  N  N85  1  0.64420450  0.11444750  0.86600500  1
  N  N86  1  0.64420450  0.88555250  0.36600500  1
  N  N87  1  0.35579550  0.88555250  0.13399500  1
  N  N88  1  0.04687050  0.62476650  0.58027300  1
  N  N89  1  0.92505100  0.79431400  0.58859500  1
  N  N90  1  0.95312950  0.37523350  0.41972700  1
  N  N91  1  0.04687050  0.37523350  0.08027300  1
  N  N92  1  0.07494900  0.20568600  0.41140500  1
  N  N93  1  0.92505100  0.20568600  0.08859500  1
  N  N94  1  0.95312950  0.62476650  0.91972700  1
  N  N95  1  0.07494900  0.79431400  0.91140500  1
  N  N96  1  0.85579550  0.61444750  0.63399500  1
  N  N97  1  0.14420450  0.61444750  0.86600500  1
  N  N98  1  0.14420450  0.38555250  0.36600500  1
  N  N99  1  0.85579550  0.38555250  0.13399500  1
