# generated using pymatgen
data_Zn3B7ClO13
_symmetry_space_group_name_H-M   'P 1'
_cell_length_a   8.63313828
_cell_length_b   8.63313828
_cell_length_c   21.24261002
_cell_angle_alpha   90.00000000
_cell_angle_beta   90.00000000
_cell_angle_gamma   120.00000000
_symmetry_Int_Tables_number   1
_chemical_formula_structural   Zn3B7ClO13
_chemical_formula_sum   'Zn18 B42 Cl6 O78'
_cell_volume   1371.12137853
_cell_formula_units_Z   6
loop_
 _symmetry_equiv_pos_site_id
 _symmetry_equiv_pos_as_xyz
  1  'x, y, z'
loop_
 _atom_site_type_symbol
 _atom_site_label
 _atom_site_symmetry_multiplicity
 _atom_site_fract_x
 _atom_site_fract_y
 _atom_site_fract_z
 _atom_site_occupancy
  Zn  Zn0  1  0.37584333  0.18736167  0.15975467  1
  Zn  Zn1  1  0.81263833  0.18848167  0.15975467  1
  Zn  Zn2  1  0.81151833  0.62415667  0.15975467  1
  Zn  Zn3  1  0.70917667  0.85514833  0.32642133  1
  Zn  Zn4  1  0.14485167  0.85402833  0.32642133  1
  Zn  Zn5  1  0.14597167  0.29082333  0.32642133  1
  Zn  Zn6  1  0.04251000  0.52069500  0.49308800  1
  Zn  Zn7  1  0.47930500  0.52181500  0.49308800  1
  Zn  Zn8  1  0.47818500  0.95749000  0.49308800  1
  Zn  Zn9  1  0.37584333  0.18848167  0.65975467  1
  Zn  Zn10  1  0.81151833  0.18736167  0.65975467  1
  Zn  Zn11  1  0.81263833  0.62415667  0.65975467  1
  Zn  Zn12  1  0.70917667  0.85402833  0.82642133  1
  Zn  Zn13  1  0.14597167  0.85514833  0.82642133  1
  Zn  Zn14  1  0.14485167  0.29082333  0.82642133  1
  Zn  Zn15  1  0.04251000  0.52181500  0.99308800  1
  Zn  Zn16  1  0.47818500  0.52069500  0.99308800  1
  Zn  Zn17  1  0.47930500  0.95749000  0.99308800  1
  B  B18  1  0.43564533  0.87081767  0.13770867  1
  B  B19  1  0.33333333  0.66666667  0.26979367  1
  B  B20  1  0.00000000  0.00000000  0.10312700  1
  B  B21  1  0.12918233  0.56482767  0.13770867  1
  B  B22  1  0.43517233  0.56435467  0.13770867  1
  B  B23  1  0.76897867  0.23149433  0.30437533  1
  B  B24  1  0.76850567  0.53748433  0.30437533  1
  B  B25  1  0.46251567  0.23102133  0.30437533  1
  B  B26  1  0.67128033  0.83503167  0.08288567  1
  B  B27  1  0.16375133  0.32871967  0.08288567  1
  B  B28  1  0.16496833  0.83624867  0.08288567  1
  B  B29  1  0.49708467  0.50169833  0.24955233  1
  B  B30  1  0.00461367  0.50291533  0.24955233  1
  B  B31  1  0.49830167  0.99538633  0.24955233  1
  B  B32  1  0.10231200  0.20415100  0.47104200  1
  B  B33  1  0.00000000  0.00000000  0.60312700  1
  B  B34  1  0.66666667  0.33333333  0.43646033  1
  B  B35  1  0.79584900  0.89816100  0.47104200  1
  B  B36  1  0.10183900  0.89768800  0.47104200  1
  B  B37  1  0.43564533  0.56482767  0.63770867  1
  B  B38  1  0.43517233  0.87081767  0.63770867  1
  B  B39  1  0.12918233  0.56435467  0.63770867  1
  B  B40  1  0.33794700  0.16836500  0.41621900  1
  B  B41  1  0.83041800  0.66205300  0.41621900  1
  B  B42  1  0.83163500  0.16958200  0.41621900  1
  B  B43  1  0.16375133  0.83503167  0.58288567  1
  B  B44  1  0.67128033  0.83624867  0.58288567  1
  B  B45  1  0.16496833  0.32871967  0.58288567  1
  B  B46  1  0.76897867  0.53748433  0.80437533  1
  B  B47  1  0.66666667  0.33333333  0.93646033  1
  B  B48  1  0.33333333  0.66666667  0.76979367  1
  B  B49  1  0.46251567  0.23149433  0.80437533  1
  B  B50  1  0.76850567  0.23102133  0.80437533  1
  B  B51  1  0.10231200  0.89816100  0.97104200  1
  B  B52  1  0.10183900  0.20415100  0.97104200  1
  B  B53  1  0.79584900  0.89768800  0.97104200  1
  B  B54  1  0.00461367  0.50169833  0.74955233  1
  B  B55  1  0.49708467  0.99538633  0.74955233  1
  B  B56  1  0.49830167  0.50291533  0.74955233  1
  B  B57  1  0.83041800  0.16836500  0.91621900  1
  B  B58  1  0.33794700  0.16958200  0.91621900  1
  B  B59  1  0.83163500  0.66205300  0.91621900  1
  Cl  Cl60  1  0.66666667  0.33333333  0.10299633  1
  Cl  Cl61  1  0.00000000  0.00000000  0.26966300  1
  Cl  Cl62  1  0.33333333  0.66666667  0.43632967  1
  Cl  Cl63  1  0.66666667  0.33333333  0.60299633  1
  Cl  Cl64  1  0.00000000  0.00000000  0.76966300  1
  Cl  Cl65  1  0.33333333  0.66666667  0.93632967  1
  O  O66  1  0.11044000  0.46635700  0.07899100  1
  O  O67  1  0.35591700  0.88956000  0.07899100  1
  O  O68  1  0.07932033  0.77288067  0.02121067  1
  O  O69  1  0.69356033  0.92067967  0.02121067  1
  O  O70  1  0.22711933  0.30643967  0.02121067  1
  O  O71  1  0.56045267  0.58734633  0.18787733  1
  O  O72  1  0.02689367  0.43954733  0.18787733  1
  O  O73  1  0.41265367  0.97310633  0.18787733  1
  O  O74  1  0.66666667  0.33333333  0.32127033  1
  O  O75  1  0.33333333  0.66666667  0.15460367  1
  O  O76  1  0.15912567  0.99907833  0.10571333  1
  O  O77  1  0.83995267  0.84087433  0.10571333  1
  O  O78  1  0.00092167  0.16004733  0.10571333  1
  O  O79  1  0.17328600  0.66574500  0.27238000  1
  O  O80  1  0.49245900  0.82671400  0.27238000  1
  O  O81  1  0.33425500  0.50754100  0.27238000  1
  O  O82  1  0.63908367  0.59590933  0.29615933  1
  O  O83  1  0.95682567  0.36091633  0.29615933  1
  O  O84  1  0.40409067  0.04317433  0.29615933  1
  O  O85  1  0.62349233  0.92924267  0.12949267  1
  O  O86  1  0.30575033  0.37650767  0.12949267  1
  O  O87  1  0.07075733  0.69424967  0.12949267  1
  O  O88  1  0.44377333  0.31074967  0.24565767  1
  O  O89  1  0.86697633  0.55622667  0.24565767  1
  O  O90  1  0.68925033  0.13302367  0.24565767  1
  O  O91  1  0.53364300  0.64408300  0.07899100  1
  O  O92  1  0.77710667  0.79969033  0.41232433  1
  O  O93  1  0.02258367  0.22289333  0.41232433  1
  O  O94  1  0.74598700  0.10621400  0.35454400  1
  O  O95  1  0.36022700  0.25401300  0.35454400  1
  O  O96  1  0.89378600  0.63977300  0.35454400  1
  O  O97  1  0.22711933  0.92067967  0.52121067  1
  O  O98  1  0.69356033  0.77288067  0.52121067  1
  O  O99  1  0.07932033  0.30643967  0.52121067  1
  O  O100  1  0.33333333  0.66666667  0.65460367  1
  O  O101  1  0.00000000  0.00000000  0.48793700  1
  O  O102  1  0.82579233  0.33241167  0.43904667  1
  O  O103  1  0.50661933  0.17420767  0.43904667  1
  O  O104  1  0.66758833  0.49338067  0.43904667  1
  O  O105  1  0.83995267  0.99907833  0.60571333  1
  O  O106  1  0.15912567  0.16004733  0.60571333  1
  O  O107  1  0.00092167  0.84087433  0.60571333  1
  O  O108  1  0.30575033  0.92924267  0.62949267  1
  O  O109  1  0.62349233  0.69424967  0.62949267  1
  O  O110  1  0.07075733  0.37650767  0.62949267  1
  O  O111  1  0.29015900  0.26257600  0.46282600  1
  O  O112  1  0.97241700  0.70984100  0.46282600  1
  O  O113  1  0.73742400  0.02758300  0.46282600  1
  O  O114  1  0.11044000  0.64408300  0.57899100  1
  O  O115  1  0.53364300  0.88956000  0.57899100  1
  O  O116  1  0.35591700  0.46635700  0.57899100  1
  O  O117  1  0.20030967  0.97741633  0.41232433  1
  O  O118  1  0.44377333  0.13302367  0.74565767  1
  O  O119  1  0.68925033  0.55622667  0.74565767  1
  O  O120  1  0.41265367  0.43954733  0.68787733  1
  O  O121  1  0.02689367  0.58734633  0.68787733  1
  O  O122  1  0.56045267  0.97310633  0.68787733  1
  O  O123  1  0.89378600  0.25401300  0.85454400  1
  O  O124  1  0.36022700  0.10621400  0.85454400  1
  O  O125  1  0.74598700  0.63977300  0.85454400  1
  O  O126  1  0.00000000  0.00000000  0.98793700  1
  O  O127  1  0.66666667  0.33333333  0.82127033  1
  O  O128  1  0.49245900  0.66574500  0.77238000  1
  O  O129  1  0.17328600  0.50754100  0.77238000  1
  O  O130  1  0.33425500  0.82671400  0.77238000  1
  O  O131  1  0.50661933  0.33241167  0.93904667  1
  O  O132  1  0.82579233  0.49338067  0.93904667  1
  O  O133  1  0.66758833  0.17420767  0.93904667  1
  O  O134  1  0.97241700  0.26257600  0.96282600  1
  O  O135  1  0.29015900  0.02758300  0.96282600  1
  O  O136  1  0.73742400  0.70984100  0.96282600  1
  O  O137  1  0.95682567  0.59590933  0.79615933  1
  O  O138  1  0.63908367  0.04317433  0.79615933  1
  O  O139  1  0.40409067  0.36091633  0.79615933  1
  O  O140  1  0.77710667  0.97741633  0.91232433  1
  O  O141  1  0.20030967  0.22289333  0.91232433  1
  O  O142  1  0.02258367  0.79969033  0.91232433  1
  O  O143  1  0.86697633  0.31074967  0.74565767  1
