# generated using pymatgen
data_K5CuSb2
_symmetry_space_group_name_H-M   'P 1'
_cell_length_a   5.99639443
_cell_length_b   5.99639443
_cell_length_c   28.38603533
_cell_angle_alpha   90.00000000
_cell_angle_beta   90.00000000
_cell_angle_gamma   120.00000000
_symmetry_Int_Tables_number   1
_chemical_formula_structural   K5CuSb2
_chemical_formula_sum   'K15 Cu3 Sb6'
_cell_volume   883.92568803
_cell_formula_units_Z   3
loop_
 _symmetry_equiv_pos_site_id
 _symmetry_equiv_pos_as_xyz
  1  'x, y, z'
loop_
 _atom_site_type_symbol
 _atom_site_label
 _atom_site_symmetry_multiplicity
 _atom_site_fract_x
 _atom_site_fract_y
 _atom_site_fract_z
 _atom_site_occupancy
  K  K0  1  0.33333333  0.66666667  0.16666667  1
  K  K1  1  0.33333333  0.66666667  0.30182467  1
  K  K2  1  0.33333333  0.66666667  0.03150867  1
  K  K3  1  0.66666667  0.33333333  0.11654033  1
  K  K4  1  0.00000000  0.00000000  0.21679300  1
  K  K5  1  1.00000000  1.00000000  0.50000000  1
  K  K6  1  0.00000000  0.00000000  0.63515800  1
  K  K7  1  0.00000000  0.00000000  0.36484200  1
  K  K8  1  0.33333333  0.66666667  0.44987367  1
  K  K9  1  0.66666667  0.33333333  0.55012633  1
  K  K10  1  0.66666667  0.33333333  0.83333333  1
  K  K11  1  0.66666667  0.33333333  0.96849133  1
  K  K12  1  0.66666667  0.33333333  0.69817533  1
  K  K13  1  0.00000000  0.00000000  0.78320700  1
  K  K14  1  0.33333333  0.66666667  0.88345967  1
  Cu  Cu15  1  0.00000000  0.00000000  0.00000000  1
  Cu  Cu16  1  0.66666667  0.33333333  0.33333333  1
  Cu  Cu17  1  0.33333333  0.66666667  0.66666667  1
  Sb  Sb18  1  0.66666667  0.33333333  0.24490533  1
  Sb  Sb19  1  0.00000000  0.00000000  0.08842800  1
  Sb  Sb20  1  0.33333333  0.66666667  0.57823867  1
  Sb  Sb21  1  0.66666667  0.33333333  0.42176133  1
  Sb  Sb22  1  0.00000000  0.00000000  0.91157200  1
  Sb  Sb23  1  0.33333333  0.66666667  0.75509467  1
