# generated using pymatgen
data_Ga2Te5
_symmetry_space_group_name_H-M   'P 1'
_cell_length_a   8.20502600
_cell_length_b   8.20502600
_cell_length_c   6.97194000
_cell_angle_alpha   90.00000000
_cell_angle_beta   90.00000000
_cell_angle_gamma   90.00000000
_symmetry_Int_Tables_number   1
_chemical_formula_structural   Ga2Te5
_chemical_formula_sum   'Ga4 Te10'
_cell_volume   469.36809363
_cell_formula_units_Z   2
loop_
 _symmetry_equiv_pos_site_id
 _symmetry_equiv_pos_as_xyz
  1  'x, y, z'
loop_
 _atom_site_type_symbol
 _atom_site_label
 _atom_site_symmetry_multiplicity
 _atom_site_fract_x
 _atom_site_fract_y
 _atom_site_fract_z
 _atom_site_occupancy
  Ga  Ga0  1  0.50000000  0.00000000  0.25000000  1
  Ga  Ga1  1  0.00000000  0.50000000  0.25000000  1
  Ga  Ga2  1  0.00000000  0.50000000  0.75000000  1
  Ga  Ga3  1  0.50000000  0.00000000  0.75000000  1
  Te  Te4  1  0.17787800  0.67382400  0.00000000  1
  Te  Te5  1  0.32212200  0.82617600  0.50000000  1
  Te  Te6  1  0.17382400  0.32212200  0.50000000  1
  Te  Te7  1  0.32617600  0.17787800  0.00000000  1
  Te  Te8  1  0.00000000  0.00000000  0.00000000  1
  Te  Te9  1  0.67787800  0.17382400  0.50000000  1
  Te  Te10  1  0.82212200  0.32617600  0.00000000  1
  Te  Te11  1  0.67382400  0.82212200  0.00000000  1
  Te  Te12  1  0.82617600  0.67787800  0.50000000  1
  Te  Te13  1  0.50000000  0.50000000  0.50000000  1
