# generated using pymatgen
data_Li2CrCl4
_symmetry_space_group_name_H-M   'P 1'
_cell_length_a   10.23544800
_cell_length_b   10.06664800
_cell_length_c   7.57043401
_cell_angle_alpha   90.00000000
_cell_angle_beta   130.64236448
_cell_angle_gamma   90.00000000
_symmetry_Int_Tables_number   1
_chemical_formula_structural   Li2CrCl4
_chemical_formula_sum   'Li8 Cr4 Cl16'
_cell_volume   591.88055041
_cell_formula_units_Z   4
loop_
 _symmetry_equiv_pos_site_id
 _symmetry_equiv_pos_as_xyz
  1  'x, y, z'
loop_
 _atom_site_type_symbol
 _atom_site_label
 _atom_site_symmetry_multiplicity
 _atom_site_fract_x
 _atom_site_fract_y
 _atom_site_fract_z
 _atom_site_occupancy
  Li  Li0  1  0.00000000  0.89454800  0.25000000  1
  Li  Li1  1  0.00000000  0.10545200  0.75000000  1
  Li  Li2  1  0.00000000  0.50000000  0.00000000  1
  Li  Li3  1  0.00000000  0.50000000  0.50000000  1
  Li  Li4  1  0.50000000  0.39454800  0.25000000  1
  Li  Li5  1  0.50000000  0.60545200  0.75000000  1
  Li  Li6  1  0.50000000  0.00000000  0.00000000  1
  Li  Li7  1  0.50000000  0.00000000  0.50000000  1
  Cr  Cr8  1  0.75000000  0.75000000  0.50000000  1
  Cr  Cr9  1  0.25000000  0.75000000  0.00000000  1
  Cr  Cr10  1  0.25000000  0.25000000  0.50000000  1
  Cr  Cr11  1  0.75000000  0.25000000  0.00000000  1
  Cl  Cl12  1  0.23182050  0.48698050  0.47301900  1
  Cl  Cl13  1  0.01947350  0.24853750  0.50816100  1
  Cl  Cl14  1  0.98052650  0.24853750  0.99183900  1
  Cl  Cl15  1  0.98052650  0.75146250  0.49183900  1
  Cl  Cl16  1  0.01947350  0.75146250  0.00816100  1
  Cl  Cl17  1  0.76817950  0.51301950  0.52698100  1
  Cl  Cl18  1  0.23182050  0.51301950  0.97301900  1
  Cl  Cl19  1  0.76817950  0.48698050  0.02698100  1
  Cl  Cl20  1  0.73182050  0.98698050  0.47301900  1
  Cl  Cl21  1  0.51947350  0.74853750  0.50816100  1
  Cl  Cl22  1  0.48052650  0.74853750  0.99183900  1
  Cl  Cl23  1  0.48052650  0.25146250  0.49183900  1
  Cl  Cl24  1  0.51947350  0.25146250  0.00816100  1
  Cl  Cl25  1  0.26817950  0.01301950  0.52698100  1
  Cl  Cl26  1  0.73182050  0.01301950  0.97301900  1
  Cl  Cl27  1  0.26817950  0.98698050  0.02698100  1
