# generated using pymatgen
data_P4SO6
_symmetry_space_group_name_H-M   'P 1'
_cell_length_a   8.48213200
_cell_length_b   9.78681700
_cell_length_c   10.31065893
_cell_angle_alpha   90.00000000
_cell_angle_beta   90.11266716
_cell_angle_gamma   90.00000000
_symmetry_Int_Tables_number   1
_chemical_formula_structural   P4SO6
_chemical_formula_sum   'P16 S4 O24'
_cell_volume   855.91783473
_cell_formula_units_Z   4
loop_
 _symmetry_equiv_pos_site_id
 _symmetry_equiv_pos_as_xyz
  1  'x, y, z'
loop_
 _atom_site_type_symbol
 _atom_site_label
 _atom_site_symmetry_multiplicity
 _atom_site_fract_x
 _atom_site_fract_y
 _atom_site_fract_z
 _atom_site_occupancy
  P  P0  1  0.18509000  0.51025300  0.87957500  1
  P  P1  1  0.81491000  0.01025300  0.62042500  1
  P  P2  1  0.81491000  0.48974700  0.12042500  1
  P  P3  1  0.18509000  0.98974700  0.37957500  1
  P  P4  1  0.19564700  0.69931900  0.65428200  1
  P  P5  1  0.80435300  0.19931900  0.84571800  1
  P  P6  1  0.80435300  0.30068100  0.34571800  1
  P  P7  1  0.19564700  0.80068100  0.15428200  1
  P  P8  1  0.20565800  0.39834700  0.61168900  1
  P  P9  1  0.79434200  0.89834700  0.88831100  1
  P  P10  1  0.79434200  0.60165300  0.38831100  1
  P  P11  1  0.20565800  0.10165300  0.11168900  1
  P  P12  1  0.47340100  0.54101400  0.72820900  1
  P  P13  1  0.52659900  0.04101400  0.77179100  1
  P  P14  1  0.52659900  0.45898600  0.27179100  1
  P  P15  1  0.47340100  0.95898600  0.22820900  1
  S  S16  1  0.69667100  0.54618100  0.73909900  1
  S  S17  1  0.30332900  0.04618100  0.76090100  1
  S  S18  1  0.30332900  0.45381900  0.26090100  1
  S  S19  1  0.69667100  0.95381900  0.23909900  1
  O  O20  1  0.15476300  0.55736000  0.57277900  1
  O  O21  1  0.84523700  0.05736000  0.92722100  1
  O  O22  1  0.84523700  0.44264000  0.42722100  1
  O  O23  1  0.15476300  0.94264000  0.07277900  1
  O  O24  1  0.14561700  0.39556900  0.76554600  1
  O  O25  1  0.85438300  0.89556900  0.73445400  1
  O  O26  1  0.85438300  0.60443100  0.23445400  1
  O  O27  1  0.14561700  0.10443100  0.26554600  1
  O  O28  1  0.13801300  0.65416500  0.80247200  1
  O  O29  1  0.86198700  0.15416500  0.69752800  1
  O  O30  1  0.86198700  0.34583500  0.19752800  1
  O  O31  1  0.13801300  0.84583500  0.30247200  1
  O  O32  1  0.39241200  0.67843900  0.67202200  1
  O  O33  1  0.60758800  0.17843900  0.82797800  1
  O  O34  1  0.60758800  0.32156100  0.32797800  1
  O  O35  1  0.39241200  0.82156100  0.17202200  1
  O  O36  1  0.38315700  0.51770800  0.86442400  1
  O  O37  1  0.61684300  0.01770800  0.63557600  1
  O  O38  1  0.61684300  0.48229200  0.13557600  1
  O  O39  1  0.38315700  0.98229200  0.36442400  1
  O  O40  1  0.40109200  0.07750800  0.13649700  1
  O  O41  1  0.59890800  0.57750800  0.36350300  1
  O  O42  1  0.59890800  0.92249200  0.86350300  1
  O  O43  1  0.40109200  0.42249200  0.63649700  1
