# generated using pymatgen
data_Tl5Se2Br
_symmetry_space_group_name_H-M   'P 1'
_cell_length_a   8.79884400
_cell_length_b   8.79884400
_cell_length_c   13.47447000
_cell_angle_alpha   90.00000000
_cell_angle_beta   90.00000000
_cell_angle_gamma   90.00000000
_symmetry_Int_Tables_number   1
_chemical_formula_structural   Tl5Se2Br
_chemical_formula_sum   'Tl20 Se8 Br4'
_cell_volume   1043.18882863
_cell_formula_units_Z   4
loop_
 _symmetry_equiv_pos_site_id
 _symmetry_equiv_pos_as_xyz
  1  'x, y, z'
loop_
 _atom_site_type_symbol
 _atom_site_label
 _atom_site_symmetry_multiplicity
 _atom_site_fract_x
 _atom_site_fract_y
 _atom_site_fract_z
 _atom_site_occupancy
  Tl  Tl0  1  0.35306050  0.14693950  0.35835350  1
  Tl  Tl1  1  0.14693950  0.64693950  0.35835350  1
  Tl  Tl2  1  0.85306050  0.35306050  0.35835350  1
  Tl  Tl3  1  0.35306050  0.85306050  0.14164650  1
  Tl  Tl4  1  0.64693950  0.85306050  0.35835350  1
  Tl  Tl5  1  0.14693950  0.35306050  0.14164650  1
  Tl  Tl6  1  0.85306050  0.64693950  0.14164650  1
  Tl  Tl7  1  0.64693950  0.14693950  0.14164650  1
  Tl  Tl8  1  0.00000000  0.00000000  0.00000000  1
  Tl  Tl9  1  0.50000000  0.50000000  0.00000000  1
  Tl  Tl10  1  0.85306050  0.64693950  0.85835350  1
  Tl  Tl11  1  0.64693950  0.14693950  0.85835350  1
  Tl  Tl12  1  0.35306050  0.85306050  0.85835350  1
  Tl  Tl13  1  0.85306050  0.35306050  0.64164650  1
  Tl  Tl14  1  0.14693950  0.35306050  0.85835350  1
  Tl  Tl15  1  0.64693950  0.85306050  0.64164650  1
  Tl  Tl16  1  0.35306050  0.14693950  0.64164650  1
  Tl  Tl17  1  0.14693950  0.64693950  0.64164650  1
  Tl  Tl18  1  0.50000000  0.50000000  0.50000000  1
  Tl  Tl19  1  0.00000000  0.00000000  0.50000000  1
  Se  Se20  1  0.15838800  0.65838800  0.00000000  1
  Se  Se21  1  0.34161200  0.15838800  0.00000000  1
  Se  Se22  1  0.65838800  0.84161200  0.00000000  1
  Se  Se23  1  0.84161200  0.34161200  0.00000000  1
  Se  Se24  1  0.65838800  0.15838800  0.50000000  1
  Se  Se25  1  0.84161200  0.65838800  0.50000000  1
  Se  Se26  1  0.15838800  0.34161200  0.50000000  1
  Se  Se27  1  0.34161200  0.84161200  0.50000000  1
  Br  Br28  1  0.00000000  0.00000000  0.25000000  1
  Br  Br29  1  0.50000000  0.50000000  0.25000000  1
  Br  Br30  1  0.50000000  0.50000000  0.75000000  1
  Br  Br31  1  0.00000000  0.00000000  0.75000000  1
