# generated using pymatgen
data_Cs4BiSbCl12
_symmetry_space_group_name_H-M   'P 1'
_cell_length_a   10.84433800
_cell_length_b   10.84433800
_cell_length_c   21.77984800
_cell_angle_alpha   90.00000000
_cell_angle_beta   90.00000000
_cell_angle_gamma   90.00000000
_symmetry_Int_Tables_number   1
_chemical_formula_structural   Cs4BiSbCl12
_chemical_formula_sum   'Cs16 Bi4 Sb4 Cl48'
_cell_volume   2561.30286467
_cell_formula_units_Z   4
loop_
 _symmetry_equiv_pos_site_id
 _symmetry_equiv_pos_as_xyz
  1  'x, y, z'
loop_
 _atom_site_type_symbol
 _atom_site_label
 _atom_site_symmetry_multiplicity
 _atom_site_fract_x
 _atom_site_fract_y
 _atom_site_fract_z
 _atom_site_occupancy
  Cs  Cs0  1  0.71963800  0.25000000  0.12500000  1
  Cs  Cs1  1  0.25000000  0.21963800  0.37500000  1
  Cs  Cs2  1  0.71963800  0.75000000  0.12500000  1
  Cs  Cs3  1  0.75000000  0.21963800  0.37500000  1
  Cs  Cs4  1  0.28036200  0.75000000  0.12500000  1
  Cs  Cs5  1  0.75000000  0.78036200  0.37500000  1
  Cs  Cs6  1  0.28036200  0.25000000  0.12500000  1
  Cs  Cs7  1  0.25000000  0.78036200  0.37500000  1
  Cs  Cs8  1  0.21963800  0.75000000  0.62500000  1
  Cs  Cs9  1  0.75000000  0.71963800  0.87500000  1
  Cs  Cs10  1  0.21963800  0.25000000  0.62500000  1
  Cs  Cs11  1  0.25000000  0.71963800  0.87500000  1
  Cs  Cs12  1  0.78036200  0.25000000  0.62500000  1
  Cs  Cs13  1  0.25000000  0.28036200  0.87500000  1
  Cs  Cs14  1  0.78036200  0.75000000  0.62500000  1
  Cs  Cs15  1  0.75000000  0.28036200  0.87500000  1
  Bi  Bi16  1  0.50000000  0.50000000  0.00000000  1
  Bi  Bi17  1  0.50000000  0.00000000  0.25000000  1
  Bi  Bi18  1  0.00000000  0.00000000  0.50000000  1
  Bi  Bi19  1  0.00000000  0.50000000  0.75000000  1
  Sb  Sb20  1  0.00000000  0.00000000  0.00000000  1
  Sb  Sb21  1  0.00000000  0.50000000  0.25000000  1
  Sb  Sb22  1  0.50000000  0.50000000  0.50000000  1
  Sb  Sb23  1  0.50000000  0.00000000  0.75000000  1
  Cl  Cl24  1  0.00000000  0.25191700  0.49549200  1
  Cl  Cl25  1  0.24808300  0.50000000  0.00450800  1
  Cl  Cl26  1  0.00000000  0.00000000  0.37463900  1
  Cl  Cl27  1  0.50000000  0.00000000  0.12463900  1
  Cl  Cl28  1  0.50000000  0.00000000  0.37536100  1
  Cl  Cl29  1  0.50000000  0.50000000  0.12536100  1
  Cl  Cl30  1  0.00000000  0.00000000  0.11107300  1
  Cl  Cl31  1  0.00000000  0.50000000  0.36107300  1
  Cl  Cl32  1  0.00000000  0.50000000  0.13892700  1
  Cl  Cl33  1  0.50000000  0.50000000  0.38892700  1
  Cl  Cl34  1  0.00000000  0.22344600  0.00049900  1
  Cl  Cl35  1  0.77655400  0.50000000  0.25049900  1
  Cl  Cl36  1  0.75191700  0.50000000  0.00450800  1
  Cl  Cl37  1  0.00000000  0.27655400  0.24950100  1
  Cl  Cl38  1  0.00000000  0.72344600  0.24950100  1
  Cl  Cl39  1  0.72344600  0.50000000  0.49950100  1
  Cl  Cl40  1  0.27655400  0.50000000  0.49950100  1
  Cl  Cl41  1  0.00000000  0.77655400  0.00049900  1
  Cl  Cl42  1  0.22344600  0.50000000  0.25049900  1
  Cl  Cl43  1  0.24808300  0.00000000  0.24549200  1
  Cl  Cl44  1  0.75191700  0.00000000  0.24549200  1
  Cl  Cl45  1  0.50000000  0.74808300  0.25450800  1
  Cl  Cl46  1  0.50000000  0.25191700  0.25450800  1
  Cl  Cl47  1  0.00000000  0.74808300  0.49549200  1
  Cl  Cl48  1  0.50000000  0.75191700  0.99549200  1
  Cl  Cl49  1  0.74808300  0.00000000  0.50450800  1
  Cl  Cl50  1  0.50000000  0.50000000  0.87463900  1
  Cl  Cl51  1  0.00000000  0.50000000  0.62463900  1
  Cl  Cl52  1  0.00000000  0.50000000  0.87536100  1
  Cl  Cl53  1  0.00000000  0.00000000  0.62536100  1
  Cl  Cl54  1  0.50000000  0.50000000  0.61107300  1
  Cl  Cl55  1  0.50000000  0.00000000  0.86107300  1
  Cl  Cl56  1  0.50000000  0.00000000  0.63892700  1
  Cl  Cl57  1  0.00000000  0.00000000  0.88892700  1
  Cl  Cl58  1  0.50000000  0.72344600  0.50049900  1
  Cl  Cl59  1  0.27655400  0.00000000  0.75049900  1
  Cl  Cl60  1  0.25191700  0.00000000  0.50450800  1
  Cl  Cl61  1  0.50000000  0.77655400  0.74950100  1
  Cl  Cl62  1  0.50000000  0.22344600  0.74950100  1
  Cl  Cl63  1  0.22344600  0.00000000  0.99950100  1
  Cl  Cl64  1  0.77655400  0.00000000  0.99950100  1
  Cl  Cl65  1  0.50000000  0.27655400  0.50049900  1
  Cl  Cl66  1  0.72344600  0.00000000  0.75049900  1
  Cl  Cl67  1  0.74808300  0.50000000  0.74549200  1
  Cl  Cl68  1  0.25191700  0.50000000  0.74549200  1
  Cl  Cl69  1  0.00000000  0.24808300  0.75450800  1
  Cl  Cl70  1  0.00000000  0.75191700  0.75450800  1
  Cl  Cl71  1  0.50000000  0.24808300  0.99549200  1
