# generated using pymatgen
data_KGaBr4
_symmetry_space_group_name_H-M   'P 1'
_cell_length_a   23.00093778
_cell_length_b   23.00093778
_cell_length_c   9.09109441
_cell_angle_alpha   90.00000000
_cell_angle_beta   90.00000000
_cell_angle_gamma   120.00000000
_symmetry_Int_Tables_number   1
_chemical_formula_structural   KGaBr4
_chemical_formula_sum   'K18 Ga18 Br72'
_cell_volume   4165.21943550
_cell_formula_units_Z   18
loop_
 _symmetry_equiv_pos_site_id
 _symmetry_equiv_pos_as_xyz
  1  'x, y, z'
loop_
 _atom_site_type_symbol
 _atom_site_label
 _atom_site_symmetry_multiplicity
 _atom_site_fract_x
 _atom_site_fract_y
 _atom_site_fract_z
 _atom_site_occupancy
  K  K0  1  0.46875267  0.34178533  0.22461833  1
  K  K1  1  0.32488133  0.46030067  0.55795167  1
  K  K2  1  0.20636600  0.19791400  0.89128500  1
  K  K3  1  0.32488133  0.86458067  0.05795167  1
  K  K4  1  0.46875267  0.12696733  0.72461833  1
  K  K5  1  0.20636600  0.00845200  0.39128500  1
  K  K6  1  0.13541933  0.67511867  0.55795167  1
  K  K7  1  0.99154800  0.79363400  0.89128500  1
  K  K8  1  0.87303267  0.53124733  0.22461833  1
  K  K9  1  0.99154800  0.19791400  0.39128500  1
  K  K10  1  0.13541933  0.46030067  0.05795167  1
  K  K11  1  0.87303267  0.34178533  0.72461833  1
  K  K12  1  0.80208600  0.00845200  0.89128500  1
  K  K13  1  0.65821467  0.12696733  0.22461833  1
  K  K14  1  0.53969933  0.86458067  0.55795167  1
  K  K15  1  0.65821467  0.53124733  0.72461833  1
  K  K16  1  0.80208600  0.79363400  0.39128500  1
  K  K17  1  0.53969933  0.67511867  0.05795167  1
  Ga  Ga18  1  0.20280733  0.00904667  0.88108867  1
  Ga  Ga19  1  0.32428667  0.86042733  0.54775533  1
  Ga  Ga20  1  0.47290600  0.13052600  0.21442200  1
  Ga  Ga21  1  0.32428667  0.46385933  0.04775533  1
  Ga  Ga22  1  0.20280733  0.19376067  0.38108867  1
  Ga  Ga23  1  0.47290600  0.34238000  0.71442200  1
  Ga  Ga24  1  0.86947400  0.34238000  0.21442200  1
  Ga  Ga25  1  0.99095333  0.19376067  0.88108867  1
  Ga  Ga26  1  0.13957267  0.46385933  0.54775533  1
  Ga  Ga27  1  0.99095333  0.79719267  0.38108867  1
  Ga  Ga28  1  0.86947400  0.52709400  0.71442200  1
  Ga  Ga29  1  0.13957267  0.67571333  0.04775533  1
  Ga  Ga30  1  0.53614067  0.67571333  0.54775533  1
  Ga  Ga31  1  0.65762000  0.52709400  0.21442200  1
  Ga  Ga32  1  0.80623933  0.79719267  0.88108867  1
  Ga  Ga33  1  0.65762000  0.13052600  0.71442200  1
  Ga  Ga34  1  0.53614067  0.86042733  0.04775533  1
  Ga  Ga35  1  0.80623933  0.00904667  0.38108867  1
  Br  Br36  1  0.12518967  0.03283533  0.99681633  1
  Br  Br37  1  0.30049800  0.75902100  0.66348300  1
  Br  Br38  1  0.57431233  0.20814367  0.33014967  1
  Br  Br39  1  0.30049800  0.54147700  0.16348300  1
  Br  Br40  1  0.12518967  0.09235433  0.49681633  1
  Br  Br41  1  0.57431233  0.36616867  0.83014967  1
  Br  Br42  1  0.26253600  0.98528700  0.06196200  1
  Br  Br43  1  0.34804633  0.94391567  0.72862867  1
  Br  Br44  1  0.38941767  0.07079733  0.39529533  1
  Br  Br45  1  0.34804633  0.40413067  0.22862867  1
  Br  Br46  1  0.26253600  0.27724900  0.56196200  1
  Br  Br47  1  0.38941767  0.31862033  0.89529533  1
  Br  Br48  1  0.28076500  0.10299000  0.74138600  1
  Br  Br49  1  0.23034333  0.84444167  0.40805267  1
  Br  Br50  1  0.48889167  0.05256833  0.07471933  1
  Br  Br51  1  0.23034333  0.38590167  0.90805267  1
  Br  Br52  1  0.28076500  0.17777500  0.24138600  1
  Br  Br53  1  0.48889167  0.43632333  0.57471933  1
  Br  Br54  1  0.14436733  0.91669367  0.72006167  1
  Br  Br55  1  0.41663967  0.89434033  0.38672833  1
  Br  Br56  1  0.43899300  0.18896600  0.05339500  1
  Br  Br57  1  0.41663967  0.52229933  0.88672833  1
  Br  Br58  1  0.14436733  0.22767367  0.22006167  1
  Br  Br59  1  0.43899300  0.25002700  0.55339500  1
  Br  Br60  1  0.79185633  0.36616867  0.33014967  1
  Br  Br61  1  0.96716467  0.09235433  0.99681633  1
  Br  Br62  1  0.24097900  0.54147700  0.66348300  1
  Br  Br63  1  0.96716467  0.87481033  0.49681633  1
  Br  Br64  1  0.79185633  0.42568767  0.83014967  1
  Br  Br65  1  0.24097900  0.69950200  0.16348300  1
  Br  Br66  1  0.92920267  0.31862033  0.39529533  1
  Br  Br67  1  0.01471300  0.27724900  0.06196200  1
  Br  Br68  1  0.05608433  0.40413067  0.72862867  1
  Br  Br69  1  0.01471300  0.73746400  0.56196200  1
  Br  Br70  1  0.92920267  0.61058233  0.89529533  1
  Br  Br71  1  0.05608433  0.65195367  0.22862867  1
  Br  Br72  1  0.94743167  0.43632333  0.07471933  1
  Br  Br73  1  0.89701000  0.17777500  0.74138600  1
  Br  Br74  1  0.15555833  0.38590167  0.40805267  1
  Br  Br75  1  0.89701000  0.71923500  0.24138600  1
  Br  Br76  1  0.94743167  0.51110833  0.57471933  1
  Br  Br77  1  0.15555833  0.76965667  0.90805267  1
  Br  Br78  1  0.81103400  0.25002700  0.05339500  1
  Br  Br79  1  0.08330633  0.22767367  0.72006167  1
  Br  Br80  1  0.10565967  0.52229933  0.38672833  1
  Br  Br81  1  0.08330633  0.85563267  0.22006167  1
  Br  Br82  1  0.81103400  0.56100700  0.55339500  1
  Br  Br83  1  0.10565967  0.58336033  0.88672833  1
  Br  Br84  1  0.45852300  0.69950200  0.66348300  1
  Br  Br85  1  0.63383133  0.42568767  0.33014967  1
  Br  Br86  1  0.90764567  0.87481033  0.99681633  1
  Br  Br87  1  0.63383133  0.20814367  0.83014967  1
  Br  Br88  1  0.45852300  0.75902100  0.16348300  1
  Br  Br89  1  0.90764567  0.03283533  0.49681633  1
  Br  Br90  1  0.59586933  0.65195367  0.72862867  1
  Br  Br91  1  0.68137967  0.61058233  0.39529533  1
  Br  Br92  1  0.72275100  0.73746400  0.06196200  1
  Br  Br93  1  0.68137967  0.07079733  0.89529533  1
  Br  Br94  1  0.59586933  0.94391567  0.22862867  1
  Br  Br95  1  0.72275100  0.98528700  0.56196200  1
  Br  Br96  1  0.61409833  0.76965667  0.40805267  1
  Br  Br97  1  0.56367667  0.51110833  0.07471933  1
  Br  Br98  1  0.82222500  0.71923500  0.74138600  1
  Br  Br99  1  0.56367667  0.05256833  0.57471933  1
  Br  Br100  1  0.61409833  0.84444167  0.90805267  1
  Br  Br101  1  0.82222500  0.10299000  0.24138600  1
  Br  Br102  1  0.47770067  0.58336033  0.38672833  1
  Br  Br103  1  0.74997300  0.56100700  0.05339500  1
  Br  Br104  1  0.77232633  0.85563267  0.72006167  1
  Br  Br105  1  0.74997300  0.18896600  0.55339500  1
  Br  Br106  1  0.47770067  0.89434033  0.88672833  1
  Br  Br107  1  0.77232633  0.91669367  0.22006167  1
