# generated using pymatgen
data_Na2UI6
_symmetry_space_group_name_H-M   'P 1'
_cell_length_a   7.91269200
_cell_length_b   7.91269200
_cell_length_c   22.18375864
_cell_angle_alpha   90.00000000
_cell_angle_beta   90.00000000
_cell_angle_gamma   120.00000000
_symmetry_Int_Tables_number   1
_chemical_formula_structural   Na2UI6
_chemical_formula_sum   'Na6 U3 I18'
_cell_volume   1202.85779006
_cell_formula_units_Z   3
loop_
 _symmetry_equiv_pos_site_id
 _symmetry_equiv_pos_as_xyz
  1  'x, y, z'
loop_
 _atom_site_type_symbol
 _atom_site_label
 _atom_site_symmetry_multiplicity
 _atom_site_fract_x
 _atom_site_fract_y
 _atom_site_fract_z
 _atom_site_occupancy
  Na  Na0  1  0.00000000  0.00000000  0.32922700  1
  Na  Na1  1  0.66666667  0.33333333  0.00410633  1
  Na  Na2  1  0.66666667  0.33333333  0.66256033  1
  Na  Na3  1  0.33333333  0.66666667  0.33743967  1
  Na  Na4  1  0.33333333  0.66666667  0.99589367  1
  Na  Na5  1  0.00000000  0.00000000  0.67077300  1
  U  U6  1  0.00000000  0.00000000  0.00000000  1
  U  U7  1  0.66666667  0.33333333  0.33333333  1
  U  U8  1  0.33333333  0.66666667  0.66666667  1
  I  I9  1  0.36085000  0.01883300  0.25306100  1
  I  I10  1  0.65798300  0.63915000  0.25306100  1
  I  I11  1  0.98116700  0.34201700  0.25306100  1
  I  I12  1  0.30581667  0.31450033  0.08027233  1
  I  I13  1  0.00868367  0.69418333  0.08027233  1
  I  I14  1  0.68549967  0.99131633  0.08027233  1
  I  I15  1  0.02751667  0.35216633  0.58639433  1
  I  I16  1  0.32464967  0.97248333  0.58639433  1
  I  I17  1  0.64783367  0.67535033  0.58639433  1
  I  I18  1  0.97248333  0.64783367  0.41360567  1
  I  I19  1  0.67535033  0.02751667  0.41360567  1
  I  I20  1  0.35216633  0.32464967  0.41360567  1
  I  I21  1  0.69418333  0.68549967  0.91972767  1
  I  I22  1  0.99131633  0.30581667  0.91972767  1
  I  I23  1  0.31450033  0.00868367  0.91972767  1
  I  I24  1  0.63915000  0.98116700  0.74693900  1
  I  I25  1  0.34201700  0.36085000  0.74693900  1
  I  I26  1  0.01883300  0.65798300  0.74693900  1
