# generated using pymatgen
data_Ge19(PI)4
_symmetry_space_group_name_H-M   'P 1'
_cell_length_a   10.68904600
_cell_length_b   10.68904600
_cell_length_c   10.68904600
_cell_angle_alpha   90.00000000
_cell_angle_beta   90.00000000
_cell_angle_gamma   90.00000000
_symmetry_Int_Tables_number   1
_chemical_formula_structural   Ge19(PI)4
_chemical_formula_sum   'Ge38 P8 I8'
_cell_volume   1221.28447999
_cell_formula_units_Z   2
loop_
 _symmetry_equiv_pos_site_id
 _symmetry_equiv_pos_as_xyz
  1  'x, y, z'
loop_
 _atom_site_type_symbol
 _atom_site_label
 _atom_site_symmetry_multiplicity
 _atom_site_fract_x
 _atom_site_fract_y
 _atom_site_fract_z
 _atom_site_occupancy
  Ge  Ge0  1  0.99833600  0.11897400  0.30605400  1
  Ge  Ge1  1  0.50166400  0.80605400  0.38102600  1
  Ge  Ge2  1  0.50166400  0.19394600  0.61897400  1
  Ge  Ge3  1  0.19394600  0.38102600  0.49833600  1
  Ge  Ge4  1  0.80605400  0.38102600  0.50166400  1
  Ge  Ge5  1  0.61897400  0.50166400  0.19394600  1
  Ge  Ge6  1  0.38102600  0.49833600  0.19394600  1
  Ge  Ge7  1  0.30605400  0.99833600  0.11897400  1
  Ge  Ge8  1  0.11897400  0.30605400  0.99833600  1
  Ge  Ge9  1  0.88102600  0.69394600  0.99833600  1
  Ge  Ge10  1  0.30605400  0.00166400  0.88102600  1
  Ge  Ge11  1  0.88102600  0.30605400  0.00166400  1
  Ge  Ge12  1  0.69394600  0.00166400  0.11897400  1
  Ge  Ge13  1  0.69394600  0.99833600  0.88102600  1
  Ge  Ge14  1  0.11897400  0.69394600  0.00166400  1
  Ge  Ge15  1  0.99833600  0.88102600  0.69394600  1
  Ge  Ge16  1  0.00166400  0.11897400  0.69394600  1
  Ge  Ge17  1  0.00166400  0.88102600  0.30605400  1
  Ge  Ge18  1  0.38102600  0.50166400  0.80605400  1
  Ge  Ge19  1  0.61897400  0.49833600  0.80605400  1
  Ge  Ge20  1  0.19394600  0.61897400  0.50166400  1
  Ge  Ge21  1  0.80605400  0.61897400  0.49833600  1
  Ge  Ge22  1  0.49833600  0.19394600  0.38102600  1
  Ge  Ge23  1  0.49833600  0.80605400  0.61897400  1
  Ge  Ge24  1  0.18584100  0.18584100  0.18584100  1
  Ge  Ge25  1  0.31415900  0.68584100  0.31415900  1
  Ge  Ge26  1  0.31415900  0.31415900  0.68584100  1
  Ge  Ge27  1  0.68584100  0.31415900  0.31415900  1
  Ge  Ge28  1  0.81415900  0.81415900  0.18584100  1
  Ge  Ge29  1  0.18584100  0.81415900  0.81415900  1
  Ge  Ge30  1  0.81415900  0.18584100  0.81415900  1
  Ge  Ge31  1  0.68584100  0.68584100  0.68584100  1
  Ge  Ge32  1  0.00000000  0.25000000  0.50000000  1
  Ge  Ge33  1  0.50000000  0.00000000  0.25000000  1
  Ge  Ge34  1  0.50000000  0.00000000  0.75000000  1
  Ge  Ge35  1  0.75000000  0.50000000  0.00000000  1
  Ge  Ge36  1  0.25000000  0.50000000  0.00000000  1
  Ge  Ge37  1  0.00000000  0.75000000  0.50000000  1
  P  P38  1  0.81583600  0.81583600  0.81583600  1
  P  P39  1  0.68416400  0.31583600  0.68416400  1
  P  P40  1  0.68416400  0.68416400  0.31583600  1
  P  P41  1  0.31583600  0.68416400  0.68416400  1
  P  P42  1  0.18416400  0.18416400  0.81583600  1
  P  P43  1  0.81583600  0.18416400  0.18416400  1
  P  P44  1  0.18416400  0.81583600  0.18416400  1
  P  P45  1  0.31583600  0.31583600  0.31583600  1
  I  I46  1  0.00000000  0.50000000  0.25000000  1
  I  I47  1  0.50000000  0.75000000  0.00000000  1
  I  I48  1  0.50000000  0.25000000  0.00000000  1
  I  I49  1  0.25000000  0.00000000  0.50000000  1
  I  I50  1  0.75000000  0.00000000  0.50000000  1
  I  I51  1  0.00000000  0.50000000  0.75000000  1
  I  I52  1  0.00000000  0.00000000  0.00000000  1
  I  I53  1  0.50000000  0.50000000  0.50000000  1
