# generated using pymatgen
data_HgBrO3
_symmetry_space_group_name_H-M   'P 1'
_cell_length_a   19.19025200
_cell_length_b   4.72800400
_cell_length_c   9.07243900
_cell_angle_alpha   90.00000000
_cell_angle_beta   106.17360508
_cell_angle_gamma   90.00000000
_symmetry_Int_Tables_number   1
_chemical_formula_structural   HgBrO3
_chemical_formula_sum   'Hg8 Br8 O24'
_cell_volume   790.57798955
_cell_formula_units_Z   8
loop_
 _symmetry_equiv_pos_site_id
 _symmetry_equiv_pos_as_xyz
  1  'x, y, z'
loop_
 _atom_site_type_symbol
 _atom_site_label
 _atom_site_symmetry_multiplicity
 _atom_site_fract_x
 _atom_site_fract_y
 _atom_site_fract_z
 _atom_site_occupancy
  Hg  Hg0  1  0.06524850  0.02843750  0.48763400  1
  Hg  Hg1  1  0.43475150  0.52843750  0.01236600  1
  Hg  Hg2  1  0.43475150  0.47156250  0.51236600  1
  Hg  Hg3  1  0.06524850  0.97156250  0.98763400  1
  Hg  Hg4  1  0.56524850  0.52843750  0.48763400  1
  Hg  Hg5  1  0.93475150  0.02843750  0.01236600  1
  Hg  Hg6  1  0.93475150  0.97156250  0.51236600  1
  Hg  Hg7  1  0.56524850  0.47156250  0.98763400  1
  Br  Br8  1  0.17327700  0.56413000  0.83682800  1
  Br  Br9  1  0.32672300  0.06413000  0.66317200  1
  Br  Br10  1  0.32672300  0.93587000  0.16317200  1
  Br  Br11  1  0.17327700  0.43587000  0.33682800  1
  Br  Br12  1  0.67327700  0.06413000  0.83682800  1
  Br  Br13  1  0.82672300  0.56413000  0.66317200  1
  Br  Br14  1  0.82672300  0.43587000  0.16317200  1
  Br  Br15  1  0.67327700  0.93587000  0.33682800  1
  O  O16  1  0.08987300  0.42534500  0.80176000  1
  O  O17  1  0.41012700  0.92534500  0.69824000  1
  O  O18  1  0.41012700  0.07465500  0.19824000  1
  O  O19  1  0.08987300  0.57465500  0.30176000  1
  O  O20  1  0.17720850  0.71850650  0.67356000  1
  O  O21  1  0.32279150  0.21850650  0.82644000  1
  O  O22  1  0.32279150  0.78149350  0.32644000  1
  O  O23  1  0.17720850  0.28149350  0.17356000  1
  O  O24  1  0.17148800  0.15151000  0.45848600  1
  O  O25  1  0.32851200  0.65151000  0.04151400  1
  O  O26  1  0.32851200  0.34849000  0.54151400  1
  O  O27  1  0.17148800  0.84849000  0.95848600  1
  O  O28  1  0.58987300  0.92534500  0.80176000  1
  O  O29  1  0.91012700  0.42534500  0.69824000  1
  O  O30  1  0.91012700  0.57465500  0.19824000  1
  O  O31  1  0.58987300  0.07465500  0.30176000  1
  O  O32  1  0.67720850  0.21850650  0.67356000  1
  O  O33  1  0.82279150  0.71850650  0.82644000  1
  O  O34  1  0.82279150  0.28149350  0.32644000  1
  O  O35  1  0.67720850  0.78149350  0.17356000  1
  O  O36  1  0.67148800  0.65151000  0.45848600  1
  O  O37  1  0.82851200  0.15151000  0.04151400  1
  O  O38  1  0.82851200  0.84849000  0.54151400  1
  O  O39  1  0.67148800  0.34849000  0.95848600  1
