# generated using pymatgen
data_KSn2Br5
_symmetry_space_group_name_H-M   'P 1'
_cell_length_a   8.47852200
_cell_length_b   8.47852200
_cell_length_c   15.04725000
_cell_angle_alpha   90.00000000
_cell_angle_beta   90.00000000
_cell_angle_gamma   90.00000000
_symmetry_Int_Tables_number   1
_chemical_formula_structural   KSn2Br5
_chemical_formula_sum   'K4 Sn8 Br20'
_cell_volume   1081.67661166
_cell_formula_units_Z   4
loop_
 _symmetry_equiv_pos_site_id
 _symmetry_equiv_pos_as_xyz
  1  'x, y, z'
loop_
 _atom_site_type_symbol
 _atom_site_label
 _atom_site_symmetry_multiplicity
 _atom_site_fract_x
 _atom_site_fract_y
 _atom_site_fract_z
 _atom_site_occupancy
  K  K0  1  0.00000000  0.00000000  0.25000000  1
  K  K1  1  0.50000000  0.50000000  0.25000000  1
  K  K2  1  0.50000000  0.50000000  0.75000000  1
  K  K3  1  0.00000000  0.00000000  0.75000000  1
  Sn  Sn4  1  0.17702300  0.67702300  0.00000000  1
  Sn  Sn5  1  0.82297700  0.32297700  0.00000000  1
  Sn  Sn6  1  0.67702300  0.82297700  0.00000000  1
  Sn  Sn7  1  0.32297700  0.17702300  0.00000000  1
  Sn  Sn8  1  0.67702300  0.17702300  0.50000000  1
  Sn  Sn9  1  0.32297700  0.82297700  0.50000000  1
  Sn  Sn10  1  0.17702300  0.32297700  0.50000000  1
  Sn  Sn11  1  0.82297700  0.67702300  0.50000000  1
  Br  Br12  1  0.66262950  0.16262950  0.13380450  1
  Br  Br13  1  0.83737050  0.33737050  0.36619550  1
  Br  Br14  1  0.33737050  0.83737050  0.13380450  1
  Br  Br15  1  0.16262950  0.66262950  0.36619550  1
  Br  Br16  1  0.00000000  0.00000000  0.00000000  1
  Br  Br17  1  0.50000000  0.50000000  0.00000000  1
  Br  Br18  1  0.33737050  0.16262950  0.36619550  1
  Br  Br19  1  0.16262950  0.33737050  0.13380450  1
  Br  Br20  1  0.66262950  0.83737050  0.36619550  1
  Br  Br21  1  0.83737050  0.66262950  0.13380450  1
  Br  Br22  1  0.16262950  0.66262950  0.63380450  1
  Br  Br23  1  0.33737050  0.83737050  0.86619550  1
  Br  Br24  1  0.83737050  0.33737050  0.63380450  1
  Br  Br25  1  0.66262950  0.16262950  0.86619550  1
  Br  Br26  1  0.50000000  0.50000000  0.50000000  1
  Br  Br27  1  0.00000000  0.00000000  0.50000000  1
  Br  Br28  1  0.83737050  0.66262950  0.86619550  1
  Br  Br29  1  0.66262950  0.83737050  0.63380450  1
  Br  Br30  1  0.16262950  0.33737050  0.86619550  1
  Br  Br31  1  0.33737050  0.16262950  0.63380450  1
