# generated using pymatgen
data_Ti(PO3)4
_symmetry_space_group_name_H-M   'P 1'
_cell_length_a   8.33177000
_cell_length_b   9.30344500
_cell_length_c   12.99585500
_cell_angle_alpha   90.00000000
_cell_angle_beta   90.00000000
_cell_angle_gamma   90.00000000
_symmetry_Int_Tables_number   1
_chemical_formula_structural   Ti(PO3)4
_chemical_formula_sum   'Ti4 P16 O48'
_cell_volume   1007.36283511
_cell_formula_units_Z   4
loop_
 _symmetry_equiv_pos_site_id
 _symmetry_equiv_pos_as_xyz
  1  'x, y, z'
loop_
 _atom_site_type_symbol
 _atom_site_label
 _atom_site_symmetry_multiplicity
 _atom_site_fract_x
 _atom_site_fract_y
 _atom_site_fract_z
 _atom_site_occupancy
  Ti  Ti0  1  0.34812100  0.75000000  0.00000000  1
  Ti  Ti1  1  0.65187900  0.25000000  0.00000000  1
  Ti  Ti2  1  0.15187900  0.25000000  0.50000000  1
  Ti  Ti3  1  0.84812100  0.75000000  0.50000000  1
  P  P4  1  0.18120900  0.50608200  0.14728000  1
  P  P5  1  0.81879100  0.00608200  0.14728000  1
  P  P6  1  0.46294900  0.01771800  0.14825700  1
  P  P7  1  0.53705100  0.51771800  0.14825700  1
  P  P8  1  0.03705100  0.51771800  0.35174300  1
  P  P9  1  0.96294900  0.01771800  0.35174300  1
  P  P10  1  0.31879100  0.00608200  0.35272000  1
  P  P11  1  0.68120900  0.50608200  0.35272000  1
  P  P12  1  0.31879100  0.49391800  0.64728000  1
  P  P13  1  0.68120900  0.99391800  0.64728000  1
  P  P14  1  0.03705100  0.98228200  0.64825700  1
  P  P15  1  0.96294900  0.48228200  0.64825700  1
  P  P16  1  0.46294900  0.48228200  0.85174300  1
  P  P17  1  0.53705100  0.98228200  0.85174300  1
  P  P18  1  0.18120900  0.99391800  0.85272000  1
  P  P19  1  0.81879100  0.49391800  0.85272000  1
  O  O20  1  0.20078200  0.63457000  0.07328000  1
  O  O21  1  0.79921800  0.13457000  0.07328000  1
  O  O22  1  0.47592700  0.13667100  0.06942400  1
  O  O23  1  0.52407300  0.63667100  0.06942400  1
  O  O24  1  0.08817400  0.37973200  0.11763100  1
  O  O25  1  0.91182600  0.87973200  0.11763100  1
  O  O26  1  0.36554100  0.88786300  0.11563100  1
  O  O27  1  0.63445900  0.38786300  0.11563100  1
  O  O28  1  0.36368600  0.46494100  0.18282100  1
  O  O29  1  0.63631400  0.96494100  0.18282100  1
  O  O30  1  0.11665200  0.58468400  0.25179400  1
  O  O31  1  0.88334800  0.08468400  0.25179400  1
  O  O32  1  0.38334800  0.08468400  0.24820600  1
  O  O33  1  0.61665200  0.58468400  0.24820600  1
  O  O34  1  0.13631400  0.96494100  0.31717900  1
  O  O35  1  0.86368600  0.46494100  0.31717900  1
  O  O36  1  0.13445900  0.38786300  0.38436900  1
  O  O37  1  0.86554100  0.88786300  0.38436900  1
  O  O38  1  0.41182600  0.87973200  0.38236900  1
  O  O39  1  0.58817400  0.37973200  0.38236900  1
  O  O40  1  0.02407300  0.63667100  0.43057600  1
  O  O41  1  0.97592700  0.13667100  0.43057600  1
  O  O42  1  0.29921800  0.13457000  0.42672000  1
  O  O43  1  0.70078200  0.63457000  0.42672000  1
  O  O44  1  0.29921800  0.36543000  0.57328000  1
  O  O45  1  0.70078200  0.86543000  0.57328000  1
  O  O46  1  0.02407300  0.86332900  0.56942400  1
  O  O47  1  0.97592700  0.36332900  0.56942400  1
  O  O48  1  0.41182600  0.62026800  0.61763100  1
  O  O49  1  0.58817400  0.12026800  0.61763100  1
  O  O50  1  0.13445900  0.11213700  0.61563100  1
  O  O51  1  0.86554100  0.61213700  0.61563100  1
  O  O52  1  0.13631400  0.53505900  0.68282100  1
  O  O53  1  0.86368600  0.03505900  0.68282100  1
  O  O54  1  0.38334800  0.41531600  0.75179400  1
  O  O55  1  0.61665200  0.91531600  0.75179400  1
  O  O56  1  0.11665200  0.91531600  0.74820600  1
  O  O57  1  0.88334800  0.41531600  0.74820600  1
  O  O58  1  0.36368600  0.03505900  0.81717900  1
  O  O59  1  0.63631400  0.53505900  0.81717900  1
  O  O60  1  0.36554100  0.61213700  0.88436900  1
  O  O61  1  0.63445900  0.11213700  0.88436900  1
  O  O62  1  0.08817400  0.12026800  0.88236900  1
  O  O63  1  0.91182600  0.62026800  0.88236900  1
  O  O64  1  0.47592700  0.36332900  0.93057600  1
  O  O65  1  0.52407300  0.86332900  0.93057600  1
  O  O66  1  0.20078200  0.86543000  0.92672000  1
  O  O67  1  0.79921800  0.36543000  0.92672000  1
