# generated using pymatgen
data_ZnH20Se2(NO7)2
_symmetry_space_group_name_H-M   'P 1'
_cell_length_a   6.51136400
_cell_length_b   12.74705600
_cell_length_c   9.39710577
_cell_angle_alpha   90.00000000
_cell_angle_beta   106.43283325
_cell_angle_gamma   90.00000000
_symmetry_Int_Tables_number   1
_chemical_formula_structural   ZnH20Se2(NO7)2
_chemical_formula_sum   'Zn2 H40 Se4 N4 O28'
_cell_volume   748.10650246
_cell_formula_units_Z   2
loop_
 _symmetry_equiv_pos_site_id
 _symmetry_equiv_pos_as_xyz
  1  'x, y, z'
loop_
 _atom_site_type_symbol
 _atom_site_label
 _atom_site_symmetry_multiplicity
 _atom_site_fract_x
 _atom_site_fract_y
 _atom_site_fract_z
 _atom_site_occupancy
  Zn  Zn0  1  0.00000000  0.00000000  0.00000000  1
  Zn  Zn1  1  0.00000000  0.50000000  0.50000000  1
  H  H2  1  0.45527400  0.82055400  0.57227300  1
  H  H3  1  0.05610000  0.40301500  0.76238000  1
  H  H4  1  0.94390000  0.90301500  0.73762000  1
  H  H5  1  0.94390000  0.59698500  0.23762000  1
  H  H6  1  0.19912600  0.67096200  0.06958500  1
  H  H7  1  0.80087400  0.17096200  0.43041500  1
  H  H8  1  0.80087400  0.32903800  0.93041500  1
  H  H9  1  0.19912600  0.82903800  0.56958500  1
  H  H10  1  0.37424000  0.58066200  0.16837700  1
  H  H11  1  0.62576000  0.08066200  0.33162300  1
  H  H12  1  0.62576000  0.41933800  0.83162300  1
  H  H13  1  0.37424000  0.91933800  0.66837700  1
  H  H14  1  0.38898600  0.70647400  0.22981500  1
  H  H15  1  0.61101400  0.20647400  0.27018500  1
  H  H16  1  0.61101400  0.29352600  0.77018500  1
  H  H17  1  0.38898600  0.79352600  0.72981500  1
  H  H18  1  0.45527400  0.67944600  0.07227300  1
  H  H19  1  0.54472600  0.17944600  0.42772700  1
  H  H20  1  0.54472600  0.32055400  0.92772700  1
  H  H21  1  0.89511100  0.12097300  0.74850900  1
  H  H22  1  0.99427000  0.31479400  0.63765000  1
  H  H23  1  0.00573000  0.81479400  0.86235000  1
  H  H24  1  0.00573000  0.68520600  0.36235000  1
  H  H25  1  0.99427000  0.18520600  0.13765000  1
  H  H26  1  0.67954300  0.41519400  0.28480300  1
  H  H27  1  0.32045700  0.91519400  0.21519700  1
  H  H28  1  0.32045700  0.58480600  0.71519700  1
  H  H29  1  0.67954300  0.08480600  0.78480300  1
  H  H30  1  0.89511100  0.37902700  0.24850900  1
  H  H31  1  0.10488900  0.87902700  0.25149100  1
  H  H32  1  0.32381400  0.14149600  0.02461600  1
  H  H33  1  0.67618600  0.64149600  0.47538400  1
  H  H34  1  0.67618600  0.85850400  0.97538400  1
  H  H35  1  0.32381400  0.35850400  0.52461600  1
  H  H36  1  0.33106900  0.05699100  0.90231200  1
  H  H37  1  0.66893100  0.55699100  0.59768800  1
  H  H38  1  0.66893100  0.94300900  0.09768800  1
  H  H39  1  0.33106900  0.44300900  0.40231200  1
  H  H40  1  0.10488900  0.62097300  0.75149100  1
  H  H41  1  0.05610000  0.09698500  0.26238000  1
  Se  Se42  1  0.25974500  0.13251300  0.58652900  1
  Se  Se43  1  0.74025500  0.63251300  0.91347100  1
  Se  Se44  1  0.25974500  0.36748700  0.08652900  1
  Se  Se45  1  0.74025500  0.86748700  0.41347100  1
  N  N46  1  0.35436700  0.65947400  0.13626700  1
  N  N47  1  0.35436700  0.84052600  0.63626700  1
  N  N48  1  0.64563300  0.15947400  0.36373300  1
  N  N49  1  0.64563300  0.34052600  0.86373300  1
  O  O50  1  0.82957200  0.39231900  0.32965800  1
  O  O51  1  0.70706100  0.93326100  0.00349500  1
  O  O52  1  0.70706100  0.56673900  0.50349500  1
  O  O53  1  0.29293900  0.06673900  0.99650500  1
  O  O54  1  0.96840600  0.82050300  0.38659900  1
  O  O55  1  0.03159400  0.32050300  0.11340100  1
  O  O56  1  0.96313100  0.11172000  0.15991700  1
  O  O57  1  0.03686900  0.61172000  0.34008300  1
  O  O58  1  0.03686900  0.88828000  0.84008300  1
  O  O59  1  0.96313100  0.38828000  0.65991700  1
  O  O60  1  0.03159400  0.17949700  0.61340100  1
  O  O61  1  0.96840600  0.67949700  0.88659900  1
  O  O62  1  0.60942300  0.94431800  0.27041900  1
  O  O63  1  0.39057700  0.44431800  0.22958100  1
  O  O64  1  0.17042800  0.89231900  0.17034200  1
  O  O65  1  0.29293900  0.43326100  0.49650500  1
  O  O66  1  0.82957200  0.10768100  0.82965800  1
  O  O67  1  0.39057700  0.05568200  0.72958100  1
  O  O68  1  0.78963200  0.56289500  0.06875100  1
  O  O69  1  0.21036800  0.06289500  0.43124900  1
  O  O70  1  0.21036800  0.43710500  0.93124900  1
  O  O71  1  0.78963200  0.93710500  0.56875100  1
  O  O72  1  0.57591200  0.73333800  0.92197100  1
  O  O73  1  0.42408800  0.23333800  0.57802900  1
  O  O74  1  0.42408800  0.26666200  0.07802900  1
  O  O75  1  0.57591200  0.76666200  0.42197100  1
  O  O76  1  0.60942300  0.55568200  0.77041900  1
  O  O77  1  0.17042800  0.60768100  0.67034200  1
