# generated using pymatgen
data_B2H3
_symmetry_space_group_name_H-M   'P 1'
_cell_length_a   10.68163800
_cell_length_b   10.70078800
_cell_length_c   13.91548000
_cell_angle_alpha   90.00000000
_cell_angle_beta   90.00000000
_cell_angle_gamma   90.00000000
_symmetry_Int_Tables_number   1
_chemical_formula_structural   B2H3
_chemical_formula_sum   'B64 H96'
_cell_volume   1590.56641195
_cell_formula_units_Z   32
loop_
 _symmetry_equiv_pos_site_id
 _symmetry_equiv_pos_as_xyz
  1  'x, y, z'
loop_
 _atom_site_type_symbol
 _atom_site_label
 _atom_site_symmetry_multiplicity
 _atom_site_fract_x
 _atom_site_fract_y
 _atom_site_fract_z
 _atom_site_occupancy
  B  B0  1  0.65574900  0.05308400  0.90651300  1
  B  B1  1  0.84425100  0.55308400  0.09348700  1
  B  B2  1  0.15574900  0.94691600  0.59348700  1
  B  B3  1  0.34425100  0.44691600  0.40651300  1
  B  B4  1  0.34425100  0.94691600  0.09348700  1
  B  B5  1  0.15574900  0.44691600  0.90651300  1
  B  B6  1  0.84425100  0.05308400  0.40651300  1
  B  B7  1  0.65574900  0.55308400  0.59348700  1
  B  B8  1  0.81052800  0.01781700  0.93186500  1
  B  B9  1  0.68947200  0.51781700  0.06813500  1
  B  B10  1  0.31052800  0.98218300  0.56813500  1
  B  B11  1  0.18947200  0.48218300  0.43186500  1
  B  B12  1  0.18947200  0.98218300  0.06813500  1
  B  B13  1  0.31052800  0.48218300  0.93186500  1
  B  B14  1  0.68947200  0.01781700  0.43186500  1
  B  B15  1  0.81052800  0.51781700  0.56813500  1
  B  B16  1  0.84592700  0.87066100  0.87750200  1
  B  B17  1  0.65407300  0.37066100  0.12249800  1
  B  B18  1  0.34592700  0.12933900  0.62249800  1
  B  B19  1  0.15407300  0.62933900  0.37750200  1
  B  B20  1  0.15407300  0.12933900  0.12249800  1
  B  B21  1  0.34592700  0.62933900  0.87750200  1
  B  B22  1  0.65407300  0.87066100  0.37750200  1
  B  B23  1  0.84592700  0.37066100  0.62249800  1
  B  B24  1  0.81948100  0.84959400  0.74920700  1
  B  B25  1  0.68051900  0.34959400  0.25079300  1
  B  B26  1  0.31948100  0.15040600  0.75079300  1
  B  B27  1  0.18051900  0.65040600  0.24920700  1
  B  B28  1  0.18051900  0.15040600  0.25079300  1
  B  B29  1  0.31948100  0.65040600  0.74920700  1
  B  B30  1  0.68051900  0.84959400  0.24920700  1
  B  B31  1  0.81948100  0.34959400  0.75079300  1
  B  B32  1  0.67215200  0.88373200  0.72461800  1
  B  B33  1  0.82784800  0.38373200  0.27538200  1
  B  B34  1  0.17215200  0.11626800  0.77538200  1
  B  B35  1  0.32784800  0.61626800  0.22461800  1
  B  B36  1  0.32784800  0.11626800  0.27538200  1
  B  B37  1  0.17215200  0.61626800  0.72461800  1
  B  B38  1  0.82784800  0.88373200  0.22461800  1
  B  B39  1  0.67215200  0.38373200  0.77538200  1
  B  B40  1  0.59350200  0.92870400  0.83537100  1
  B  B41  1  0.90649800  0.42870400  0.16462900  1
  B  B42  1  0.09350200  0.07129600  0.66462900  1
  B  B43  1  0.40649800  0.57129600  0.33537100  1
  B  B44  1  0.40649800  0.07129600  0.16462900  1
  B  B45  1  0.09350200  0.57129600  0.83537100  1
  B  B46  1  0.90649800  0.92870400  0.33537100  1
  B  B47  1  0.59350200  0.42870400  0.66462900  1
  B  B48  1  0.69790300  0.90244800  0.93600500  1
  B  B49  1  0.80209700  0.40244800  0.06399500  1
  B  B50  1  0.19790300  0.09755200  0.56399500  1
  B  B51  1  0.30209700  0.59755200  0.43600500  1
  B  B52  1  0.30209700  0.09755200  0.06399500  1
  B  B53  1  0.19790300  0.59755200  0.93600500  1
  B  B54  1  0.80209700  0.90244800  0.43600500  1
  B  B55  1  0.69790300  0.40244800  0.56399500  1
  B  B56  1  0.70591500  0.80585200  0.82879500  1
  B  B57  1  0.79408500  0.30585200  0.17120500  1
  B  B58  1  0.20591500  0.19414800  0.67120500  1
  B  B59  1  0.29408500  0.69414800  0.32879500  1
  B  B60  1  0.29408500  0.19414800  0.17120500  1
  B  B61  1  0.20591500  0.69414800  0.82879500  1
  B  B62  1  0.79408500  0.80585200  0.32879500  1
  B  B63  1  0.70591500  0.30585200  0.67120500  1
  H  H64  1  0.76168200  0.11171000  0.87962400  1
  H  H65  1  0.73831800  0.61171000  0.12037600  1
  H  H66  1  0.26168200  0.88829000  0.62037600  1
  H  H67  1  0.23831800  0.38829000  0.37962400  1
  H  H68  1  0.23831800  0.88829000  0.12037600  1
  H  H69  1  0.26168200  0.38829000  0.87962400  1
  H  H70  1  0.73831800  0.11171000  0.37962400  1
  H  H71  1  0.76168200  0.61171000  0.62037600  1
  H  H72  1  0.77423500  0.95394300  0.70861000  1
  H  H73  1  0.72576500  0.45394300  0.29139000  1
  H  H74  1  0.27423500  0.04605700  0.79139000  1
  H  H75  1  0.22576500  0.54605700  0.20861000  1
  H  H76  1  0.22576500  0.04605700  0.29139000  1
  H  H77  1  0.27423500  0.54605700  0.70861000  1
  H  H78  1  0.72576500  0.95394300  0.20861000  1
  H  H79  1  0.77423500  0.45394300  0.79139000  1
  H  H80  1  0.88292900  0.98241500  0.85211500  1
  H  H81  1  0.61707100  0.48241500  0.14788500  1
  H  H82  1  0.38292900  0.01758500  0.64788500  1
  H  H83  1  0.11707100  0.51758500  0.35211500  1
  H  H84  1  0.11707100  0.01758500  0.14788500  1
  H  H85  1  0.38292900  0.51758500  0.85211500  1
  H  H86  1  0.61707100  0.98241500  0.35211500  1
  H  H87  1  0.88292900  0.48241500  0.64788500  1
  H  H88  1  0.62277200  0.04213300  0.80892500  1
  H  H89  1  0.87722800  0.54213300  0.19107500  1
  H  H90  1  0.12277200  0.95786700  0.69107500  1
  H  H91  1  0.37722800  0.45786700  0.30892500  1
  H  H92  1  0.37722800  0.95786700  0.19107500  1
  H  H93  1  0.12277200  0.45786700  0.80892500  1
  H  H94  1  0.87722800  0.04213300  0.30892500  1
  H  H95  1  0.62277200  0.54213300  0.69107500  1
  H  H96  1  0.59341900  0.12948200  0.94600400  1
  H  H97  1  0.90658100  0.62948200  0.05399600  1
  H  H98  1  0.09341900  0.87051800  0.55399600  1
  H  H99  1  0.40658100  0.37051800  0.44600400  1
  H  H100  1  0.40658100  0.87051800  0.05399600  1
  H  H101  1  0.09341900  0.37051800  0.94600400  1
  H  H102  1  0.90658100  0.12948200  0.44600400  1
  H  H103  1  0.61365400  0.87550000  0.65205100  1
  H  H104  1  0.59341900  0.62948200  0.55399600  1
  H  H105  1  0.62645100  0.56585000  0.00809900  1
  H  H106  1  0.37354900  0.93415000  0.50809900  1
  H  H107  1  0.12645100  0.43415000  0.49190100  1
  H  H108  1  0.12645100  0.93415000  0.00809900  1
  H  H109  1  0.37354900  0.43415000  0.99190100  1
  H  H110  1  0.62645100  0.06585000  0.49190100  1
  H  H111  1  0.87354900  0.56585000  0.50809900  1
  H  H112  1  0.92917600  0.81446900  0.91468700  1
  H  H113  1  0.57082400  0.31446900  0.08531300  1
  H  H114  1  0.42917600  0.18553100  0.58531300  1
  H  H115  1  0.07082400  0.68553100  0.41468700  1
  H  H116  1  0.07082400  0.18553100  0.08531300  1
  H  H117  1  0.42917600  0.68553100  0.91468700  1
  H  H118  1  0.57082400  0.81446900  0.41468700  1
  H  H119  1  0.92917600  0.31446900  0.58531300  1
  H  H120  1  0.90107700  0.80846100  0.70024200  1
  H  H121  1  0.59892300  0.30846100  0.29975800  1
  H  H122  1  0.40107700  0.19153900  0.79975800  1
  H  H123  1  0.09892300  0.69153900  0.20024200  1
  H  H124  1  0.09892300  0.19153900  0.29975800  1
  H  H125  1  0.40107700  0.69153900  0.70024200  1
  H  H126  1  0.59892300  0.80846100  0.20024200  1
  H  H127  1  0.90107700  0.30846100  0.79975800  1
  H  H128  1  0.67755600  0.19903400  0.65762600  1
  H  H129  1  0.82244400  0.69903400  0.34237400  1
  H  H130  1  0.17755600  0.80096600  0.84237400  1
  H  H131  1  0.32244400  0.30096600  0.15762600  1
  H  H132  1  0.32244400  0.80096600  0.34237400  1
  H  H133  1  0.17755600  0.30096600  0.65762600  1
  H  H134  1  0.82244400  0.19903400  0.15762600  1
  H  H135  1  0.67755600  0.69903400  0.84237400  1
  H  H136  1  0.66597800  0.35433700  0.49077700  1
  H  H137  1  0.83402200  0.85433700  0.50922300  1
  H  H138  1  0.16597800  0.64566300  0.00922300  1
  H  H139  1  0.33402200  0.14566300  0.99077700  1
  H  H140  1  0.33402200  0.64566300  0.50922300  1
  H  H141  1  0.16597800  0.14566300  0.49077700  1
  H  H142  1  0.83402200  0.35433700  0.99077700  1
  H  H143  1  0.66597800  0.85433700  0.00922300  1
  H  H144  1  0.48268600  0.41662900  0.65954900  1
  H  H145  1  0.01731400  0.91662900  0.34045100  1
  H  H146  1  0.98268600  0.58337100  0.84045100  1
  H  H147  1  0.51731400  0.08337100  0.15954900  1
  H  H148  1  0.51731400  0.58337100  0.34045100  1
  H  H149  1  0.98268600  0.08337100  0.65954900  1
  H  H150  1  0.01731400  0.41662900  0.15954900  1
  H  H151  1  0.48268600  0.91662900  0.84045100  1
  H  H152  1  0.61365400  0.37550000  0.84794900  1
  H  H153  1  0.88634600  0.87550000  0.15205100  1
  H  H154  1  0.11365400  0.62450000  0.65205100  1
  H  H155  1  0.38634600  0.12450000  0.34794900  1
  H  H156  1  0.38634600  0.62450000  0.15205100  1
  H  H157  1  0.11365400  0.12450000  0.84794900  1
  H  H158  1  0.88634600  0.37550000  0.34794900  1
  H  H159  1  0.87354900  0.06585000  0.99190100  1
