# generated using pymatgen
data_Sb3Rh
_symmetry_space_group_name_H-M   'P 1'
_cell_length_a   9.38181600
_cell_length_b   9.38181600
_cell_length_c   9.38181600
_cell_angle_alpha   90.00000000
_cell_angle_beta   90.00000000
_cell_angle_gamma   90.00000000
_symmetry_Int_Tables_number   1
_chemical_formula_structural   Sb3Rh
_chemical_formula_sum   'Sb24 Rh8'
_cell_volume   825.77310382
_cell_formula_units_Z   8
loop_
 _symmetry_equiv_pos_site_id
 _symmetry_equiv_pos_as_xyz
  1  'x, y, z'
loop_
 _atom_site_type_symbol
 _atom_site_label
 _atom_site_symmetry_multiplicity
 _atom_site_fract_x
 _atom_site_fract_y
 _atom_site_fract_z
 _atom_site_occupancy
  Sb  Sb0  1  0.65973600  0.00000000  0.15495700  1
  Sb  Sb1  1  0.84026400  0.50000000  0.34504300  1
  Sb  Sb2  1  0.15973600  0.50000000  0.34504300  1
  Sb  Sb3  1  0.34026400  0.00000000  0.15495700  1
  Sb  Sb4  1  0.00000000  0.15495700  0.65973600  1
  Sb  Sb5  1  0.50000000  0.34504300  0.84026400  1
  Sb  Sb6  1  0.50000000  0.34504300  0.15973600  1
  Sb  Sb7  1  0.00000000  0.15495700  0.34026400  1
  Sb  Sb8  1  0.15495700  0.65973600  0.00000000  1
  Sb  Sb9  1  0.34504300  0.84026400  0.50000000  1
  Sb  Sb10  1  0.34504300  0.15973600  0.50000000  1
  Sb  Sb11  1  0.15495700  0.34026400  0.00000000  1
  Sb  Sb12  1  0.15973600  0.50000000  0.65495700  1
  Sb  Sb13  1  0.34026400  0.00000000  0.84504300  1
  Sb  Sb14  1  0.65973600  0.00000000  0.84504300  1
  Sb  Sb15  1  0.84026400  0.50000000  0.65495700  1
  Sb  Sb16  1  0.50000000  0.65495700  0.15973600  1
  Sb  Sb17  1  0.00000000  0.84504300  0.34026400  1
  Sb  Sb18  1  0.00000000  0.84504300  0.65973600  1
  Sb  Sb19  1  0.50000000  0.65495700  0.84026400  1
  Sb  Sb20  1  0.65495700  0.15973600  0.50000000  1
  Sb  Sb21  1  0.84504300  0.34026400  0.00000000  1
  Sb  Sb22  1  0.84504300  0.65973600  0.00000000  1
  Sb  Sb23  1  0.65495700  0.84026400  0.50000000  1
  Rh  Rh24  1  0.25000000  0.25000000  0.75000000  1
  Rh  Rh25  1  0.75000000  0.25000000  0.25000000  1
  Rh  Rh26  1  0.25000000  0.75000000  0.25000000  1
  Rh  Rh27  1  0.25000000  0.25000000  0.25000000  1
  Rh  Rh28  1  0.75000000  0.75000000  0.25000000  1
  Rh  Rh29  1  0.25000000  0.75000000  0.75000000  1
  Rh  Rh30  1  0.75000000  0.25000000  0.75000000  1
  Rh  Rh31  1  0.75000000  0.75000000  0.75000000  1
