# generated using pymatgen
data_KTcCl3
_symmetry_space_group_name_H-M   'P 1'
_cell_length_a   8.54430400
_cell_length_b   14.30200600
_cell_length_c   9.06021125
_cell_angle_alpha   90.00000000
_cell_angle_beta   97.09447173
_cell_angle_gamma   90.00000000
_symmetry_Int_Tables_number   1
_chemical_formula_structural   KTcCl3
_chemical_formula_sum   'K8 Tc8 Cl24'
_cell_volume   1098.68743637
_cell_formula_units_Z   8
loop_
 _symmetry_equiv_pos_site_id
 _symmetry_equiv_pos_as_xyz
  1  'x, y, z'
loop_
 _atom_site_type_symbol
 _atom_site_label
 _atom_site_symmetry_multiplicity
 _atom_site_fract_x
 _atom_site_fract_y
 _atom_site_fract_z
 _atom_site_occupancy
  K  K0  1  0.71894000  0.83367600  0.60383500  1
  K  K1  1  0.71894000  0.16632400  0.10383500  1
  K  K2  1  0.66130100  0.83258400  0.10676700  1
  K  K3  1  0.66130100  0.16741600  0.60676700  1
  K  K4  1  0.21894000  0.33367600  0.60383500  1
  K  K5  1  0.21894000  0.66632400  0.10383500  1
  K  K6  1  0.16130100  0.33258400  0.10676700  1
  K  K7  1  0.16130100  0.66741600  0.60676700  1
  Tc  Tc8  1  0.27223600  0.95186100  0.79098900  1
  Tc  Tc9  1  0.27223600  0.04813900  0.29098900  1
  Tc  Tc10  1  0.09468700  0.95039300  0.93211300  1
  Tc  Tc11  1  0.09468700  0.04960700  0.43211300  1
  Tc  Tc12  1  0.77223600  0.45186100  0.79098900  1
  Tc  Tc13  1  0.77223600  0.54813900  0.29098900  1
  Tc  Tc14  1  0.59468700  0.45039300  0.93211300  1
  Tc  Tc15  1  0.59468700  0.54960700  0.43211300  1
  Cl  Cl16  1  0.49825250  0.01369650  0.94327400  1
  Cl  Cl17  1  0.49825250  0.98630350  0.44327400  1
  Cl  Cl18  1  0.86287000  0.01185100  0.78816900  1
  Cl  Cl19  1  0.86287000  0.98814900  0.28816900  1
  Cl  Cl20  1  0.39936850  0.80027450  0.82126100  1
  Cl  Cl21  1  0.39936850  0.19972550  0.32126100  1
  Cl  Cl22  1  0.23426050  0.10359750  0.66737600  1
  Cl  Cl23  1  0.23426050  0.89640250  0.16737600  1
  Cl  Cl24  1  0.12891850  0.10189050  0.05670100  1
  Cl  Cl25  1  0.12891850  0.89810950  0.55670100  1
  Cl  Cl26  1  0.47336600  0.70258400  0.39591400  1
  Cl  Cl27  1  0.47336600  0.29741600  0.89591400  1
  Cl  Cl28  1  0.99825250  0.51369650  0.94327400  1
  Cl  Cl29  1  0.99825250  0.48630350  0.44327400  1
  Cl  Cl30  1  0.36287000  0.51185100  0.78816900  1
  Cl  Cl31  1  0.36287000  0.48814900  0.28816900  1
  Cl  Cl32  1  0.89936850  0.30027450  0.82126100  1
  Cl  Cl33  1  0.89936850  0.69972550  0.32126100  1
  Cl  Cl34  1  0.73426050  0.60359750  0.66737600  1
  Cl  Cl35  1  0.73426050  0.39640250  0.16737600  1
  Cl  Cl36  1  0.62891850  0.60189050  0.05670100  1
  Cl  Cl37  1  0.62891850  0.39810950  0.55670100  1
  Cl  Cl38  1  0.97336600  0.20258400  0.39591400  1
  Cl  Cl39  1  0.97336600  0.79741600  0.89591400  1
