# generated using pymatgen
data_Sr4Bi6Se13
_symmetry_space_group_name_H-M   'P 1'
_cell_length_a   17.27204800
_cell_length_b   4.27493000
_cell_length_c   18.73284480
_cell_angle_alpha   90.00000000
_cell_angle_beta   90.41517438
_cell_angle_gamma   90.00000000
_symmetry_Int_Tables_number   1
_chemical_formula_structural   Sr4Bi6Se13
_chemical_formula_sum   'Sr8 Bi12 Se26'
_cell_volume   1383.13693000
_cell_formula_units_Z   2
loop_
 _symmetry_equiv_pos_site_id
 _symmetry_equiv_pos_as_xyz
  1  'x, y, z'
loop_
 _atom_site_type_symbol
 _atom_site_label
 _atom_site_symmetry_multiplicity
 _atom_site_fract_x
 _atom_site_fract_y
 _atom_site_fract_z
 _atom_site_occupancy
  Sr  Sr0  1  0.51159500  0.25000000  0.75371100  1
  Sr  Sr1  1  0.48840500  0.75000000  0.24628900  1
  Sr  Sr2  1  0.77079200  0.25000000  0.81997900  1
  Sr  Sr3  1  0.22920800  0.75000000  0.18002100  1
  Sr  Sr4  1  0.98681500  0.25000000  0.65966700  1
  Sr  Sr5  1  0.01318500  0.75000000  0.34033300  1
  Sr  Sr6  1  0.24293300  0.25000000  0.72898100  1
  Sr  Sr7  1  0.75706700  0.75000000  0.27101900  1
  Bi  Bi8  1  0.17063000  0.75000000  0.52209500  1
  Bi  Bi9  1  0.82937000  0.25000000  0.47790500  1
  Bi  Bi10  1  0.32684900  0.25000000  0.38014700  1
  Bi  Bi11  1  0.67315100  0.75000000  0.61985300  1
  Bi  Bi12  1  0.58319100  0.25000000  0.42176100  1
  Bi  Bi13  1  0.41680900  0.75000000  0.57823900  1
  Bi  Bi14  1  0.81287800  0.75000000  0.04442400  1
  Bi  Bi15  1  0.18712200  0.25000000  0.95557600  1
  Bi  Bi16  1  0.01020000  0.25000000  0.11968400  1
  Bi  Bi17  1  0.98980000  0.75000000  0.88031600  1
  Bi  Bi18  1  0.60651900  0.25000000  0.01884300  1
  Bi  Bi19  1  0.39348100  0.75000000  0.98115700  1
  Se  Se20  1  0.38348100  0.75000000  0.72265500  1
  Se  Se21  1  0.61651900  0.25000000  0.27734500  1
  Se  Se22  1  0.12381900  0.75000000  0.66517700  1
  Se  Se23  1  0.87618100  0.25000000  0.33482300  1
  Se  Se24  1  0.93043600  0.75000000  0.51464700  1
  Se  Se25  1  0.06956400  0.25000000  0.48535300  1
  Se  Se26  1  0.26466400  0.75000000  0.87397500  1
  Se  Se27  1  0.73533600  0.25000000  0.12602500  1
  Se  Se28  1  0.89424100  0.75000000  0.76247200  1
  Se  Se29  1  0.10575900  0.25000000  0.23752800  1
  Se  Se30  1  0.89448000  0.25000000  0.96071800  1
  Se  Se31  1  0.10552000  0.75000000  0.03928200  1
  Se  Se32  1  0.64244200  0.75000000  0.76411500  1
  Se  Se33  1  0.35755800  0.25000000  0.23588500  1
  Se  Se34  1  0.92010900  0.75000000  0.17759900  1
  Se  Se35  1  0.07989100  0.25000000  0.82240100  1
  Se  Se36  1  0.69528900  0.75000000  0.93870200  1
  Se  Se37  1  0.30471100  0.25000000  0.06129800  1
  Se  Se38  1  0.52120600  0.75000000  0.08714300  1
  Se  Se39  1  0.47879400  0.25000000  0.91285700  1
  Se  Se40  1  0.30159000  0.25000000  0.55566100  1
  Se  Se41  1  0.69841000  0.75000000  0.44433900  1
  Se  Se42  1  0.54015000  0.25000000  0.58987200  1
  Se  Se43  1  0.45985000  0.75000000  0.41012800  1
  Se  Se44  1  0.78021700  0.25000000  0.63879400  1
  Se  Se45  1  0.21978300  0.75000000  0.36120600  1
