# generated using pymatgen
data_BaCuN
_symmetry_space_group_name_H-M   'P 1'
_cell_length_a   14.57302200
_cell_length_b   5.61671000
_cell_length_c   9.56267033
_cell_angle_alpha   90.00000000
_cell_angle_beta   102.83259611
_cell_angle_gamma   90.00000000
_symmetry_Int_Tables_number   1
_chemical_formula_structural   BaCuN
_chemical_formula_sum   'Ba12 Cu12 N12'
_cell_volume   763.17781144
_cell_formula_units_Z   12
loop_
 _symmetry_equiv_pos_site_id
 _symmetry_equiv_pos_as_xyz
  1  'x, y, z'
loop_
 _atom_site_type_symbol
 _atom_site_label
 _atom_site_symmetry_multiplicity
 _atom_site_fract_x
 _atom_site_fract_y
 _atom_site_fract_z
 _atom_site_occupancy
  Ba  Ba0  1  0.00000000  0.71770700  0.25000000  1
  Ba  Ba1  1  0.00000000  0.28229300  0.75000000  1
  Ba  Ba2  1  0.66825800  0.73780100  0.12891600  1
  Ba  Ba3  1  0.83174200  0.23780100  0.37108400  1
  Ba  Ba4  1  0.83174200  0.76219900  0.87108400  1
  Ba  Ba5  1  0.66825800  0.26219900  0.62891600  1
  Ba  Ba6  1  0.50000000  0.21770700  0.25000000  1
  Ba  Ba7  1  0.50000000  0.78229300  0.75000000  1
  Ba  Ba8  1  0.16825800  0.23780100  0.12891600  1
  Ba  Ba9  1  0.33174200  0.73780100  0.37108400  1
  Ba  Ba10  1  0.33174200  0.26219900  0.87108400  1
  Ba  Ba11  1  0.16825800  0.76219900  0.62891600  1
  Cu  Cu12  1  0.57382450  0.26773050  0.94053100  1
  Cu  Cu13  1  0.92617550  0.76773050  0.55946900  1
  Cu  Cu14  1  0.92617550  0.23226950  0.05946900  1
  Cu  Cu15  1  0.57382450  0.73226950  0.44053100  1
  Cu  Cu16  1  0.75000000  0.25000000  0.00000000  1
  Cu  Cu17  1  0.75000000  0.75000000  0.50000000  1
  Cu  Cu18  1  0.07382450  0.76773050  0.94053100  1
  Cu  Cu19  1  0.42617550  0.26773050  0.55946900  1
  Cu  Cu20  1  0.42617550  0.73226950  0.05946900  1
  Cu  Cu21  1  0.07382450  0.23226950  0.44053100  1
  Cu  Cu22  1  0.25000000  0.75000000  0.00000000  1
  Cu  Cu23  1  0.25000000  0.25000000  0.50000000  1
  N  N24  1  0.00000000  0.00000000  0.50000000  1
  N  N25  1  0.00000000  0.00000000  0.00000000  1
  N  N26  1  0.65875300  0.95779000  0.39375300  1
  N  N27  1  0.84124700  0.45779000  0.10624700  1
  N  N28  1  0.84124700  0.54221000  0.60624700  1
  N  N29  1  0.65875300  0.04221000  0.89375300  1
  N  N30  1  0.50000000  0.50000000  0.50000000  1
  N  N31  1  0.50000000  0.50000000  0.00000000  1
  N  N32  1  0.15875300  0.45779000  0.39375300  1
  N  N33  1  0.34124700  0.95779000  0.10624700  1
  N  N34  1  0.34124700  0.04221000  0.60624700  1
  N  N35  1  0.15875300  0.54221000  0.89375300  1
