# generated using pymatgen
data_InI
_symmetry_space_group_name_H-M   'P 1'
_cell_length_a   4.85880000
_cell_length_b   12.99908600
_cell_length_c   4.95236900
_cell_angle_alpha   90.00000000
_cell_angle_beta   90.00000000
_cell_angle_gamma   90.00000000
_symmetry_Int_Tables_number   1
_chemical_formula_structural   InI
_chemical_formula_sum   'In4 I4'
_cell_volume   312.79142327
_cell_formula_units_Z   4
loop_
 _symmetry_equiv_pos_site_id
 _symmetry_equiv_pos_as_xyz
  1  'x, y, z'
loop_
 _atom_site_type_symbol
 _atom_site_label
 _atom_site_symmetry_multiplicity
 _atom_site_fract_x
 _atom_site_fract_y
 _atom_site_fract_z
 _atom_site_occupancy
  In  In0  1  0.00000000  0.60459000  0.75000000  1
  In  In1  1  0.50000000  0.89541000  0.25000000  1
  In  In2  1  0.50000000  0.10459000  0.75000000  1
  In  In3  1  0.00000000  0.39541000  0.25000000  1
  I  I4  1  0.00000000  0.85720900  0.75000000  1
  I  I5  1  0.50000000  0.64279100  0.25000000  1
  I  I6  1  0.50000000  0.35720900  0.75000000  1
  I  I7  1  0.00000000  0.14279100  0.25000000  1
