# generated using pymatgen
data_EuC2(SN)2
_symmetry_space_group_name_H-M   'P 1'
_cell_length_a   10.22605400
_cell_length_b   6.44649000
_cell_length_c   8.12078869
_cell_angle_alpha   90.00000000
_cell_angle_beta   91.18223784
_cell_angle_gamma   90.00000000
_symmetry_Int_Tables_number   1
_chemical_formula_structural   EuC2(SN)2
_chemical_formula_sum   'Eu4 C8 S8 N8'
_cell_volume   535.22593056
_cell_formula_units_Z   4
loop_
 _symmetry_equiv_pos_site_id
 _symmetry_equiv_pos_as_xyz
  1  'x, y, z'
loop_
 _atom_site_type_symbol
 _atom_site_label
 _atom_site_symmetry_multiplicity
 _atom_site_fract_x
 _atom_site_fract_y
 _atom_site_fract_z
 _atom_site_occupancy
  Eu  Eu0  1  0.50000000  0.58782500  0.75000000  1
  Eu  Eu1  1  0.50000000  0.41217500  0.25000000  1
  Eu  Eu2  1  0.00000000  0.08782500  0.75000000  1
  Eu  Eu3  1  0.00000000  0.91217500  0.25000000  1
  C  C4  1  0.61937450  0.86733050  0.10154000  1
  C  C5  1  0.61937450  0.13266950  0.60154000  1
  C  C6  1  0.38062550  0.13266950  0.89846000  1
  C  C7  1  0.38062550  0.86733050  0.39846000  1
  C  C8  1  0.11937450  0.36733050  0.10154000  1
  C  C9  1  0.11937450  0.63266950  0.60154000  1
  C  C10  1  0.88062550  0.63266950  0.89846000  1
  C  C11  1  0.88062550  0.36733050  0.39846000  1
  S  S12  1  0.29742300  0.93752300  0.82664600  1
  S  S13  1  0.70257700  0.93752300  0.67335400  1
  S  S14  1  0.70257700  0.06247700  0.17335400  1
  S  S15  1  0.29742300  0.06247700  0.32664600  1
  S  S16  1  0.79742300  0.43752300  0.82664600  1
  S  S17  1  0.20257700  0.43752300  0.67335400  1
  S  S18  1  0.20257700  0.56247700  0.17335400  1
  S  S19  1  0.79742300  0.56247700  0.32664600  1
  N  N20  1  0.55953250  0.72122650  0.05001600  1
  N  N21  1  0.55953250  0.27877350  0.55001600  1
  N  N22  1  0.44046750  0.72122650  0.44998400  1
  N  N23  1  0.44046750  0.27877350  0.94998400  1
  N  N24  1  0.05953250  0.22122650  0.05001600  1
  N  N25  1  0.05953250  0.77877350  0.55001600  1
  N  N26  1  0.94046750  0.22122650  0.44998400  1
  N  N27  1  0.94046750  0.77877350  0.94998400  1
