# generated using pymatgen
data_CClF3
_symmetry_space_group_name_H-M   'P 1'
_cell_length_a   7.49350800
_cell_length_b   9.86253600
_cell_length_c   4.89407500
_cell_angle_alpha   90.00000000
_cell_angle_beta   90.00000000
_cell_angle_gamma   90.00000000
_symmetry_Int_Tables_number   1
_chemical_formula_structural   CClF3
_chemical_formula_sum   'C4 Cl4 F12'
_cell_volume   361.69657576
_cell_formula_units_Z   4
loop_
 _symmetry_equiv_pos_site_id
 _symmetry_equiv_pos_as_xyz
  1  'x, y, z'
loop_
 _atom_site_type_symbol
 _atom_site_label
 _atom_site_symmetry_multiplicity
 _atom_site_fract_x
 _atom_site_fract_y
 _atom_site_fract_z
 _atom_site_occupancy
  C  C0  1  0.50000000  0.18963700  0.99844300  1
  C  C1  1  0.50000000  0.81036300  0.49844300  1
  C  C2  1  0.00000000  0.68963700  0.99844300  1
  C  C3  1  0.00000000  0.31036300  0.49844300  1
  Cl  Cl4  1  0.50000000  0.36167000  0.90727300  1
  Cl  Cl5  1  0.50000000  0.63833000  0.40727300  1
  Cl  Cl6  1  0.00000000  0.86167000  0.90727300  1
  Cl  Cl7  1  0.00000000  0.13833000  0.40727300  1
  F  F8  1  0.50000000  0.17543200  0.27297800  1
  F  F9  1  0.50000000  0.82456800  0.77297800  1
  F  F10  1  0.64616200  0.12664700  0.89790300  1
  F  F11  1  0.35383800  0.87335300  0.39790300  1
  F  F12  1  0.35383800  0.12664700  0.89790300  1
  F  F13  1  0.64616200  0.87335300  0.39790300  1
  F  F14  1  0.00000000  0.67543200  0.27297800  1
  F  F15  1  0.00000000  0.32456800  0.77297800  1
  F  F16  1  0.14616200  0.62664700  0.89790300  1
  F  F17  1  0.85383800  0.37335300  0.39790300  1
  F  F18  1  0.85383800  0.62664700  0.89790300  1
  F  F19  1  0.14616200  0.37335300  0.39790300  1
