# generated using pymatgen
data_Tl6SBr4
_symmetry_space_group_name_H-M   'P 1'
_cell_length_a   9.00879800
_cell_length_b   9.00879800
_cell_length_c   9.56734100
_cell_angle_alpha   90.00000000
_cell_angle_beta   90.00000000
_cell_angle_gamma   90.00000000
_symmetry_Int_Tables_number   1
_chemical_formula_structural   Tl6SBr4
_chemical_formula_sum   'Tl12 S2 Br8'
_cell_volume   776.47048395
_cell_formula_units_Z   2
loop_
 _symmetry_equiv_pos_site_id
 _symmetry_equiv_pos_as_xyz
  1  'x, y, z'
loop_
 _atom_site_type_symbol
 _atom_site_label
 _atom_site_symmetry_multiplicity
 _atom_site_fract_x
 _atom_site_fract_y
 _atom_site_fract_z
 _atom_site_occupancy
  Tl  Tl0  1  0.68681800  0.89418400  0.50000000  1
  Tl  Tl1  1  0.31318200  0.10581600  0.50000000  1
  Tl  Tl2  1  0.60581600  0.81318200  0.00000000  1
  Tl  Tl3  1  0.10581600  0.68681800  0.50000000  1
  Tl  Tl4  1  0.89418400  0.31318200  0.50000000  1
  Tl  Tl5  1  0.18681800  0.60581600  0.00000000  1
  Tl  Tl6  1  0.81318200  0.39418400  0.00000000  1
  Tl  Tl7  1  0.39418400  0.18681800  0.00000000  1
  Tl  Tl8  1  0.00000000  0.00000000  0.80040200  1
  Tl  Tl9  1  0.50000000  0.50000000  0.69959800  1
  Tl  Tl10  1  0.00000000  0.00000000  0.19959800  1
  Tl  Tl11  1  0.50000000  0.50000000  0.30040200  1
  S  S12  1  0.00000000  0.00000000  0.50000000  1
  S  S13  1  0.50000000  0.50000000  0.00000000  1
  Br  Br14  1  0.16993100  0.33006900  0.75000000  1
  Br  Br15  1  0.66993100  0.16993100  0.75000000  1
  Br  Br16  1  0.33006900  0.83006900  0.75000000  1
  Br  Br17  1  0.83006900  0.66993100  0.75000000  1
  Br  Br18  1  0.83006900  0.66993100  0.25000000  1
  Br  Br19  1  0.33006900  0.83006900  0.25000000  1
  Br  Br20  1  0.66993100  0.16993100  0.25000000  1
  Br  Br21  1  0.16993100  0.33006900  0.25000000  1
