# generated using pymatgen
data_AuClO
_symmetry_space_group_name_H-M   'P 1'
_cell_length_a   13.98388405
_cell_length_b   13.98388405
_cell_length_c   6.55456172
_cell_angle_alpha   90.00000000
_cell_angle_beta   90.00000000
_cell_angle_gamma   120.00000000
_symmetry_Int_Tables_number   1
_chemical_formula_structural   AuClO
_chemical_formula_sum   'Au18 Cl18 O18'
_cell_volume   1110.01773439
_cell_formula_units_Z   18
loop_
 _symmetry_equiv_pos_site_id
 _symmetry_equiv_pos_as_xyz
  1  'x, y, z'
loop_
 _atom_site_type_symbol
 _atom_site_label
 _atom_site_symmetry_multiplicity
 _atom_site_fract_x
 _atom_site_fract_y
 _atom_site_fract_z
 _atom_site_occupancy
  Au  Au0  1  0.27355500  0.07699300  0.49367000  1
  Au  Au1  1  0.47010467  0.05977833  0.82700333  1
  Au  Au2  1  0.25634033  0.86322867  0.16033667  1
  Au  Au3  1  0.39311167  0.25634033  0.83966333  1
  Au  Au4  1  0.19656200  0.27355500  0.50633000  1
  Au  Au5  1  0.41032633  0.47010467  0.17299667  1
  Au  Au6  1  0.94022167  0.41032633  0.82700333  1
  Au  Au7  1  0.13677133  0.39311167  0.16033667  1
  Au  Au8  1  0.92300700  0.19656200  0.49367000  1
  Au  Au9  1  0.05977833  0.58967367  0.17299667  1
  Au  Au10  1  0.86322867  0.60688833  0.83966333  1
  Au  Au11  1  0.07699300  0.80343800  0.50633000  1
  Au  Au12  1  0.60688833  0.74365967  0.16033667  1
  Au  Au13  1  0.80343800  0.72644500  0.49367000  1
  Au  Au14  1  0.58967367  0.52989533  0.82700333  1
  Au  Au15  1  0.72644500  0.92300700  0.50633000  1
  Au  Au16  1  0.52989533  0.94022167  0.17299667  1
  Au  Au17  1  0.74365967  0.13677133  0.83966333  1
  Cl  Cl18  1  0.40117233  0.55284767  0.46524967  1
  Cl  Cl19  1  0.11381900  0.18165800  0.79858300  1
  Cl  Cl20  1  0.48500867  0.26549433  0.13191633  1
  Cl  Cl21  1  0.26549433  0.78048567  0.86808367  1
  Cl  Cl22  1  0.55284767  0.15167533  0.53475033  1
  Cl  Cl23  1  0.18165800  0.06783900  0.20141700  1
  Cl  Cl24  1  0.06783900  0.88618100  0.79858300  1
  Cl  Cl25  1  0.78048567  0.51499133  0.13191633  1
  Cl  Cl26  1  0.15167533  0.59882767  0.46524967  1
  Cl  Cl27  1  0.93216100  0.11381900  0.20141700  1
  Cl  Cl28  1  0.21951433  0.48500867  0.86808367  1
  Cl  Cl29  1  0.84832467  0.40117233  0.53475033  1
  Cl  Cl30  1  0.73450567  0.21951433  0.13191633  1
  Cl  Cl31  1  0.44715233  0.84832467  0.46524967  1
  Cl  Cl32  1  0.81834200  0.93216100  0.79858300  1
  Cl  Cl33  1  0.59882767  0.44715233  0.53475033  1
  Cl  Cl34  1  0.88618100  0.81834200  0.20141700  1
  Cl  Cl35  1  0.51499133  0.73450567  0.86808367  1
  O  O36  1  0.23985700  0.91871900  0.45042800  1
  O  O37  1  0.34552867  0.09347633  0.78376133  1
  O  O38  1  0.41461433  0.98780467  0.11709467  1
  O  O39  1  0.42680967  0.41461433  0.88290533  1
  O  O40  1  0.32113800  0.23985700  0.54957200  1
  O  O41  1  0.25205233  0.34552867  0.21623867  1
  O  O42  1  0.90652367  0.25205233  0.78376133  1
  O  O43  1  0.01219533  0.42680967  0.11709467  1
  O  O44  1  0.08128100  0.32113800  0.45042800  1
  O  O45  1  0.09347633  0.74794767  0.21623867  1
  O  O46  1  0.98780467  0.57319033  0.88290533  1
  O  O47  1  0.91871900  0.67886200  0.54957200  1
  O  O48  1  0.57319033  0.58538567  0.11709467  1
  O  O49  1  0.67886200  0.76014300  0.45042800  1
  O  O50  1  0.74794767  0.65447133  0.78376133  1
  O  O51  1  0.76014300  0.08128100  0.54957200  1
  O  O52  1  0.65447133  0.90652367  0.21623867  1
  O  O53  1  0.58538567  0.01219533  0.88290533  1
