# generated using pymatgen
data_InBr
_symmetry_space_group_name_H-M   'P 1'
_cell_length_a   4.61099800
_cell_length_b   12.61819000
_cell_length_c   4.69258300
_cell_angle_alpha   90.00000000
_cell_angle_beta   90.00000000
_cell_angle_gamma   90.00000000
_symmetry_Int_Tables_number   1
_chemical_formula_structural   InBr
_chemical_formula_sum   'In4 Br4'
_cell_volume   273.02597039
_cell_formula_units_Z   4
loop_
 _symmetry_equiv_pos_site_id
 _symmetry_equiv_pos_as_xyz
  1  'x, y, z'
loop_
 _atom_site_type_symbol
 _atom_site_label
 _atom_site_symmetry_multiplicity
 _atom_site_fract_x
 _atom_site_fract_y
 _atom_site_fract_z
 _atom_site_occupancy
  In  In0  1  0.00000000  0.60954800  0.75000000  1
  In  In1  1  0.50000000  0.89045200  0.25000000  1
  In  In2  1  0.50000000  0.10954800  0.75000000  1
  In  In3  1  0.00000000  0.39045200  0.25000000  1
  Br  Br4  1  0.00000000  0.85145500  0.75000000  1
  Br  Br5  1  0.50000000  0.64854500  0.25000000  1
  Br  Br6  1  0.50000000  0.35145500  0.75000000  1
  Br  Br7  1  0.00000000  0.14854500  0.25000000  1
