# generated using pymatgen
data_Sb2XeF14
_symmetry_space_group_name_H-M   'P 1'
_cell_length_a   8.22895747
_cell_length_b   8.49516295
_cell_length_c   9.81400881
_cell_angle_alpha   112.60988607
_cell_angle_beta   89.52802034
_cell_angle_gamma   112.15987600
_symmetry_Int_Tables_number   1
_chemical_formula_structural   Sb2XeF14
_chemical_formula_sum   'Sb4 Xe2 F28'
_cell_volume   578.99754123
_cell_formula_units_Z   2
loop_
 _symmetry_equiv_pos_site_id
 _symmetry_equiv_pos_as_xyz
  1  'x, y, z'
loop_
 _atom_site_type_symbol
 _atom_site_label
 _atom_site_symmetry_multiplicity
 _atom_site_fract_x
 _atom_site_fract_y
 _atom_site_fract_z
 _atom_site_occupancy
  Sb  Sb0  1  0.20578369  0.35998346  0.77073592  1
  Sb  Sb1  1  0.79421631  0.64001654  0.22926408  1
  Sb  Sb2  1  0.50897647  0.12636269  0.70843069  1
  Sb  Sb3  1  0.49102353  0.87363731  0.29156931  1
  Xe  Xe4  1  0.19233513  0.29442158  0.25885856  1
  Xe  Xe5  1  0.80766487  0.70557842  0.74114144  1
  F  F6  1  0.12217522  0.37629111  0.57160652  1
  F  F7  1  0.87782478  0.62370889  0.42839348  1
  F  F8  1  0.41052509  0.56291936  0.70565316  1
  F  F9  1  0.58947491  0.43708064  0.29434684  1
  F  F10  1  0.34525115  0.88928484  0.76431543  1
  F  F11  1  0.65474885  0.11071516  0.23568457  1
  F  F12  1  0.64881383  0.80595125  0.21684931  1
  F  F13  1  0.35118617  0.19404875  0.78315069  1
  F  F14  1  0.65102321  0.80376908  0.48577688  1
  F  F15  1  0.34897679  0.19623092  0.51422312  1
  F  F16  1  0.36401383  0.61854169  0.36071274  1
  F  F17  1  0.63598617  0.38145831  0.63928726  1
  F  F18  1  0.68286533  0.68118993  0.02782697  1
  F  F19  1  0.31713467  0.31881007  0.97217303  1
  F  F20  1  0.35084586  0.92184225  0.10048674  1
  F  F21  1  0.64915414  0.07815775  0.89951326  1
  F  F22  1  0.97559719  0.86263148  0.16078476  1
  F  F23  1  0.02440281  0.13736852  0.83921524  1
  F  F24  1  0.92170679  0.48701250  0.24121307  1
  F  F25  1  0.07829321  0.51298750  0.75878693  1
  F  F26  1  0.35544485  0.93809365  0.36961329  1
  F  F27  1  0.64455515  0.06190635  0.63038671  1
  F  F28  1  0.00462369  0.72286867  0.90566287  1
  F  F29  1  0.99537631  0.27713133  0.09433713  1
  F  F30  1  0.95732605  0.95728251  0.63326137  1
  F  F31  1  0.04267395  0.04271749  0.36673863  1
  F  F32  1  0.71905706  0.45632440  0.89772315  1
  F  F33  1  0.28094294  0.54367560  0.10227685  1
