# generated using pymatgen
data_Ag2TeS3
_symmetry_space_group_name_H-M   'P 1'
_cell_length_a   6.92004200
_cell_length_b   11.66087400
_cell_length_c   8.00666450
_cell_angle_alpha   90.00000000
_cell_angle_beta   114.26664742
_cell_angle_gamma   90.00000000
_symmetry_Int_Tables_number   1
_chemical_formula_structural   Ag2TeS3
_chemical_formula_sum   'Ag8 Te4 S12'
_cell_volume   589.00110301
_cell_formula_units_Z   4
loop_
 _symmetry_equiv_pos_site_id
 _symmetry_equiv_pos_as_xyz
  1  'x, y, z'
loop_
 _atom_site_type_symbol
 _atom_site_label
 _atom_site_symmetry_multiplicity
 _atom_site_fract_x
 _atom_site_fract_y
 _atom_site_fract_z
 _atom_site_occupancy
  Ag  Ag0  1  0.66134350  0.96741850  0.12453900  1
  Ag  Ag1  1  0.61477100  0.29482800  0.08166200  1
  Ag  Ag2  1  0.66134350  0.03258150  0.62453900  1
  Ag  Ag3  1  0.61477100  0.70517200  0.58166200  1
  Ag  Ag4  1  0.16134350  0.46741850  0.12453900  1
  Ag  Ag5  1  0.11477100  0.79482800  0.08166200  1
  Ag  Ag6  1  0.16134350  0.53258150  0.62453900  1
  Ag  Ag7  1  0.11477100  0.20517200  0.58166200  1
  Te  Te8  1  0.14679850  0.14127250  0.09724700  1
  Te  Te9  1  0.14679850  0.85872750  0.59724700  1
  Te  Te10  1  0.64679850  0.64127250  0.09724700  1
  Te  Te11  1  0.64679850  0.35872750  0.59724700  1
  S  S12  1  0.76427450  0.11938950  0.94583400  1
  S  S13  1  0.76427450  0.88061050  0.44583400  1
  S  S14  1  0.24998350  0.02627450  0.48451000  1
  S  S15  1  0.24998350  0.97372550  0.98451000  1
  S  S16  1  0.70262950  0.21311550  0.40720700  1
  S  S17  1  0.70262950  0.78688450  0.90720700  1
  S  S18  1  0.26427450  0.61938950  0.94583400  1
  S  S19  1  0.26427450  0.38061050  0.44583400  1
  S  S20  1  0.74998350  0.52627450  0.48451000  1
  S  S21  1  0.74998350  0.47372550  0.98451000  1
  S  S22  1  0.20262950  0.71311550  0.40720700  1
  S  S23  1  0.20262950  0.28688450  0.90720700  1
