# generated using pymatgen
data_Hg3(SBr)2
_symmetry_space_group_name_H-M   'P 1'
_cell_length_a   18.68937200
_cell_length_b   9.53394800
_cell_length_c   10.61778809
_cell_angle_alpha   90.00000000
_cell_angle_beta   116.10331772
_cell_angle_gamma   90.00000000
_symmetry_Int_Tables_number   1
_chemical_formula_structural   Hg3(SBr)2
_chemical_formula_sum   'Hg24 S16 Br16'
_cell_volume   1698.94333070
_cell_formula_units_Z   8
loop_
 _symmetry_equiv_pos_site_id
 _symmetry_equiv_pos_as_xyz
  1  'x, y, z'
loop_
 _atom_site_type_symbol
 _atom_site_label
 _atom_site_symmetry_multiplicity
 _atom_site_fract_x
 _atom_site_fract_y
 _atom_site_fract_z
 _atom_site_occupancy
  Hg  Hg0  1  0.42726550  0.23335750  0.70594900  1
  Hg  Hg1  1  0.07273450  0.73335750  0.29405100  1
  Hg  Hg2  1  0.07273450  0.26664250  0.29405100  1
  Hg  Hg3  1  0.42726550  0.76664250  0.70594900  1
  Hg  Hg4  1  0.36961950  0.23686650  0.99587800  1
  Hg  Hg5  1  0.13038050  0.73686650  0.00412200  1
  Hg  Hg6  1  0.13038050  0.26313350  0.00412200  1
  Hg  Hg7  1  0.36961950  0.76313350  0.99587800  1
  Hg  Hg8  1  0.21580500  0.00000000  0.28409000  1
  Hg  Hg9  1  0.28419500  0.50000000  0.71591000  1
  Hg  Hg10  1  0.07498800  0.00000000  0.72842800  1
  Hg  Hg11  1  0.42501200  0.50000000  0.27157200  1
  Hg  Hg12  1  0.92726550  0.73335750  0.70594900  1
  Hg  Hg13  1  0.57273450  0.23335750  0.29405100  1
  Hg  Hg14  1  0.57273450  0.76664250  0.29405100  1
  Hg  Hg15  1  0.92726550  0.26664250  0.70594900  1
  Hg  Hg16  1  0.86961950  0.73686650  0.99587800  1
  Hg  Hg17  1  0.63038050  0.23686650  0.00412200  1
  Hg  Hg18  1  0.63038050  0.76313350  0.00412200  1
  Hg  Hg19  1  0.86961950  0.26313350  0.99587800  1
  Hg  Hg20  1  0.71580500  0.50000000  0.28409000  1
  Hg  Hg21  1  0.78419500  0.00000000  0.71591000  1
  Hg  Hg22  1  0.57498800  0.50000000  0.72842800  1
  Hg  Hg23  1  0.92501200  0.00000000  0.27157200  1
  S  S24  1  0.43216250  0.24494750  0.25110900  1
  S  S25  1  0.06783750  0.74494750  0.74889100  1
  S  S26  1  0.06783750  0.25505250  0.74889100  1
  S  S27  1  0.43216250  0.75505250  0.25110900  1
  S  S28  1  0.30550350  0.24521550  0.74052200  1
  S  S29  1  0.19449650  0.74521550  0.25947800  1
  S  S30  1  0.19449650  0.25478450  0.25947800  1
  S  S31  1  0.30550350  0.75478450  0.74052200  1
  S  S32  1  0.93216250  0.74494750  0.25110900  1
  S  S33  1  0.56783750  0.24494750  0.74889100  1
  S  S34  1  0.56783750  0.75505250  0.74889100  1
  S  S35  1  0.93216250  0.25505250  0.25110900  1
  S  S36  1  0.80550350  0.74521550  0.74052200  1
  S  S37  1  0.69449650  0.24521550  0.25947800  1
  S  S38  1  0.69449650  0.75478450  0.25947800  1
  S  S39  1  0.80550350  0.25478450  0.74052200  1
  Br  Br40  1  0.25018600  0.50000000  0.99650300  1
  Br  Br41  1  0.24981400  0.00000000  0.00349700  1
  Br  Br42  1  0.11755100  0.00000000  0.48628600  1
  Br  Br43  1  0.38244900  0.50000000  0.51371400  1
  Br  Br44  1  0.00000000  0.00000000  0.00000000  1
  Br  Br45  1  0.00000000  0.50000000  0.00000000  1
  Br  Br46  1  0.38093600  0.00000000  0.50419400  1
  Br  Br47  1  0.11906400  0.50000000  0.49580600  1
  Br  Br48  1  0.75018600  0.00000000  0.99650300  1
  Br  Br49  1  0.74981400  0.50000000  0.00349700  1
  Br  Br50  1  0.61755100  0.50000000  0.48628600  1
  Br  Br51  1  0.88244900  0.00000000  0.51371400  1
  Br  Br52  1  0.50000000  0.50000000  0.00000000  1
  Br  Br53  1  0.50000000  0.00000000  0.00000000  1
  Br  Br54  1  0.88093600  0.50000000  0.50419400  1
  Br  Br55  1  0.61906400  0.00000000  0.49580600  1
