# generated using pymatgen
data_HfAg2S3
_symmetry_space_group_name_H-M   'P 1'
_cell_length_a   6.70420800
_cell_length_b   11.58137400
_cell_length_c   12.77342400
_cell_angle_alpha   90.00000000
_cell_angle_beta   90.00000000
_cell_angle_gamma   90.00000000
_symmetry_Int_Tables_number   1
_chemical_formula_structural   HfAg2S3
_chemical_formula_sum   'Hf8 Ag16 S24'
_cell_volume   991.77896948
_cell_formula_units_Z   8
loop_
 _symmetry_equiv_pos_site_id
 _symmetry_equiv_pos_as_xyz
  1  'x, y, z'
loop_
 _atom_site_type_symbol
 _atom_site_label
 _atom_site_symmetry_multiplicity
 _atom_site_fract_x
 _atom_site_fract_y
 _atom_site_fract_z
 _atom_site_occupancy
  Hf  Hf0  1  0.50000000  0.83778400  0.50000000  1
  Hf  Hf1  1  0.50000000  0.66221600  0.00000000  1
  Hf  Hf2  1  0.50000000  0.16221600  0.50000000  1
  Hf  Hf3  1  0.50000000  0.33778400  0.00000000  1
  Hf  Hf4  1  0.00000000  0.33778400  0.50000000  1
  Hf  Hf5  1  0.00000000  0.16221600  0.00000000  1
  Hf  Hf6  1  0.00000000  0.66221600  0.50000000  1
  Hf  Hf7  1  0.00000000  0.83778400  0.00000000  1
  Ag  Ag8  1  0.60198700  0.25000000  0.75000000  1
  Ag  Ag9  1  0.47514000  0.00000000  0.18024300  1
  Ag  Ag10  1  0.52486000  0.00000000  0.81975700  1
  Ag  Ag11  1  0.97514000  0.00000000  0.31975700  1
  Ag  Ag12  1  0.39801300  0.75000000  0.25000000  1
  Ag  Ag13  1  0.60198700  0.75000000  0.75000000  1
  Ag  Ag14  1  0.39801300  0.25000000  0.25000000  1
  Ag  Ag15  1  0.02486000  0.00000000  0.68024300  1
  Ag  Ag16  1  0.10198700  0.75000000  0.75000000  1
  Ag  Ag17  1  0.97514000  0.50000000  0.18024300  1
  Ag  Ag18  1  0.02486000  0.50000000  0.81975700  1
  Ag  Ag19  1  0.47514000  0.50000000  0.31975700  1
  Ag  Ag20  1  0.89801300  0.25000000  0.25000000  1
  Ag  Ag21  1  0.10198700  0.25000000  0.75000000  1
  Ag  Ag22  1  0.89801300  0.75000000  0.25000000  1
  Ag  Ag23  1  0.52486000  0.50000000  0.68024300  1
  S  S24  1  0.61053900  0.00000000  0.37648100  1
  S  S25  1  0.88946100  0.00000000  0.87648100  1
  S  S26  1  0.11053900  0.00000000  0.12351900  1
  S  S27  1  0.38946100  0.00000000  0.62351900  1
  S  S28  1  0.67219750  0.82569950  0.10279000  1
  S  S29  1  0.32780250  0.67430050  0.60279000  1
  S  S30  1  0.67219750  0.67430050  0.39721000  1
  S  S31  1  0.32780250  0.82569950  0.89721000  1
  S  S32  1  0.32780250  0.17430050  0.89721000  1
  S  S33  1  0.67219750  0.17430050  0.10279000  1
  S  S34  1  0.32780250  0.32569950  0.60279000  1
  S  S35  1  0.67219750  0.32569950  0.39721000  1
  S  S36  1  0.11053900  0.50000000  0.37648100  1
  S  S37  1  0.38946100  0.50000000  0.87648100  1
  S  S38  1  0.61053900  0.50000000  0.12351900  1
  S  S39  1  0.88946100  0.50000000  0.62351900  1
  S  S40  1  0.17219750  0.32569950  0.10279000  1
  S  S41  1  0.82780250  0.17430050  0.60279000  1
  S  S42  1  0.17219750  0.17430050  0.39721000  1
  S  S43  1  0.82780250  0.32569950  0.89721000  1
  S  S44  1  0.82780250  0.67430050  0.89721000  1
  S  S45  1  0.17219750  0.67430050  0.10279000  1
  S  S46  1  0.82780250  0.82569950  0.60279000  1
  S  S47  1  0.17219750  0.82569950  0.39721000  1
