# generated using pymatgen
data_PtBr3
_symmetry_space_group_name_H-M   'P 1'
_cell_length_a   23.20242146
_cell_length_b   23.20242146
_cell_length_c   9.26874429
_cell_angle_alpha   90.00000000
_cell_angle_beta   90.00000000
_cell_angle_gamma   120.00000000
_symmetry_Int_Tables_number   1
_chemical_formula_structural   PtBr3
_chemical_formula_sum   'Pt36 Br108'
_cell_volume   4321.33718853
_cell_formula_units_Z   36
loop_
 _symmetry_equiv_pos_site_id
 _symmetry_equiv_pos_as_xyz
  1  'x, y, z'
loop_
 _atom_site_type_symbol
 _atom_site_label
 _atom_site_symmetry_multiplicity
 _atom_site_fract_x
 _atom_site_fract_y
 _atom_site_fract_z
 _atom_site_occupancy
  Pt  Pt0  1  0.36729867  0.06028633  0.83140133  1
  Pt  Pt1  1  0.35965433  0.96603467  0.16473467  1
  Pt  Pt2  1  0.27304700  0.97367900  0.49806800  1
  Pt  Pt3  1  0.29936800  0.27304700  0.50193200  1
  Pt  Pt4  1  0.30701233  0.36729867  0.16859867  1
  Pt  Pt5  1  0.39361967  0.35965433  0.83526533  1
  Pt  Pt6  1  0.57414033  0.24784467  0.49082067  1
  Pt  Pt7  1  0.34037100  0.75919300  0.82415400  1
  Pt  Pt8  1  0.08548867  0.99296233  0.15748733  1
  Pt  Pt9  1  0.09252633  0.08548867  0.84251267  1
  Pt  Pt10  1  0.32629567  0.57414033  0.50917933  1
  Pt  Pt11  1  0.58117800  0.34037100  0.17584600  1
  Pt  Pt12  1  0.03396533  0.39361967  0.16473467  1
  Pt  Pt13  1  0.02632100  0.29936800  0.49806800  1
  Pt  Pt14  1  0.93971367  0.30701233  0.83140133  1
  Pt  Pt15  1  0.96603467  0.60638033  0.83526533  1
  Pt  Pt16  1  0.97367900  0.70063200  0.50193200  1
  Pt  Pt17  1  0.06028633  0.69298767  0.16859867  1
  Pt  Pt18  1  0.24080700  0.58117800  0.82415400  1
  Pt  Pt19  1  0.00703767  0.09252633  0.15748733  1
  Pt  Pt20  1  0.75215533  0.32629567  0.49082067  1
  Pt  Pt21  1  0.75919300  0.41882200  0.17584600  1
  Pt  Pt22  1  0.99296233  0.90747367  0.84251267  1
  Pt  Pt23  1  0.24784467  0.67370433  0.50917933  1
  Pt  Pt24  1  0.70063200  0.72695300  0.49806800  1
  Pt  Pt25  1  0.69298767  0.63270133  0.83140133  1
  Pt  Pt26  1  0.60638033  0.64034567  0.16473467  1
  Pt  Pt27  1  0.63270133  0.93971367  0.16859867  1
  Pt  Pt28  1  0.64034567  0.03396533  0.83526533  1
  Pt  Pt29  1  0.72695300  0.02632100  0.50193200  1
  Pt  Pt30  1  0.90747367  0.91451133  0.15748733  1
  Pt  Pt31  1  0.67370433  0.42585967  0.49082067  1
  Pt  Pt32  1  0.41882200  0.65962900  0.82415400  1
  Pt  Pt33  1  0.42585967  0.75215533  0.50917933  1
  Pt  Pt34  1  0.65962900  0.24080700  0.17584600  1
  Pt  Pt35  1  0.91451133  0.00703767  0.84251267  1
  Br  Br36  1  0.48131600  0.44849300  0.68578100  1
  Br  Br37  1  0.30051033  0.18535067  0.35244767  1
  Br  Br38  1  0.21817367  0.36615633  0.01911433  1
  Br  Br39  1  0.18535067  0.88484033  0.64755233  1
  Br  Br40  1  0.36615633  0.14798267  0.98088567  1
  Br  Br41  1  0.44849300  0.96717700  0.31421900  1
  Br  Br42  1  0.27051667  0.88738133  0.33298633  1
  Br  Br43  1  0.28353133  0.06281667  0.66631967  1
  Br  Br44  1  0.44595200  0.04980200  0.99965300  1
  Br  Br45  1  0.39615000  0.44595200  0.00034700  1
  Br  Br46  1  0.38313533  0.27051667  0.66701367  1
  Br  Br47  1  0.22071467  0.28353133  0.33368033  1
  Br  Br48  1  0.58306467  0.34020433  0.64053433  1
  Br  Br49  1  0.32646233  0.57619367  0.97386767  1
  Br  Br50  1  0.09047300  0.08360200  0.30720100  1
  Br  Br51  1  0.08360200  0.99312900  0.69279900  1
  Br  Br52  1  0.34020433  0.75713967  0.35946567  1
  Br  Br53  1  0.57619367  0.24973133  0.02613233  1
  Br  Br54  1  0.09717300  0.17394600  0.99963300  1
  Br  Br55  1  0.49272067  0.25656033  0.33296633  1
  Br  Br56  1  0.41010633  0.56949367  0.66629967  1
  Br  Br57  1  0.56949367  0.15938733  0.33370033  1
  Br  Br58  1  0.17394600  0.07677300  0.00036700  1
  Br  Br59  1  0.25656033  0.76383967  0.66703367  1
  Br  Br60  1  0.36406267  0.97286833  0.66249933  1
  Br  Br61  1  0.36046500  0.05786100  0.32916600  1
  Br  Br62  1  0.27547233  0.96927067  0.99583267  1
  Br  Br63  1  0.30260400  0.36046500  0.67083400  1
  Br  Br64  1  0.30620167  0.27547233  0.00416733  1
  Br  Br65  1  0.39119433  0.36406267  0.33750067  1
  Br  Br66  1  0.48291033  0.35366867  0.98057967  1
  Br  Br67  1  0.31299800  0.46257500  0.31391300  1
  Br  Br68  1  0.20409167  0.18375633  0.64724633  1
  Br  Br69  1  0.18375633  0.97966467  0.35275367  1
  Br  Br70  1  0.35366867  0.87075833  0.01942033  1
  Br  Br71  1  0.46257500  0.14957700  0.68608700  1
  Br  Br72  1  0.14798267  0.78182633  0.01911433  1
  Br  Br73  1  0.96717700  0.51868400  0.68578100  1
  Br  Br74  1  0.88484033  0.69948967  0.35244767  1
  Br  Br75  1  0.85201733  0.21817367  0.98088567  1
  Br  Br76  1  0.03282300  0.48131600  0.31421900  1
  Br  Br77  1  0.11515967  0.30051033  0.64755233  1
  Br  Br78  1  0.93718333  0.22071467  0.66631967  1
  Br  Br79  1  0.95019800  0.39615000  0.99965300  1
  Br  Br80  1  0.11261867  0.38313533  0.33298633  1
  Br  Br81  1  0.06281667  0.77928533  0.33368033  1
  Br  Br82  1  0.04980200  0.60385000  0.00034700  1
  Br  Br83  1  0.88738133  0.61686467  0.66701367  1
  Br  Br84  1  0.24973133  0.67353767  0.97386767  1
  Br  Br85  1  0.99312900  0.90952700  0.30720100  1
  Br  Br86  1  0.75713967  0.41693533  0.64053433  1
  Br  Br87  1  0.75026867  0.32646233  0.02613233  1
  Br  Br88  1  0.00687100  0.09047300  0.69279900  1
  Br  Br89  1  0.24286033  0.58306467  0.35946567  1
  Br  Br90  1  0.76383967  0.50727933  0.33296633  1
  Br  Br91  1  0.15938733  0.58989367  0.66629967  1
  Br  Br92  1  0.07677300  0.90282700  0.99963300  1
  Br  Br93  1  0.23616033  0.49272067  0.66703367  1
  Br  Br94  1  0.84061267  0.41010633  0.33370033  1
  Br  Br95  1  0.92322700  0.09717300  0.00036700  1
  Br  Br96  1  0.03072933  0.30620167  0.99583267  1
  Br  Br97  1  0.02713167  0.39119433  0.66249933  1
  Br  Br98  1  0.94213900  0.30260400  0.32916600  1
  Br  Br99  1  0.96927067  0.69379833  0.00416733  1
  Br  Br100  1  0.97286833  0.60880567  0.33750067  1
  Br  Br101  1  0.05786100  0.69739600  0.67083400  1
  Br  Br102  1  0.14957700  0.68700200  0.31391300  1
  Br  Br103  1  0.97966467  0.79590833  0.64724633  1
  Br  Br104  1  0.87075833  0.51708967  0.98057967  1
  Br  Br105  1  0.85042300  0.31299800  0.68608700  1
  Br  Br106  1  0.02033533  0.20409167  0.35275367  1
  Br  Br107  1  0.12924167  0.48291033  0.01942033  1
  Br  Br108  1  0.81464933  0.11515967  0.35244767  1
  Br  Br109  1  0.63384367  0.85201733  0.01911433  1
  Br  Br110  1  0.55150700  0.03282300  0.68578100  1
  Br  Br111  1  0.51868400  0.55150700  0.31421900  1
  Br  Br112  1  0.69948967  0.81464933  0.64755233  1
  Br  Br113  1  0.78182633  0.63384367  0.98088567  1
  Br  Br114  1  0.60385000  0.55404800  0.99965300  1
  Br  Br115  1  0.61686467  0.72948333  0.33298633  1
  Br  Br116  1  0.77928533  0.71646867  0.66631967  1
  Br  Br117  1  0.72948333  0.11261867  0.66701367  1
  Br  Br118  1  0.71646867  0.93718333  0.33368033  1
  Br  Br119  1  0.55404800  0.95019800  0.00034700  1
  Br  Br120  1  0.91639800  0.00687100  0.30720100  1
  Br  Br121  1  0.65979567  0.24286033  0.64053433  1
  Br  Br122  1  0.42380633  0.75026867  0.97386767  1
  Br  Br123  1  0.41693533  0.65979567  0.35946567  1
  Br  Br124  1  0.67353767  0.42380633  0.02613233  1
  Br  Br125  1  0.90952700  0.91639800  0.69279900  1
  Br  Br126  1  0.43050633  0.84061267  0.66629967  1
  Br  Br127  1  0.82605400  0.92322700  0.99963300  1
  Br  Br128  1  0.74343967  0.23616033  0.33296633  1
  Br  Br129  1  0.90282700  0.82605400  0.00036700  1
  Br  Br130  1  0.50727933  0.74343967  0.66703367  1
  Br  Br131  1  0.58989367  0.43050633  0.33370033  1
  Br  Br132  1  0.69739600  0.63953500  0.32916600  1
  Br  Br133  1  0.69379833  0.72452767  0.99583267  1
  Br  Br134  1  0.60880567  0.63593733  0.66249933  1
  Br  Br135  1  0.63593733  0.02713167  0.33750067  1
  Br  Br136  1  0.63953500  0.94213900  0.67083400  1
  Br  Br137  1  0.72452767  0.03072933  0.00416733  1
  Br  Br138  1  0.81624367  0.02033533  0.64724633  1
  Br  Br139  1  0.64633133  0.12924167  0.98057967  1
  Br  Br140  1  0.53742500  0.85042300  0.31391300  1
  Br  Br141  1  0.51708967  0.64633133  0.01942033  1
  Br  Br142  1  0.68700200  0.53742500  0.68608700  1
  Br  Br143  1  0.79590833  0.81624367  0.35275367  1
