# generated using pymatgen
data_TiAg2O3
_symmetry_space_group_name_H-M   'P 1'
_cell_length_a   17.29733400
_cell_length_b   7.93619600
_cell_length_c   5.05135205
_cell_angle_alpha   90.00000000
_cell_angle_beta   105.74144097
_cell_angle_gamma   90.00000000
_symmetry_Int_Tables_number   1
_chemical_formula_structural   TiAg2O3
_chemical_formula_sum   'Ti8 Ag16 O24'
_cell_volume   667.41816884
_cell_formula_units_Z   8
loop_
 _symmetry_equiv_pos_site_id
 _symmetry_equiv_pos_as_xyz
  1  'x, y, z'
loop_
 _atom_site_type_symbol
 _atom_site_label
 _atom_site_symmetry_multiplicity
 _atom_site_fract_x
 _atom_site_fract_y
 _atom_site_fract_z
 _atom_site_occupancy
  Ti  Ti0  1  0.42297100  0.87947300  0.38213400  1
  Ti  Ti1  1  0.07702900  0.62052700  0.61786600  1
  Ti  Ti2  1  0.07702900  0.37947300  0.11786600  1
  Ti  Ti3  1  0.42297100  0.12052700  0.88213400  1
  Ti  Ti4  1  0.92297100  0.37947300  0.38213400  1
  Ti  Ti5  1  0.57702900  0.12052700  0.61786600  1
  Ti  Ti6  1  0.57702900  0.87947300  0.11786600  1
  Ti  Ti7  1  0.92297100  0.62052700  0.88213400  1
  Ag  Ag8  1  0.25218250  0.37456550  0.73133700  1
  Ag  Ag9  1  0.25218250  0.62543450  0.23133700  1
  Ag  Ag10  1  0.24781750  0.12543450  0.26866300  1
  Ag  Ag11  1  0.24781750  0.87456550  0.76866300  1
  Ag  Ag12  1  0.40533000  0.40680500  0.42384500  1
  Ag  Ag13  1  0.09467000  0.90680500  0.07615500  1
  Ag  Ag14  1  0.09467000  0.09319500  0.57615500  1
  Ag  Ag15  1  0.40533000  0.59319500  0.92384500  1
  Ag  Ag16  1  0.75218250  0.87456550  0.73133700  1
  Ag  Ag17  1  0.75218250  0.12543450  0.23133700  1
  Ag  Ag18  1  0.74781750  0.62543450  0.26866300  1
  Ag  Ag19  1  0.74781750  0.37456550  0.76866300  1
  Ag  Ag20  1  0.90533000  0.90680500  0.42384500  1
  Ag  Ag21  1  0.59467000  0.40680500  0.07615500  1
  Ag  Ag22  1  0.59467000  0.59319500  0.57615500  1
  Ag  Ag23  1  0.90533000  0.09319500  0.92384500  1
  O  O24  1  0.36352650  0.06429050  0.51362100  1
  O  O25  1  0.13647350  0.56429050  0.98637900  1
  O  O26  1  0.13647350  0.43570950  0.48637900  1
  O  O27  1  0.36352650  0.93570950  0.01362100  1
  O  O28  1  0.36845650  0.30462250  0.96788500  1
  O  O29  1  0.13154350  0.80462250  0.53211500  1
  O  O30  1  0.13154350  0.19537750  0.03211500  1
  O  O31  1  0.00000000  0.24006600  0.25000000  1
  O  O32  1  0.00000000  0.42946000  0.75000000  1
  O  O33  1  0.00000000  0.57054000  0.25000000  1
  O  O34  1  0.00000000  0.75993400  0.75000000  1
  O  O35  1  0.36845650  0.69537750  0.46788500  1
  O  O36  1  0.86352650  0.56429050  0.51362100  1
  O  O37  1  0.63647350  0.06429050  0.98637900  1
  O  O38  1  0.63647350  0.93570950  0.48637900  1
  O  O39  1  0.86352650  0.43570950  0.01362100  1
  O  O40  1  0.86845650  0.80462250  0.96788500  1
  O  O41  1  0.63154350  0.30462250  0.53211500  1
  O  O42  1  0.63154350  0.69537750  0.03211500  1
  O  O43  1  0.50000000  0.74006600  0.25000000  1
  O  O44  1  0.50000000  0.92946000  0.75000000  1
  O  O45  1  0.50000000  0.07054000  0.25000000  1
  O  O46  1  0.50000000  0.25993400  0.75000000  1
  O  O47  1  0.86845650  0.19537750  0.46788500  1
