# generated using pymatgen
data_Na2CS3
_symmetry_space_group_name_H-M   'P 1'
_cell_length_a   10.16428200
_cell_length_b   6.39507800
_cell_length_c   8.62865096
_cell_angle_alpha   90.00000000
_cell_angle_beta   107.21873018
_cell_angle_gamma   90.00000000
_symmetry_Int_Tables_number   1
_chemical_formula_structural   Na2CS3
_chemical_formula_sum   'Na8 C4 S12'
_cell_volume   535.73672758
_cell_formula_units_Z   4
loop_
 _symmetry_equiv_pos_site_id
 _symmetry_equiv_pos_as_xyz
  1  'x, y, z'
loop_
 _atom_site_type_symbol
 _atom_site_label
 _atom_site_symmetry_multiplicity
 _atom_site_fract_x
 _atom_site_fract_y
 _atom_site_fract_z
 _atom_site_occupancy
  Na  Na0  1  0.36785200  0.79906800  0.39105700  1
  Na  Na1  1  0.63214800  0.79906800  0.10894300  1
  Na  Na2  1  0.36785200  0.20093200  0.89105700  1
  Na  Na3  1  0.63214800  0.20093200  0.60894300  1
  Na  Na4  1  0.86785200  0.29906800  0.39105700  1
  Na  Na5  1  0.13214800  0.29906800  0.10894300  1
  Na  Na6  1  0.86785200  0.70093200  0.89105700  1
  Na  Na7  1  0.13214800  0.70093200  0.60894300  1
  C  C8  1  0.50000000  0.41132600  0.25000000  1
  C  C9  1  0.50000000  0.58867400  0.75000000  1
  C  C10  1  0.00000000  0.91132600  0.25000000  1
  C  C11  1  0.00000000  0.08867400  0.75000000  1
  S  S12  1  0.50000000  0.14145500  0.25000000  1
  S  S13  1  0.50000000  0.85854500  0.75000000  1
  S  S14  1  0.13056000  0.04778000  0.38539000  1
  S  S15  1  0.86944000  0.04778000  0.11461000  1
  S  S16  1  0.86944000  0.95222000  0.61461000  1
  S  S17  1  0.13056000  0.95222000  0.88539000  1
  S  S18  1  0.00000000  0.64145500  0.25000000  1
  S  S19  1  0.00000000  0.35854500  0.75000000  1
  S  S20  1  0.63056000  0.54778000  0.38539000  1
  S  S21  1  0.36944000  0.54778000  0.11461000  1
  S  S22  1  0.36944000  0.45222000  0.61461000  1
  S  S23  1  0.63056000  0.45222000  0.88539000  1
