# generated using pymatgen
data_In6TeO12
_symmetry_space_group_name_H-M   'P 1'
_cell_length_a   9.60445382
_cell_length_b   9.60445382
_cell_length_c   9.14968095
_cell_angle_alpha   90.00000000
_cell_angle_beta   90.00000000
_cell_angle_gamma   120.00000000
_symmetry_Int_Tables_number   1
_chemical_formula_structural   In6TeO12
_chemical_formula_sum   'In18 Te3 O36'
_cell_volume   730.94033374
_cell_formula_units_Z   3
loop_
 _symmetry_equiv_pos_site_id
 _symmetry_equiv_pos_as_xyz
  1  'x, y, z'
loop_
 _atom_site_type_symbol
 _atom_site_label
 _atom_site_symmetry_multiplicity
 _atom_site_fract_x
 _atom_site_fract_y
 _atom_site_fract_z
 _atom_site_occupancy
  In  In0  1  0.74849867  0.78501533  0.64458633  1
  In  In1  1  0.25150133  0.21498467  0.35541367  1
  In  In2  1  0.96348333  0.74849867  0.35541367  1
  In  In3  1  0.03651667  0.25150133  0.64458633  1
  In  In4  1  0.21498467  0.96348333  0.64458633  1
  In  In5  1  0.78501533  0.03651667  0.35541367  1
  In  In6  1  0.41516533  0.11834867  0.97791967  1
  In  In7  1  0.91816800  0.54831800  0.68874700  1
  In  In8  1  0.63015000  0.08183200  0.68874700  1
  In  In9  1  0.70318333  0.58483467  0.97791967  1
  In  In10  1  0.88165133  0.29681667  0.97791967  1
  In  In11  1  0.45168200  0.36985000  0.68874700  1
  In  In12  1  0.08183200  0.45168200  0.31125300  1
  In  In13  1  0.58483467  0.88165133  0.02208033  1
  In  In14  1  0.29681667  0.41516533  0.02208033  1
  In  In15  1  0.36985000  0.91816800  0.31125300  1
  In  In16  1  0.54831800  0.63015000  0.31125300  1
  In  In17  1  0.11834867  0.70318333  0.02208033  1
  Te  Te18  1  0.00000000  0.00000000  0.00000000  1
  Te  Te19  1  0.66666667  0.33333333  0.33333333  1
  Te  Te20  1  0.33333333  0.66666667  0.66666667  1
  O  O21  1  0.63750800  0.14809800  0.44874000  1
  O  O22  1  0.14809800  0.51059000  0.55126000  1
  O  O23  1  0.51059000  0.36249200  0.44874000  1
  O  O24  1  0.97779767  0.77903033  0.60329833  1
  O  O25  1  0.77903033  0.80123267  0.39670167  1
  O  O26  1  0.80123267  0.02220233  0.60329833  1
  O  O27  1  0.22096967  0.19876733  0.60329833  1
  O  O28  1  0.85190200  0.48941000  0.44874000  1
  O  O29  1  0.48941000  0.63750800  0.55126000  1
  O  O30  1  0.19876733  0.97779767  0.39670167  1
  O  O31  1  0.36249200  0.85190200  0.55126000  1
  O  O32  1  0.02220233  0.22096967  0.39670167  1
  O  O33  1  0.30417467  0.48143133  0.78207333  1
  O  O34  1  0.81476467  0.84392333  0.88459333  1
  O  O35  1  0.17725667  0.69582533  0.78207333  1
  O  O36  1  0.64446433  0.11236367  0.93663167  1
  O  O37  1  0.44569700  0.13456600  0.73003500  1
  O  O38  1  0.46789933  0.35553567  0.93663167  1
  O  O39  1  0.88763633  0.53210067  0.93663167  1
  O  O40  1  0.51856867  0.82274333  0.78207333  1
  O  O41  1  0.15607667  0.97084133  0.88459333  1
  O  O42  1  0.86543400  0.31113100  0.73003500  1
  O  O43  1  0.02915867  0.18523533  0.88459333  1
  O  O44  1  0.68886900  0.55430300  0.73003500  1
  O  O45  1  0.97084133  0.81476467  0.11540667  1
  O  O46  1  0.48143133  0.17725667  0.21792667  1
  O  O47  1  0.84392333  0.02915867  0.11540667  1
  O  O48  1  0.31113100  0.44569700  0.26996500  1
  O  O49  1  0.11236367  0.46789933  0.06336833  1
  O  O50  1  0.13456600  0.68886900  0.26996500  1
  O  O51  1  0.55430300  0.86543400  0.26996500  1
  O  O52  1  0.18523533  0.15607667  0.11540667  1
  O  O53  1  0.82274333  0.30417467  0.21792667  1
  O  O54  1  0.53210067  0.64446433  0.06336833  1
  O  O55  1  0.69582533  0.51856867  0.21792667  1
  O  O56  1  0.35553567  0.88763633  0.06336833  1
