# generated using pymatgen
data_CsICl2
_symmetry_space_group_name_H-M   'P 1'
_cell_length_a   6.57207792
_cell_length_b   6.57207792
_cell_length_c   12.45512447
_cell_angle_alpha   90.00000000
_cell_angle_beta   90.00000000
_cell_angle_gamma   120.00000000
_symmetry_Int_Tables_number   1
_chemical_formula_structural   CsICl2
_chemical_formula_sum   'Cs3 I3 Cl6'
_cell_volume   465.89077614
_cell_formula_units_Z   3
loop_
 _symmetry_equiv_pos_site_id
 _symmetry_equiv_pos_as_xyz
  1  'x, y, z'
loop_
 _atom_site_type_symbol
 _atom_site_label
 _atom_site_symmetry_multiplicity
 _atom_site_fract_x
 _atom_site_fract_y
 _atom_site_fract_z
 _atom_site_occupancy
  Cs  Cs0  1  0.00000000  0.00000000  0.00000000  1
  Cs  Cs1  1  0.66666667  0.33333333  0.33333333  1
  Cs  Cs2  1  0.33333333  0.66666667  0.66666667  1
  I  I3  1  0.33333333  0.66666667  0.16666667  1
  I  I4  1  1.00000000  1.00000000  0.50000000  1
  I  I5  1  0.66666667  0.33333333  0.83333333  1
  Cl  Cl6  1  0.33333333  0.66666667  0.37315967  1
  Cl  Cl7  1  0.33333333  0.66666667  0.96017367  1
  Cl  Cl8  1  0.00000000  0.00000000  0.70649300  1
  Cl  Cl9  1  0.00000000  0.00000000  0.29350700  1
  Cl  Cl10  1  0.66666667  0.33333333  0.03982633  1
  Cl  Cl11  1  0.66666667  0.33333333  0.62684033  1
