# generated using pymatgen
data_Bi(BO2)3
_symmetry_space_group_name_H-M   'P 1'
_cell_length_a   7.11782000
_cell_length_b   5.22270400
_cell_length_c   6.65201675
_cell_angle_alpha   90.00000000
_cell_angle_beta   104.09943039
_cell_angle_gamma   90.00000000
_symmetry_Int_Tables_number   1
_chemical_formula_structural   Bi(BO2)3
_chemical_formula_sum   'Bi2 B6 O12'
_cell_volume   239.83428154
_cell_formula_units_Z   2
loop_
 _symmetry_equiv_pos_site_id
 _symmetry_equiv_pos_as_xyz
  1  'x, y, z'
loop_
 _atom_site_type_symbol
 _atom_site_label
 _atom_site_symmetry_multiplicity
 _atom_site_fract_x
 _atom_site_fract_y
 _atom_site_fract_z
 _atom_site_occupancy
  Bi  Bi0  1  0.50000000  0.47913200  0.00000000  1
  Bi  Bi1  1  0.00000000  0.97913200  0.00000000  1
  B  B2  1  0.50000000  0.21274300  0.50000000  1
  B  B3  1  0.25010000  0.05159600  0.69506500  1
  B  B4  1  0.74990000  0.05159600  0.30493500  1
  B  B5  1  0.00000000  0.71274300  0.50000000  1
  B  B6  1  0.75010000  0.55159600  0.69506500  1
  B  B7  1  0.24990000  0.55159600  0.30493500  1
  O  O8  1  0.28622800  0.18838500  0.87803700  1
  O  O9  1  0.64785050  0.05050450  0.45080300  1
  O  O10  1  0.35214950  0.05050450  0.54919700  1
  O  O11  1  0.59163500  0.38396700  0.68048000  1
  O  O12  1  0.40836500  0.38396700  0.31952000  1
  O  O13  1  0.71377200  0.18838500  0.12196300  1
  O  O14  1  0.78622800  0.68838500  0.87803700  1
  O  O15  1  0.14785050  0.55050450  0.45080300  1
  O  O16  1  0.85214950  0.55050450  0.54919700  1
  O  O17  1  0.09163500  0.88396700  0.68048000  1
  O  O18  1  0.90836500  0.88396700  0.31952000  1
  O  O19  1  0.21377200  0.68838500  0.12196300  1
