# generated using pymatgen
data_ClO3
_symmetry_space_group_name_H-M   'P 1'
_cell_length_a   5.77751800
_cell_length_b   9.08824800
_cell_length_c   10.28609695
_cell_angle_alpha   90.00000000
_cell_angle_beta   104.59631695
_cell_angle_gamma   90.00000000
_symmetry_Int_Tables_number   1
_chemical_formula_structural   ClO3
_chemical_formula_sum   'Cl8 O24'
_cell_volume   522.66596171
_cell_formula_units_Z   8
loop_
 _symmetry_equiv_pos_site_id
 _symmetry_equiv_pos_as_xyz
  1  'x, y, z'
loop_
 _atom_site_type_symbol
 _atom_site_label
 _atom_site_symmetry_multiplicity
 _atom_site_fract_x
 _atom_site_fract_y
 _atom_site_fract_z
 _atom_site_occupancy
  Cl  Cl0  1  0.25438500  0.93201000  0.85820400  1
  Cl  Cl1  1  0.25438500  0.06799000  0.35820400  1
  Cl  Cl2  1  0.74746350  0.06160650  0.62342400  1
  Cl  Cl3  1  0.74746350  0.93839350  0.12342400  1
  Cl  Cl4  1  0.75438500  0.43201000  0.85820400  1
  Cl  Cl5  1  0.75438500  0.56799000  0.35820400  1
  Cl  Cl6  1  0.24746350  0.56160650  0.62342400  1
  Cl  Cl7  1  0.24746350  0.43839350  0.12342400  1
  O  O8  1  0.47529350  0.94347250  0.81716600  1
  O  O9  1  0.47529350  0.05652750  0.31716600  1
  O  O10  1  0.10559850  0.06520650  0.81550800  1
  O  O11  1  0.10559850  0.93479350  0.31550800  1
  O  O12  1  0.32811500  0.31721300  0.05630000  1
  O  O13  1  0.32811500  0.68278700  0.55630000  1
  O  O14  1  0.78223700  0.08457500  0.07814200  1
  O  O15  1  0.78223700  0.91542500  0.57814200  1
  O  O16  1  0.31098650  0.07303250  0.50700600  1
  O  O17  1  0.31098650  0.92696750  0.00700600  1
  O  O18  1  0.61902050  0.69698250  0.30265000  1
  O  O19  1  0.61902050  0.30301750  0.80265000  1
  O  O20  1  0.97529350  0.44347250  0.81716600  1
  O  O21  1  0.97529350  0.55652750  0.31716600  1
  O  O22  1  0.60559850  0.56520650  0.81550800  1
  O  O23  1  0.60559850  0.43479350  0.31550800  1
  O  O24  1  0.82811500  0.81721300  0.05630000  1
  O  O25  1  0.82811500  0.18278700  0.55630000  1
  O  O26  1  0.28223700  0.58457500  0.07814200  1
  O  O27  1  0.28223700  0.41542500  0.57814200  1
  O  O28  1  0.81098650  0.57303250  0.50700600  1
  O  O29  1  0.81098650  0.42696750  0.00700600  1
  O  O30  1  0.11902050  0.19698250  0.30265000  1
  O  O31  1  0.11902050  0.80301750  0.80265000  1
