# generated using pymatgen
data_Na2AsH15O11
_symmetry_space_group_name_H-M   'P 1'
_cell_length_a   9.49085900
_cell_length_b   11.02677800
_cell_length_c   13.55053590
_cell_angle_alpha   90.00000000
_cell_angle_beta   128.46807129
_cell_angle_gamma   90.00000000
_symmetry_Int_Tables_number   1
_chemical_formula_structural   Na2AsH15O11
_chemical_formula_sum   'Na8 As4 H60 O44'
_cell_volume   1110.31802771
_cell_formula_units_Z   4
loop_
 _symmetry_equiv_pos_site_id
 _symmetry_equiv_pos_as_xyz
  1  'x, y, z'
loop_
 _atom_site_type_symbol
 _atom_site_label
 _atom_site_symmetry_multiplicity
 _atom_site_fract_x
 _atom_site_fract_y
 _atom_site_fract_z
 _atom_site_occupancy
  Na  Na0  1  0.83108600  0.39688600  0.47834900  1
  Na  Na1  1  0.16891400  0.89688600  0.02165100  1
  Na  Na2  1  0.16891400  0.60311400  0.52165100  1
  Na  Na3  1  0.83108600  0.10311400  0.97834900  1
  Na  Na4  1  0.84421700  0.10371900  0.47928500  1
  Na  Na5  1  0.15578300  0.60371900  0.02071500  1
  Na  Na6  1  0.15578300  0.89628100  0.52071500  1
  Na  Na7  1  0.84421700  0.39628100  0.97928500  1
  As  As8  1  0.29484400  0.23347800  0.89602600  1
  As  As9  1  0.70515600  0.73347800  0.60397400  1
  As  As10  1  0.70515600  0.76652200  0.10397400  1
  As  As11  1  0.29484400  0.26652200  0.39602600  1
  H  H12  1  0.41277000  0.44527100  0.36947700  1
  H  H13  1  0.58723000  0.94527100  0.13052300  1
  H  H14  1  0.58723000  0.55472900  0.63052300  1
  H  H15  1  0.41277000  0.05472900  0.86947700  1
  H  H16  1  0.99997400  0.11202200  0.35211800  1
  H  H17  1  0.00002600  0.61202200  0.14788200  1
  H  H18  1  0.00002600  0.88797800  0.64788200  1
  H  H19  1  0.99997400  0.38797800  0.85211800  1
  H  H20  1  0.86870400  0.99892000  0.28088800  1
  H  H21  1  0.13129600  0.49892000  0.21911200  1
  H  H22  1  0.13129600  0.00108000  0.71911200  1
  H  H23  1  0.86870400  0.50108000  0.78088800  1
  H  H24  1  0.89285200  0.25243100  0.18699300  1
  H  H25  1  0.10714800  0.75243100  0.31300700  1
  H  H26  1  0.10714800  0.74756900  0.81300700  1
  H  H27  1  0.89285200  0.24756900  0.68699300  1
  H  H28  1  0.67927200  0.25245100  0.08765300  1
  H  H29  1  0.32072800  0.75245100  0.41234700  1
  H  H30  1  0.32072800  0.74754900  0.91234700  1
  H  H31  1  0.67927200  0.24754900  0.58765300  1
  H  H32  1  0.15515400  0.02803200  0.21817800  1
  H  H33  1  0.84484600  0.52803200  0.28182200  1
  H  H34  1  0.84484600  0.97196800  0.78182200  1
  H  H35  1  0.15515400  0.47196800  0.71817800  1
  H  H36  1  0.03255000  0.90827000  0.16793600  1
  H  H37  1  0.96745000  0.40827000  0.33206400  1
  H  H38  1  0.96745000  0.09173000  0.83206400  1
  H  H39  1  0.03255000  0.59173000  0.66793600  1
  H  H40  1  0.10837300  0.25814000  0.50040900  1
  H  H41  1  0.89162700  0.75814000  0.99959100  1
  H  H42  1  0.89162700  0.74186000  0.49959100  1
  H  H43  1  0.10837300  0.24186000  0.00040900  1
  H  H44  1  0.17548300  0.27697900  0.64150500  1
  H  H45  1  0.82451700  0.77697900  0.85849500  1
  H  H46  1  0.82451700  0.72302100  0.35849500  1
  H  H47  1  0.17548300  0.22302100  0.14150500  1
  H  H48  1  0.44840600  0.08826000  0.59534400  1
  H  H49  1  0.55159400  0.58826000  0.90465600  1
  H  H50  1  0.55159400  0.91174000  0.40465600  1
  H  H51  1  0.44840600  0.41174000  0.09534400  1
  H  H52  1  0.52225500  0.95076800  0.62885900  1
  H  H53  1  0.47774500  0.45076800  0.87114100  1
  H  H54  1  0.47774500  0.04923200  0.37114100  1
  H  H55  1  0.52225500  0.54923200  0.12885900  1
  H  H56  1  0.49077300  0.49159200  0.72482900  1
  H  H57  1  0.50922700  0.99159200  0.77517100  1
  H  H58  1  0.50922700  0.50840800  0.27517100  1
  H  H59  1  0.49077300  0.00840800  0.22482900  1
  H  H60  1  0.45074300  0.40262300  0.61542900  1
  H  H61  1  0.54925700  0.90262300  0.88457100  1
  H  H62  1  0.54925700  0.59737700  0.38457100  1
  H  H63  1  0.45074300  0.09737700  0.11542900  1
  H  H64  1  0.51382900  0.26930400  0.81223100  1
  H  H65  1  0.48617100  0.76930400  0.68776900  1
  H  H66  1  0.48617100  0.73069600  0.18776900  1
  H  H67  1  0.51382900  0.23069600  0.31223100  1
  H  H68  1  0.57176200  0.24368500  0.72853500  1
  H  H69  1  0.42823800  0.74368500  0.77146500  1
  H  H70  1  0.42823800  0.75631500  0.27146500  1
  H  H71  1  0.57176200  0.25631500  0.22853500  1
  O  O72  1  0.62002200  0.24924100  0.31681800  1
  O  O73  1  0.37997800  0.74924100  0.18318200  1
  O  O74  1  0.37997800  0.75075900  0.68318200  1
  O  O75  1  0.62002200  0.25075900  0.81681800  1
  O  O76  1  0.44153300  0.01239900  0.13472100  1
  O  O77  1  0.55846700  0.51239900  0.36527900  1
  O  O78  1  0.55846700  0.98760100  0.86527900  1
  O  O79  1  0.44153300  0.48760100  0.63472100  1
  O  O80  1  0.43301200  0.49269500  0.11952800  1
  O  O81  1  0.56698800  0.99269500  0.38047200  1
  O  O82  1  0.56698800  0.50730500  0.88047200  1
  O  O83  1  0.43301200  0.00730500  0.61952800  1
  O  O84  1  0.32695700  0.17478200  0.30923100  1
  O  O85  1  0.67304300  0.67478200  0.19076900  1
  O  O86  1  0.67304300  0.82521800  0.69076900  1
  O  O87  1  0.32695700  0.32521800  0.80923100  1
  O  O88  1  0.46030400  0.24732100  0.55533000  1
  O  O89  1  0.53969600  0.74732100  0.94467000  1
  O  O90  1  0.53969600  0.75267900  0.44467000  1
  O  O91  1  0.46030400  0.25267900  0.05533000  1
  O  O92  1  0.08356100  0.25603100  0.35344400  1
  O  O93  1  0.91643900  0.75603100  0.14655600  1
  O  O94  1  0.91643900  0.74396900  0.64655600  1
  O  O95  1  0.08356100  0.24396900  0.85344400  1
  O  O96  1  0.30112400  0.42046400  0.36006100  1
  O  O97  1  0.69887600  0.92046400  0.13993900  1
  O  O98  1  0.69887600  0.57953600  0.63993900  1
  O  O99  1  0.30112400  0.07953600  0.86006100  1
  O  O100  1  0.95325400  0.03779900  0.36429300  1
  O  O101  1  0.04674600  0.53779900  0.13570700  1
  O  O102  1  0.04674600  0.96220100  0.63570700  1
  O  O103  1  0.95325400  0.46220100  0.86429300  1
  O  O104  1  0.79038500  0.25235400  0.09554900  1
  O  O105  1  0.20961500  0.75235400  0.40445100  1
  O  O106  1  0.20961500  0.74764600  0.90445100  1
  O  O107  1  0.79038500  0.24764600  0.59554900  1
  O  O108  1  0.07380500  0.97625300  0.14427300  1
  O  O109  1  0.92619500  0.47625300  0.35572700  1
  O  O110  1  0.92619500  0.02374700  0.85572700  1
  O  O111  1  0.07380500  0.52374700  0.64427300  1
  O  O112  1  0.07186500  0.25444300  0.55452600  1
  O  O113  1  0.92813500  0.75444300  0.94547400  1
  O  O114  1  0.92813500  0.74555700  0.44547400  1
  O  O115  1  0.07186500  0.24555700  0.05452600  1
