# generated using pymatgen
data_PrNb5O14
_symmetry_space_group_name_H-M   'P 1'
_cell_length_a   6.34844800
_cell_length_b   7.78965400
_cell_length_c   20.55868700
_cell_angle_alpha   90.00000000
_cell_angle_beta   90.00000000
_cell_angle_gamma   90.00000000
_symmetry_Int_Tables_number   1
_chemical_formula_structural   PrNb5O14
_chemical_formula_sum   'Pr4 Nb20 O56'
_cell_volume   1016.67257586
_cell_formula_units_Z   4
loop_
 _symmetry_equiv_pos_site_id
 _symmetry_equiv_pos_as_xyz
  1  'x, y, z'
loop_
 _atom_site_type_symbol
 _atom_site_label
 _atom_site_symmetry_multiplicity
 _atom_site_fract_x
 _atom_site_fract_y
 _atom_site_fract_z
 _atom_site_occupancy
  Pr  Pr0  1  0.95397300  0.00000000  0.26417600  1
  Pr  Pr1  1  0.95397300  0.00000000  0.73582400  1
  Pr  Pr2  1  0.04602700  0.50000000  0.23582400  1
  Pr  Pr3  1  0.04602700  0.50000000  0.76417600  1
  Nb  Nb4  1  0.49716100  0.75130700  0.50000000  1
  Nb  Nb5  1  0.49716100  0.24869300  0.50000000  1
  Nb  Nb6  1  0.50283900  0.25130700  0.00000000  1
  Nb  Nb7  1  0.50283900  0.74869300  0.00000000  1
  Nb  Nb8  1  0.05118200  0.75178900  0.09341100  1
  Nb  Nb9  1  0.05118200  0.24821100  0.90658900  1
  Nb  Nb10  1  0.94881800  0.25178900  0.40658900  1
  Nb  Nb11  1  0.94881800  0.74821100  0.59341100  1
  Nb  Nb12  1  0.94881800  0.74821100  0.40658900  1
  Nb  Nb13  1  0.94881800  0.25178900  0.59341100  1
  Nb  Nb14  1  0.05118200  0.24821100  0.09341100  1
  Nb  Nb15  1  0.05118200  0.75178900  0.90658900  1
  Nb  Nb16  1  0.41074400  0.75221900  0.32721200  1
  Nb  Nb17  1  0.41074400  0.24778100  0.67278800  1
  Nb  Nb18  1  0.58925600  0.25221900  0.17278800  1
  Nb  Nb19  1  0.58925600  0.74778100  0.82721200  1
  Nb  Nb20  1  0.58925600  0.74778100  0.17278800  1
  Nb  Nb21  1  0.58925600  0.25221900  0.82721200  1
  Nb  Nb22  1  0.41074400  0.24778100  0.32721200  1
  Nb  Nb23  1  0.41074400  0.75221900  0.67278800  1
  O  O24  1  0.32888600  0.00000000  0.31960500  1
  O  O25  1  0.32888600  0.00000000  0.68039500  1
  O  O26  1  0.67111400  0.50000000  0.18039500  1
  O  O27  1  0.67111400  0.50000000  0.81960500  1
  O  O28  1  0.33500800  0.71234300  0.22293100  1
  O  O29  1  0.33500800  0.28765700  0.77706900  1
  O  O30  1  0.66499200  0.21234300  0.27706900  1
  O  O31  1  0.66499200  0.78765700  0.72293100  1
  O  O32  1  0.66499200  0.78765700  0.27706900  1
  O  O33  1  0.66499200  0.21234300  0.72293100  1
  O  O34  1  0.33500800  0.28765700  0.22293100  1
  O  O35  1  0.33500800  0.71234300  0.77706900  1
  O  O36  1  0.61090900  0.00000000  0.17172700  1
  O  O37  1  0.61090900  0.00000000  0.82827300  1
  O  O38  1  0.38909100  0.50000000  0.32827300  1
  O  O39  1  0.38909100  0.50000000  0.67172700  1
  O  O40  1  0.91037400  0.50000000  0.40131700  1
  O  O41  1  0.91037400  0.50000000  0.59868300  1
  O  O42  1  0.08962600  0.00000000  0.09868300  1
  O  O43  1  0.23422700  0.24400500  0.43586900  1
  O  O44  1  0.08962600  0.00000000  0.90131700  1
  O  O45  1  0.49990500  0.00000000  0.00000000  1
  O  O46  1  0.76577300  0.74400500  0.06413100  1
  O  O47  1  0.76577300  0.25599500  0.93586900  1
  O  O48  1  0.92578700  0.76895500  0.81707100  1
  O  O49  1  0.92578700  0.23104500  0.18292900  1
  O  O50  1  0.07421300  0.26895500  0.68292900  1
  O  O51  1  0.07421300  0.73104500  0.31707100  1
  O  O52  1  0.07421300  0.73104500  0.68292900  1
  O  O53  1  0.07421300  0.26895500  0.31707100  1
  O  O54  1  0.92578700  0.23104500  0.81707100  1
  O  O55  1  0.92578700  0.76895500  0.18292900  1
  O  O56  1  0.15877500  0.73571400  0.00000000  1
  O  O57  1  0.15877500  0.26428600  0.00000000  1
  O  O58  1  0.84122500  0.23571400  0.50000000  1
  O  O59  1  0.84122500  0.76428600  0.50000000  1
  O  O60  1  0.60906700  0.75476600  0.59674000  1
  O  O61  1  0.60906700  0.24523400  0.40326000  1
  O  O62  1  0.39093300  0.25476600  0.90326000  1
  O  O63  1  0.39093300  0.74523400  0.09674000  1
  O  O64  1  0.39093300  0.74523400  0.90326000  1
  O  O65  1  0.39093300  0.25476600  0.09674000  1
  O  O66  1  0.60906700  0.24523400  0.59674000  1
  O  O67  1  0.60906700  0.75476600  0.40326000  1
  O  O68  1  0.50437500  0.50000000  0.00000000  1
  O  O69  1  0.49562500  0.00000000  0.50000000  1
  O  O70  1  0.08640800  0.50000000  0.88387400  1
  O  O71  1  0.08640800  0.50000000  0.11612600  1
  O  O72  1  0.91359200  0.00000000  0.61612600  1
  O  O73  1  0.91359200  0.00000000  0.38387400  1
  O  O74  1  0.76577300  0.74400500  0.93586900  1
  O  O75  1  0.76577300  0.25599500  0.06413100  1
  O  O76  1  0.23422700  0.24400500  0.56413100  1
  O  O77  1  0.23422700  0.75599500  0.43586900  1
  O  O78  1  0.23422700  0.75599500  0.56413100  1
  O  O79  1  0.50009500  0.50000000  0.50000000  1
