# generated using pymatgen
data_KGaSb2
_symmetry_space_group_name_H-M   'P 1'
_cell_length_a   7.82282400
_cell_length_b   18.35509200
_cell_length_c   30.08393200
_cell_angle_alpha   90.00000000
_cell_angle_beta   90.00000000
_cell_angle_gamma   90.00000000
_symmetry_Int_Tables_number   1
_chemical_formula_structural   KGaSb2
_chemical_formula_sum   'K32 Ga32 Sb64'
_cell_volume   4319.71130952
_cell_formula_units_Z   32
loop_
 _symmetry_equiv_pos_site_id
 _symmetry_equiv_pos_as_xyz
  1  'x, y, z'
loop_
 _atom_site_type_symbol
 _atom_site_label
 _atom_site_symmetry_multiplicity
 _atom_site_fract_x
 _atom_site_fract_y
 _atom_site_fract_z
 _atom_site_occupancy
  K  K0  1  0.28075300  0.50000000  0.50000000  1
  K  K1  1  0.21924700  0.50000000  0.00000000  1
  K  K2  1  0.71924700  0.50000000  0.50000000  1
  K  K3  1  0.78075300  0.50000000  0.00000000  1
  K  K4  1  0.50000000  0.65689500  0.69373700  1
  K  K5  1  0.00000000  0.84310500  0.30626300  1
  K  K6  1  0.50000000  0.84310500  0.19373700  1
  K  K7  1  0.00000000  0.65689500  0.80626300  1
  K  K8  1  0.50000000  0.79809600  0.51097500  1
  K  K9  1  0.00000000  0.70190400  0.48902500  1
  K  K10  1  0.50000000  0.70190400  0.01097500  1
  K  K11  1  0.00000000  0.79809600  0.98902500  1
  K  K12  1  0.75000000  0.59805700  0.25000000  1
  K  K13  1  0.25000000  0.90194300  0.75000000  1
  K  K14  1  0.75000000  0.90194300  0.75000000  1
  K  K15  1  0.25000000  0.59805700  0.25000000  1
  K  K16  1  0.78075300  0.00000000  0.50000000  1
  K  K17  1  0.71924700  0.00000000  0.00000000  1
  K  K18  1  0.21924700  0.00000000  0.50000000  1
  K  K19  1  0.28075300  0.00000000  0.00000000  1
  K  K20  1  0.00000000  0.15689500  0.69373700  1
  K  K21  1  0.50000000  0.34310500  0.30626300  1
  K  K22  1  0.00000000  0.34310500  0.19373700  1
  K  K23  1  0.50000000  0.15689500  0.80626300  1
  K  K24  1  0.00000000  0.29809600  0.51097500  1
  K  K25  1  0.50000000  0.20190400  0.48902500  1
  K  K26  1  0.00000000  0.20190400  0.01097500  1
  K  K27  1  0.50000000  0.29809600  0.98902500  1
  K  K28  1  0.25000000  0.09805700  0.25000000  1
  K  K29  1  0.75000000  0.40194300  0.75000000  1
  K  K30  1  0.25000000  0.40194300  0.75000000  1
  K  K31  1  0.75000000  0.09805700  0.25000000  1
  Ga  Ga32  1  0.72217600  0.77224500  0.87505300  1
  Ga  Ga33  1  0.22217600  0.72775500  0.12494700  1
  Ga  Ga34  1  0.27782400  0.72775500  0.37505300  1
  Ga  Ga35  1  0.77782400  0.77224500  0.62494700  1
  Ga  Ga36  1  0.77782400  0.72775500  0.12494700  1
  Ga  Ga37  1  0.27782400  0.77224500  0.87505300  1
  Ga  Ga38  1  0.22217600  0.77224500  0.62494700  1
  Ga  Ga39  1  0.72217600  0.72775500  0.37505300  1
  Ga  Ga40  1  0.77272500  0.53858900  0.62965300  1
  Ga  Ga41  1  0.27272500  0.96141100  0.37034700  1
  Ga  Ga42  1  0.22727500  0.96141100  0.12965300  1
  Ga  Ga43  1  0.72727500  0.53858900  0.87034700  1
  Ga  Ga44  1  0.72727500  0.96141100  0.37034700  1
  Ga  Ga45  1  0.22727500  0.53858900  0.62965300  1
  Ga  Ga46  1  0.27272500  0.53858900  0.87034700  1
  Ga  Ga47  1  0.77272500  0.96141100  0.12965300  1
  Ga  Ga48  1  0.22217600  0.27224500  0.87505300  1
  Ga  Ga49  1  0.72217600  0.22775500  0.12494700  1
  Ga  Ga50  1  0.77782400  0.22775500  0.37505300  1
  Ga  Ga51  1  0.27782400  0.27224500  0.62494700  1
  Ga  Ga52  1  0.27782400  0.22775500  0.12494700  1
  Ga  Ga53  1  0.77782400  0.27224500  0.87505300  1
  Ga  Ga54  1  0.72217600  0.27224500  0.62494700  1
  Ga  Ga55  1  0.22217600  0.22775500  0.37505300  1
  Ga  Ga56  1  0.27272500  0.03858900  0.62965300  1
  Ga  Ga57  1  0.77272500  0.46141100  0.37034700  1
  Ga  Ga58  1  0.72727500  0.46141100  0.12965300  1
  Ga  Ga59  1  0.22727500  0.03858900  0.87034700  1
  Ga  Ga60  1  0.22727500  0.46141100  0.37034700  1
  Ga  Ga61  1  0.72727500  0.03858900  0.62965300  1
  Ga  Ga62  1  0.77272500  0.03858900  0.87034700  1
  Ga  Ga63  1  0.27272500  0.46141100  0.12965300  1
  Sb  Sb64  1  0.00000000  0.65153700  0.34625500  1
  Sb  Sb65  1  0.50000000  0.84846300  0.65374500  1
  Sb  Sb66  1  0.00000000  0.84846300  0.84625500  1
  Sb  Sb67  1  0.50000000  0.65153700  0.15374500  1
  Sb  Sb68  1  0.50000000  0.73505500  0.80752400  1
  Sb  Sb69  1  0.00000000  0.76494500  0.19247600  1
  Sb  Sb70  1  0.50000000  0.76494500  0.30752400  1
  Sb  Sb71  1  0.00000000  0.73505500  0.69247600  1
  Sb  Sb72  1  0.50000000  0.54678200  0.08492500  1
  Sb  Sb73  1  0.00000000  0.95321800  0.91507500  1
  Sb  Sb74  1  0.50000000  0.95321800  0.58492500  1
  Sb  Sb75  1  0.00000000  0.54678200  0.41507500  1
  Sb  Sb76  1  0.50000000  0.86167200  0.92057000  1
  Sb  Sb77  1  0.00000000  0.63832800  0.07943000  1
  Sb  Sb78  1  0.50000000  0.63832800  0.42057000  1
  Sb  Sb79  1  0.00000000  0.86167200  0.57943000  1
  Sb  Sb80  1  0.00000000  0.54327700  0.15491400  1
  Sb  Sb81  1  0.50000000  0.95672300  0.84508600  1
  Sb  Sb82  1  0.00000000  0.95672300  0.65491400  1
  Sb  Sb83  1  0.50000000  0.54327700  0.34508600  1
  Sb  Sb84  1  0.50000000  0.57906900  0.80494200  1
  Sb  Sb85  1  0.00000000  0.92093100  0.19505800  1
  Sb  Sb86  1  0.50000000  0.92093100  0.30494200  1
  Sb  Sb87  1  0.00000000  0.57906900  0.69505800  1
  Sb  Sb88  1  0.68380600  0.84747000  0.07610500  1
  Sb  Sb89  1  0.18380600  0.65253000  0.92389500  1
  Sb  Sb90  1  0.31619400  0.65253000  0.57610500  1
  Sb  Sb91  1  0.81619400  0.84747000  0.42389500  1
  Sb  Sb92  1  0.81619400  0.65253000  0.92389500  1
  Sb  Sb93  1  0.31619400  0.84747000  0.07610500  1
  Sb  Sb94  1  0.18380600  0.84747000  0.42389500  1
  Sb  Sb95  1  0.68380600  0.65253000  0.57610500  1
  Sb  Sb96  1  0.50000000  0.15153700  0.34625500  1
  Sb  Sb97  1  0.00000000  0.34846300  0.65374500  1
  Sb  Sb98  1  0.50000000  0.34846300  0.84625500  1
  Sb  Sb99  1  0.00000000  0.15153700  0.15374500  1
  Sb  Sb100  1  0.00000000  0.23505500  0.80752400  1
  Sb  Sb101  1  0.50000000  0.26494500  0.19247600  1
  Sb  Sb102  1  0.00000000  0.26494500  0.30752400  1
  Sb  Sb103  1  0.50000000  0.23505500  0.69247600  1
  Sb  Sb104  1  0.00000000  0.04678200  0.08492500  1
  Sb  Sb105  1  0.50000000  0.45321800  0.91507500  1
  Sb  Sb106  1  0.00000000  0.45321800  0.58492500  1
  Sb  Sb107  1  0.50000000  0.04678200  0.41507500  1
  Sb  Sb108  1  0.00000000  0.36167200  0.92057000  1
  Sb  Sb109  1  0.50000000  0.13832800  0.07943000  1
  Sb  Sb110  1  0.00000000  0.13832800  0.42057000  1
  Sb  Sb111  1  0.50000000  0.36167200  0.57943000  1
  Sb  Sb112  1  0.50000000  0.04327700  0.15491400  1
  Sb  Sb113  1  0.00000000  0.45672300  0.84508600  1
  Sb  Sb114  1  0.50000000  0.45672300  0.65491400  1
  Sb  Sb115  1  0.00000000  0.04327700  0.34508600  1
  Sb  Sb116  1  0.00000000  0.07906900  0.80494200  1
  Sb  Sb117  1  0.50000000  0.42093100  0.19505800  1
  Sb  Sb118  1  0.00000000  0.42093100  0.30494200  1
  Sb  Sb119  1  0.50000000  0.07906900  0.69505800  1
  Sb  Sb120  1  0.18380600  0.34747000  0.07610500  1
  Sb  Sb121  1  0.68380600  0.15253000  0.92389500  1
  Sb  Sb122  1  0.81619400  0.15253000  0.57610500  1
  Sb  Sb123  1  0.31619400  0.34747000  0.42389500  1
  Sb  Sb124  1  0.31619400  0.15253000  0.92389500  1
  Sb  Sb125  1  0.81619400  0.34747000  0.07610500  1
  Sb  Sb126  1  0.68380600  0.34747000  0.42389500  1
  Sb  Sb127  1  0.18380600  0.15253000  0.57610500  1
