# generated using pymatgen
data_CsCu2I3
_symmetry_space_group_name_H-M   'P 1'
_cell_length_a   10.49749200
_cell_length_b   13.83342800
_cell_length_c   6.08358900
_cell_angle_alpha   90.00000000
_cell_angle_beta   90.00000000
_cell_angle_gamma   90.00000000
_symmetry_Int_Tables_number   1
_chemical_formula_structural   CsCu2I3
_chemical_formula_sum   'Cs4 Cu8 I12'
_cell_volume   883.43628386
_cell_formula_units_Z   4
loop_
 _symmetry_equiv_pos_site_id
 _symmetry_equiv_pos_as_xyz
  1  'x, y, z'
loop_
 _atom_site_type_symbol
 _atom_site_label
 _atom_site_symmetry_multiplicity
 _atom_site_fract_x
 _atom_site_fract_y
 _atom_site_fract_z
 _atom_site_occupancy
  Cs  Cs0  1  0.50000000  0.82775700  0.75000000  1
  Cs  Cs1  1  0.50000000  0.17224300  0.25000000  1
  Cs  Cs2  1  0.00000000  0.32775700  0.75000000  1
  Cs  Cs3  1  0.00000000  0.67224300  0.25000000  1
  Cu  Cu4  1  0.13750600  0.00000000  0.00000000  1
  Cu  Cu5  1  0.86249400  0.00000000  0.50000000  1
  Cu  Cu6  1  0.86249400  0.00000000  0.00000000  1
  Cu  Cu7  1  0.13750600  0.00000000  0.50000000  1
  Cu  Cu8  1  0.63750600  0.50000000  0.00000000  1
  Cu  Cu9  1  0.36249400  0.50000000  0.50000000  1
  Cu  Cu10  1  0.36249400  0.50000000  0.00000000  1
  Cu  Cu11  1  0.63750600  0.50000000  0.50000000  1
  I  I12  1  0.50000000  0.37950300  0.75000000  1
  I  I13  1  0.50000000  0.62049700  0.25000000  1
  I  I14  1  0.72363200  0.88445500  0.25000000  1
  I  I15  1  0.27636800  0.11554500  0.75000000  1
  I  I16  1  0.72363200  0.11554500  0.75000000  1
  I  I17  1  0.27636800  0.88445500  0.25000000  1
  I  I18  1  0.00000000  0.87950300  0.75000000  1
  I  I19  1  0.00000000  0.12049700  0.25000000  1
  I  I20  1  0.22363200  0.38445500  0.25000000  1
  I  I21  1  0.77636800  0.61554500  0.75000000  1
  I  I22  1  0.22363200  0.61554500  0.75000000  1
  I  I23  1  0.77636800  0.38445500  0.25000000  1
