# generated using pymatgen
data_AgXeF9
_symmetry_space_group_name_H-M   'P 1'
_cell_length_a   5.78491600
_cell_length_b   5.78491600
_cell_length_c   20.92744400
_cell_angle_alpha   90.00000000
_cell_angle_beta   90.00000000
_cell_angle_gamma   90.00000000
_symmetry_Int_Tables_number   1
_chemical_formula_structural   AgXeF9
_chemical_formula_sum   'Ag4 Xe4 F36'
_cell_volume   700.34221076
_cell_formula_units_Z   4
loop_
 _symmetry_equiv_pos_site_id
 _symmetry_equiv_pos_as_xyz
  1  'x, y, z'
loop_
 _atom_site_type_symbol
 _atom_site_label
 _atom_site_symmetry_multiplicity
 _atom_site_fract_x
 _atom_site_fract_y
 _atom_site_fract_z
 _atom_site_occupancy
  Ag  Ag0  1  0.00000000  0.50000000  0.00000000  1
  Ag  Ag1  1  0.50000000  0.00000000  0.00000000  1
  Ag  Ag2  1  0.50000000  0.00000000  0.50000000  1
  Ag  Ag3  1  0.00000000  0.50000000  0.50000000  1
  Xe  Xe4  1  0.50000000  0.50000000  0.34837600  1
  Xe  Xe5  1  0.00000000  0.00000000  0.15162400  1
  Xe  Xe6  1  0.00000000  0.00000000  0.84837600  1
  Xe  Xe7  1  0.50000000  0.50000000  0.65162400  1
  F  F8  1  0.30094650  0.85116450  0.06414850  1
  F  F9  1  0.14883550  0.30094650  0.06414850  1
  F  F10  1  0.00000000  0.00000000  0.24640600  1
  F  F11  1  0.50000000  0.50000000  0.25359400  1
  F  F12  1  0.14230300  0.69545900  0.17072000  1
  F  F13  1  0.30454100  0.14230300  0.17072000  1
  F  F14  1  0.69545900  0.85769700  0.17072000  1
  F  F15  1  0.85769700  0.30454100  0.17072000  1
  F  F16  1  0.35769700  0.80454100  0.32928000  1
  F  F17  1  0.19545900  0.35769700  0.32928000  1
  F  F18  1  0.80454100  0.64230300  0.32928000  1
  F  F19  1  0.64230300  0.19545900  0.32928000  1
  F  F20  1  0.85116450  0.69905350  0.06414850  1
  F  F21  1  0.69905350  0.14883550  0.06414850  1
  F  F22  1  0.80094650  0.35116450  0.43585150  1
  F  F23  1  0.64883550  0.80094650  0.43585150  1
  F  F24  1  0.35116450  0.19905350  0.43585150  1
  F  F25  1  0.19905350  0.64883550  0.43585150  1
  F  F26  1  0.80094650  0.35116450  0.56414850  1
  F  F27  1  0.64883550  0.80094650  0.56414850  1
  F  F28  1  0.50000000  0.50000000  0.74640600  1
  F  F29  1  0.00000000  0.00000000  0.75359400  1
  F  F30  1  0.64230300  0.19545900  0.67072000  1
  F  F31  1  0.80454100  0.64230300  0.67072000  1
  F  F32  1  0.19545900  0.35769700  0.67072000  1
  F  F33  1  0.35769700  0.80454100  0.67072000  1
  F  F34  1  0.85769700  0.30454100  0.82928000  1
  F  F35  1  0.69545900  0.85769700  0.82928000  1
  F  F36  1  0.30454100  0.14230300  0.82928000  1
  F  F37  1  0.14230300  0.69545900  0.82928000  1
  F  F38  1  0.35116450  0.19905350  0.56414850  1
  F  F39  1  0.19905350  0.64883550  0.56414850  1
  F  F40  1  0.30094650  0.85116450  0.93585150  1
  F  F41  1  0.14883550  0.30094650  0.93585150  1
  F  F42  1  0.85116450  0.69905350  0.93585150  1
  F  F43  1  0.69905350  0.14883550  0.93585150  1
