# generated using pymatgen
data_CuTe2O5
_symmetry_space_group_name_H-M   'P 1'
_cell_length_a   6.97461900
_cell_length_b   9.50224000
_cell_length_c   7.65295144
_cell_angle_alpha   90.00000000
_cell_angle_beta   107.71014399
_cell_angle_gamma   90.00000000
_symmetry_Int_Tables_number   1
_chemical_formula_structural   CuTe2O5
_chemical_formula_sum   'Cu4 Te8 O20'
_cell_volume   483.15836295
_cell_formula_units_Z   4
loop_
 _symmetry_equiv_pos_site_id
 _symmetry_equiv_pos_as_xyz
  1  'x, y, z'
loop_
 _atom_site_type_symbol
 _atom_site_label
 _atom_site_symmetry_multiplicity
 _atom_site_fract_x
 _atom_site_fract_y
 _atom_site_fract_z
 _atom_site_occupancy
  Cu  Cu0  1  0.34003500  0.98810200  0.79422500  1
  Cu  Cu1  1  0.34003500  0.51189800  0.29422500  1
  Cu  Cu2  1  0.65996500  0.48810200  0.70577500  1
  Cu  Cu3  1  0.65996500  0.01189800  0.20577500  1
  Te  Te4  1  0.35049400  0.32188600  0.94036100  1
  Te  Te5  1  0.64950600  0.82188600  0.55963900  1
  Te  Te6  1  0.35049400  0.17811400  0.44036100  1
  Te  Te7  1  0.13527800  0.79571800  0.09049900  1
  Te  Te8  1  0.86472200  0.20428200  0.90950100  1
  Te  Te9  1  0.86472200  0.29571800  0.40950100  1
  Te  Te10  1  0.13527800  0.70428200  0.59049900  1
  Te  Te11  1  0.64950600  0.67811400  0.05963900  1
  O  O12  1  0.61773200  0.87384500  0.00796900  1
  O  O13  1  0.32190900  0.85378100  0.59121600  1
  O  O14  1  0.49357700  0.10872900  0.67765300  1
  O  O15  1  0.86218100  0.13392400  0.14623900  1
  O  O16  1  0.86218100  0.36607600  0.64623900  1
  O  O17  1  0.49357700  0.39127100  0.17765300  1
  O  O18  1  0.13781900  0.63392400  0.35376100  1
  O  O19  1  0.50642300  0.60872900  0.82234700  1
  O  O20  1  0.13781900  0.86607600  0.85376100  1
  O  O21  1  0.67809100  0.14621900  0.40878400  1
  O  O22  1  0.09986800  0.18172900  0.53146000  1
  O  O23  1  0.90013200  0.81827100  0.46854000  1
  O  O24  1  0.90013200  0.68172900  0.96854000  1
  O  O25  1  0.61773200  0.62615500  0.50796900  1
  O  O26  1  0.67809100  0.35378100  0.90878400  1
  O  O27  1  0.32190900  0.64621900  0.09121600  1
  O  O28  1  0.50642300  0.89127100  0.32234700  1
  O  O29  1  0.38226800  0.37384500  0.49203100  1
  O  O30  1  0.09986800  0.31827100  0.03146000  1
  O  O31  1  0.38226800  0.12615500  0.99203100  1
