# generated using pymatgen
data_PtCl2
_symmetry_space_group_name_H-M   'P 1'
_cell_length_a   13.95990605
_cell_length_b   13.95990605
_cell_length_c   9.17593845
_cell_angle_alpha   90.00000000
_cell_angle_beta   90.00000000
_cell_angle_gamma   120.00000000
_symmetry_Int_Tables_number   1
_chemical_formula_structural   PtCl2
_chemical_formula_sum   'Pt18 Cl36'
_cell_volume   1548.62445957
_cell_formula_units_Z   18
loop_
 _symmetry_equiv_pos_site_id
 _symmetry_equiv_pos_as_xyz
  1  'x, y, z'
loop_
 _atom_site_type_symbol
 _atom_site_label
 _atom_site_symmetry_multiplicity
 _atom_site_fract_x
 _atom_site_fract_y
 _atom_site_fract_z
 _atom_site_occupancy
  Pt  Pt0  1  0.08039300  0.91960700  0.84857600  1
  Pt  Pt1  1  0.08039300  0.16078600  0.84857600  1
  Pt  Pt2  1  0.83921400  0.91960700  0.84857600  1
  Pt  Pt3  1  0.16078600  0.08039300  0.15142400  1
  Pt  Pt4  1  0.91960700  0.08039300  0.15142400  1
  Pt  Pt5  1  0.91960700  0.83921400  0.15142400  1
  Pt  Pt6  1  0.74705967  0.25294033  0.18190933  1
  Pt  Pt7  1  0.74705967  0.49411933  0.18190933  1
  Pt  Pt8  1  0.50588067  0.25294033  0.18190933  1
  Pt  Pt9  1  0.82745267  0.41372633  0.48475733  1
  Pt  Pt10  1  0.58627367  0.41372633  0.48475733  1
  Pt  Pt11  1  0.58627367  0.17254733  0.48475733  1
  Pt  Pt12  1  0.41372633  0.58627367  0.51524267  1
  Pt  Pt13  1  0.41372633  0.82745267  0.51524267  1
  Pt  Pt14  1  0.17254733  0.58627367  0.51524267  1
  Pt  Pt15  1  0.49411933  0.74705967  0.81809067  1
  Pt  Pt16  1  0.25294033  0.74705967  0.81809067  1
  Pt  Pt17  1  0.25294033  0.50588067  0.81809067  1
  Cl  Cl18  1  0.90189567  0.33333333  0.33333333  1
  Cl  Cl19  1  0.66666667  0.56856233  0.33333333  1
  Cl  Cl20  1  0.43143767  0.09810433  0.33333333  1
  Cl  Cl21  1  0.43143767  0.33333333  0.33333333  1
  Cl  Cl22  1  0.66666667  0.09810433  0.33333333  1
  Cl  Cl23  1  0.90189567  0.56856233  0.33333333  1
  Cl  Cl24  1  0.07880100  0.15760200  0.29508100  1
  Cl  Cl25  1  0.07880100  0.92119900  0.29508100  1
  Cl  Cl26  1  0.84239800  0.92119900  0.29508100  1
  Cl  Cl27  1  0.15760200  0.07880100  0.70491900  1
  Cl  Cl28  1  0.92119900  0.84239800  0.70491900  1
  Cl  Cl29  1  0.92119900  0.07880100  0.70491900  1
  Cl  Cl30  1  0.56856233  0.66666667  0.66666667  1
  Cl  Cl31  1  0.33333333  0.90189567  0.66666667  1
  Cl  Cl32  1  0.09810433  0.43143767  0.66666667  1
  Cl  Cl33  1  0.09810433  0.66666667  0.66666667  1
  Cl  Cl34  1  0.33333333  0.43143767  0.66666667  1
  Cl  Cl35  1  0.56856233  0.90189567  0.66666667  1
  Cl  Cl36  1  0.74546767  0.49093533  0.62841433  1
  Cl  Cl37  1  0.74546767  0.25453233  0.62841433  1
  Cl  Cl38  1  0.50906467  0.25453233  0.62841433  1
  Cl  Cl39  1  0.82426867  0.41213433  0.03825233  1
  Cl  Cl40  1  0.58786567  0.17573133  0.03825233  1
  Cl  Cl41  1  0.58786567  0.41213433  0.03825233  1
  Cl  Cl42  1  0.23522900  0.00000000  0.00000000  1
  Cl  Cl43  1  0.00000000  0.23522900  0.00000000  1
  Cl  Cl44  1  0.76477100  0.76477100  0.00000000  1
  Cl  Cl45  1  0.76477100  0.00000000  0.00000000  1
  Cl  Cl46  1  0.00000000  0.76477100  0.00000000  1
  Cl  Cl47  1  0.23522900  0.23522900  0.00000000  1
  Cl  Cl48  1  0.41213433  0.82426867  0.96174767  1
  Cl  Cl49  1  0.41213433  0.58786567  0.96174767  1
  Cl  Cl50  1  0.17573133  0.58786567  0.96174767  1
  Cl  Cl51  1  0.49093533  0.74546767  0.37158567  1
  Cl  Cl52  1  0.25453233  0.50906467  0.37158567  1
  Cl  Cl53  1  0.25453233  0.74546767  0.37158567  1
