# generated using pymatgen
data_BaPt2S3
_symmetry_space_group_name_H-M   'P 1'
_cell_length_a   6.88942900
_cell_length_b   6.88942900
_cell_length_c   12.42474300
_cell_angle_alpha   90.00000000
_cell_angle_beta   90.00000000
_cell_angle_gamma   90.00000000
_symmetry_Int_Tables_number   1
_chemical_formula_structural   BaPt2S3
_chemical_formula_sum   'Ba4 Pt8 S12'
_cell_volume   589.73088362
_cell_formula_units_Z   4
loop_
 _symmetry_equiv_pos_site_id
 _symmetry_equiv_pos_as_xyz
  1  'x, y, z'
loop_
 _atom_site_type_symbol
 _atom_site_label
 _atom_site_symmetry_multiplicity
 _atom_site_fract_x
 _atom_site_fract_y
 _atom_site_fract_z
 _atom_site_occupancy
  Ba  Ba0  1  0.67846700  0.67846700  0.00000000  1
  Ba  Ba1  1  0.17846700  0.82153300  0.75000000  1
  Ba  Ba2  1  0.82153300  0.17846700  0.25000000  1
  Ba  Ba3  1  0.32153300  0.32153300  0.50000000  1
  Pt  Pt4  1  0.75036300  0.00706500  0.62510700  1
  Pt  Pt5  1  0.99293500  0.24963700  0.87489300  1
  Pt  Pt6  1  0.00706500  0.75036300  0.37489300  1
  Pt  Pt7  1  0.25036300  0.49293500  0.12489300  1
  Pt  Pt8  1  0.74963700  0.50706500  0.62489300  1
  Pt  Pt9  1  0.49293500  0.25036300  0.87510700  1
  Pt  Pt10  1  0.50706500  0.74963700  0.37510700  1
  Pt  Pt11  1  0.24963700  0.99293500  0.12510700  1
  S  S12  1  0.25655600  0.83628400  0.49514200  1
  S  S13  1  0.74344400  0.16371600  0.99514200  1
  S  S14  1  0.83628400  0.25655600  0.50485800  1
  S  S15  1  0.33628400  0.24344400  0.24514200  1
  S  S16  1  0.66371600  0.75655600  0.74514200  1
  S  S17  1  0.24344400  0.33628400  0.75485800  1
  S  S18  1  0.75655600  0.66371600  0.25485800  1
  S  S19  1  0.24322700  0.24322700  0.00000000  1
  S  S20  1  0.75677300  0.75677300  0.50000000  1
  S  S21  1  0.74322700  0.25677300  0.75000000  1
  S  S22  1  0.25677300  0.74322700  0.25000000  1
  S  S23  1  0.16371600  0.74344400  0.00485800  1
