# generated using pymatgen
data_Ga2TeS2
_symmetry_space_group_name_H-M   'P 1'
_cell_length_a   7.21827800
_cell_length_b   7.21827800
_cell_length_c   10.33808400
_cell_angle_alpha   90.00000000
_cell_angle_beta   90.00000000
_cell_angle_gamma   90.00000000
_symmetry_Int_Tables_number   1
_chemical_formula_structural   Ga2TeS2
_chemical_formula_sum   'Ga8 Te4 S8'
_cell_volume   538.65074515
_cell_formula_units_Z   4
loop_
 _symmetry_equiv_pos_site_id
 _symmetry_equiv_pos_as_xyz
  1  'x, y, z'
loop_
 _atom_site_type_symbol
 _atom_site_label
 _atom_site_symmetry_multiplicity
 _atom_site_fract_x
 _atom_site_fract_y
 _atom_site_fract_z
 _atom_site_occupancy
  Ga  Ga0  1  0.72209800  0.00000000  0.91072800  1
  Ga  Ga1  1  0.00000000  0.77790200  0.16072800  1
  Ga  Ga2  1  0.27790200  0.00000000  0.91072800  1
  Ga  Ga3  1  0.00000000  0.22209800  0.16072800  1
  Ga  Ga4  1  0.22209800  0.50000000  0.41072800  1
  Ga  Ga5  1  0.50000000  0.27790200  0.66072800  1
  Ga  Ga6  1  0.77790200  0.50000000  0.41072800  1
  Ga  Ga7  1  0.50000000  0.72209800  0.66072800  1
  Te  Te8  1  0.00000000  0.50000000  0.00255900  1
  Te  Te9  1  0.00000000  0.00000000  0.75255900  1
  Te  Te10  1  0.50000000  0.00000000  0.50255900  1
  Te  Te11  1  0.50000000  0.50000000  0.25255900  1
  S  S12  1  0.50000000  0.23921450  0.88379250  1
  S  S13  1  0.76078550  0.00000000  0.13379250  1
  S  S14  1  0.23921450  0.00000000  0.13379250  1
  S  S15  1  0.50000000  0.76078550  0.88379250  1
  S  S16  1  0.00000000  0.73921450  0.38379250  1
  S  S17  1  0.26078550  0.50000000  0.63379250  1
  S  S18  1  0.73921450  0.50000000  0.63379250  1
  S  S19  1  0.00000000  0.26078550  0.38379250  1
