# generated using pymatgen
data_BaGe2S5
_symmetry_space_group_name_H-M   'P 1'
_cell_length_a   15.22556600
_cell_length_b   15.22556600
_cell_length_c   15.22556600
_cell_angle_alpha   90.00000000
_cell_angle_beta   90.00000000
_cell_angle_gamma   90.00000000
_symmetry_Int_Tables_number   1
_chemical_formula_structural   BaGe2S5
_chemical_formula_sum   'Ba16 Ge32 S80'
_cell_volume   3529.55812772
_cell_formula_units_Z   16
loop_
 _symmetry_equiv_pos_site_id
 _symmetry_equiv_pos_as_xyz
  1  'x, y, z'
loop_
 _atom_site_type_symbol
 _atom_site_label
 _atom_site_symmetry_multiplicity
 _atom_site_fract_x
 _atom_site_fract_y
 _atom_site_fract_z
 _atom_site_occupancy
  Ba  Ba0  1  0.37500000  0.87500000  0.12500000  1
  Ba  Ba1  1  0.37500000  0.62500000  0.37500000  1
  Ba  Ba2  1  0.12500000  0.87500000  0.37500000  1
  Ba  Ba3  1  0.12500000  0.62500000  0.12500000  1
  Ba  Ba4  1  0.37500000  0.37500000  0.62500000  1
  Ba  Ba5  1  0.37500000  0.12500000  0.87500000  1
  Ba  Ba6  1  0.12500000  0.37500000  0.87500000  1
  Ba  Ba7  1  0.12500000  0.12500000  0.62500000  1
  Ba  Ba8  1  0.87500000  0.87500000  0.62500000  1
  Ba  Ba9  1  0.87500000  0.62500000  0.87500000  1
  Ba  Ba10  1  0.62500000  0.87500000  0.87500000  1
  Ba  Ba11  1  0.62500000  0.62500000  0.62500000  1
  Ba  Ba12  1  0.87500000  0.37500000  0.12500000  1
  Ba  Ba13  1  0.87500000  0.12500000  0.37500000  1
  Ba  Ba14  1  0.62500000  0.37500000  0.37500000  1
  Ba  Ba15  1  0.62500000  0.12500000  0.12500000  1
  Ge  Ge16  1  0.41700100  0.91700100  0.41700100  1
  Ge  Ge17  1  0.33299900  0.16700100  0.16700100  1
  Ge  Ge18  1  0.16700100  0.16700100  0.33299900  1
  Ge  Ge19  1  0.16700100  0.33299900  0.16700100  1
  Ge  Ge20  1  0.58299900  0.08299900  0.41700100  1
  Ge  Ge21  1  0.08299900  0.91700100  0.08299900  1
  Ge  Ge22  1  0.91700100  0.08299900  0.08299900  1
  Ge  Ge23  1  0.33299900  0.33299900  0.33299900  1
  Ge  Ge24  1  0.41700100  0.41700100  0.91700100  1
  Ge  Ge25  1  0.33299900  0.66700100  0.66700100  1
  Ge  Ge26  1  0.16700100  0.66700100  0.83299900  1
  Ge  Ge27  1  0.16700100  0.83299900  0.66700100  1
  Ge  Ge28  1  0.58299900  0.58299900  0.91700100  1
  Ge  Ge29  1  0.08299900  0.41700100  0.58299900  1
  Ge  Ge30  1  0.91700100  0.58299900  0.58299900  1
  Ge  Ge31  1  0.33299900  0.83299900  0.83299900  1
  Ge  Ge32  1  0.91700100  0.91700100  0.91700100  1
  Ge  Ge33  1  0.83299900  0.16700100  0.66700100  1
  Ge  Ge34  1  0.66700100  0.16700100  0.83299900  1
  Ge  Ge35  1  0.66700100  0.33299900  0.66700100  1
  Ge  Ge36  1  0.08299900  0.08299900  0.91700100  1
  Ge  Ge37  1  0.58299900  0.91700100  0.58299900  1
  Ge  Ge38  1  0.41700100  0.08299900  0.58299900  1
  Ge  Ge39  1  0.83299900  0.33299900  0.83299900  1
  Ge  Ge40  1  0.91700100  0.41700100  0.41700100  1
  Ge  Ge41  1  0.83299900  0.66700100  0.16700100  1
  Ge  Ge42  1  0.66700100  0.66700100  0.33299900  1
  Ge  Ge43  1  0.66700100  0.83299900  0.16700100  1
  Ge  Ge44  1  0.08299900  0.58299900  0.41700100  1
  Ge  Ge45  1  0.58299900  0.41700100  0.08299900  1
  Ge  Ge46  1  0.41700100  0.58299900  0.08299900  1
  Ge  Ge47  1  0.83299900  0.83299900  0.33299900  1
  S  S48  1  0.07696300  0.25000000  0.25000000  1
  S  S49  1  0.32696300  0.00000000  0.50000000  1
  S  S50  1  0.25000000  0.07696300  0.25000000  1
  S  S51  1  0.25000000  0.25000000  0.07696300  1
  S  S52  1  0.25000000  0.25000000  0.42303700  1
  S  S53  1  0.25000000  0.42303700  0.25000000  1
  S  S54  1  0.67303700  0.00000000  0.50000000  1
  S  S55  1  0.00000000  0.00000000  0.17303700  1
  S  S56  1  0.50000000  0.00000000  0.32696300  1
  S  S57  1  0.50000000  0.82696300  0.50000000  1
  S  S58  1  0.50000000  0.17303700  0.50000000  1
  S  S59  1  0.42303700  0.25000000  0.25000000  1
  S  S60  1  0.41555800  0.41555800  0.41555800  1
  S  S61  1  0.83444200  0.16555800  0.16555800  1
  S  S62  1  0.16555800  0.83444200  0.16555800  1
  S  S63  1  0.66555800  0.16555800  0.33444200  1
  S  S64  1  0.08444200  0.41555800  0.08444200  1
  S  S65  1  0.08444200  0.08444200  0.41555800  1
  S  S66  1  0.41555800  0.08444200  0.08444200  1
  S  S67  1  0.33444200  0.83444200  0.33444200  1
  S  S68  1  0.07696300  0.75000000  0.75000000  1
  S  S69  1  0.32696300  0.50000000  0.00000000  1
  S  S70  1  0.25000000  0.57696300  0.75000000  1
  S  S71  1  0.25000000  0.75000000  0.57696300  1
  S  S72  1  0.25000000  0.75000000  0.92303700  1
  S  S73  1  0.25000000  0.92303700  0.75000000  1
  S  S74  1  0.67303700  0.50000000  0.00000000  1
  S  S75  1  0.00000000  0.50000000  0.67303700  1
  S  S76  1  0.50000000  0.50000000  0.82696300  1
  S  S77  1  0.50000000  0.32696300  0.00000000  1
  S  S78  1  0.50000000  0.67303700  0.00000000  1
  S  S79  1  0.42303700  0.75000000  0.75000000  1
  S  S80  1  0.41555800  0.91555800  0.91555800  1
  S  S81  1  0.83444200  0.66555800  0.66555800  1
  S  S82  1  0.16555800  0.33444200  0.66555800  1
  S  S83  1  0.66555800  0.66555800  0.83444200  1
  S  S84  1  0.08444200  0.91555800  0.58444200  1
  S  S85  1  0.08444200  0.58444200  0.91555800  1
  S  S86  1  0.41555800  0.58444200  0.58444200  1
  S  S87  1  0.33444200  0.33444200  0.83444200  1
  S  S88  1  0.57696300  0.25000000  0.75000000  1
  S  S89  1  0.82696300  0.00000000  0.00000000  1
  S  S90  1  0.75000000  0.07696300  0.75000000  1
  S  S91  1  0.75000000  0.25000000  0.57696300  1
  S  S92  1  0.75000000  0.25000000  0.92303700  1
  S  S93  1  0.75000000  0.42303700  0.75000000  1
  S  S94  1  0.17303700  0.00000000  0.00000000  1
  S  S95  1  0.50000000  0.00000000  0.67303700  1
  S  S96  1  0.00000000  0.00000000  0.82696300  1
  S  S97  1  0.00000000  0.82696300  0.00000000  1
  S  S98  1  0.00000000  0.17303700  0.00000000  1
  S  S99  1  0.92303700  0.25000000  0.75000000  1
  S  S100  1  0.91555800  0.41555800  0.91555800  1
  S  S101  1  0.33444200  0.16555800  0.66555800  1
  S  S102  1  0.66555800  0.83444200  0.66555800  1
  S  S103  1  0.16555800  0.16555800  0.83444200  1
  S  S104  1  0.58444200  0.41555800  0.58444200  1
  S  S105  1  0.58444200  0.08444200  0.91555800  1
  S  S106  1  0.91555800  0.08444200  0.58444200  1
  S  S107  1  0.83444200  0.83444200  0.83444200  1
  S  S108  1  0.57696300  0.75000000  0.25000000  1
  S  S109  1  0.82696300  0.50000000  0.50000000  1
  S  S110  1  0.75000000  0.57696300  0.25000000  1
  S  S111  1  0.75000000  0.75000000  0.07696300  1
  S  S112  1  0.75000000  0.75000000  0.42303700  1
  S  S113  1  0.75000000  0.92303700  0.25000000  1
  S  S114  1  0.17303700  0.50000000  0.50000000  1
  S  S115  1  0.50000000  0.50000000  0.17303700  1
  S  S116  1  0.00000000  0.50000000  0.32696300  1
  S  S117  1  0.00000000  0.32696300  0.50000000  1
  S  S118  1  0.00000000  0.67303700  0.50000000  1
  S  S119  1  0.92303700  0.75000000  0.25000000  1
  S  S120  1  0.91555800  0.91555800  0.41555800  1
  S  S121  1  0.33444200  0.66555800  0.16555800  1
  S  S122  1  0.66555800  0.33444200  0.16555800  1
  S  S123  1  0.16555800  0.66555800  0.33444200  1
  S  S124  1  0.58444200  0.91555800  0.08444200  1
  S  S125  1  0.58444200  0.58444200  0.41555800  1
  S  S126  1  0.91555800  0.58444200  0.08444200  1
  S  S127  1  0.83444200  0.33444200  0.33444200  1
