# generated using pymatgen
data_LiTi(PO3)4
_symmetry_space_group_name_H-M   'P 1'
_cell_length_a   12.13661800
_cell_length_b   8.44494000
_cell_length_c   9.98333399
_cell_angle_alpha   90.00000000
_cell_angle_beta   118.64066835
_cell_angle_gamma   90.00000000
_symmetry_Int_Tables_number   1
_chemical_formula_structural   LiTi(PO3)4
_chemical_formula_sum   'Li4 Ti4 P16 O48'
_cell_volume   898.02356962
_cell_formula_units_Z   4
loop_
 _symmetry_equiv_pos_site_id
 _symmetry_equiv_pos_as_xyz
  1  'x, y, z'
loop_
 _atom_site_type_symbol
 _atom_site_label
 _atom_site_symmetry_multiplicity
 _atom_site_fract_x
 _atom_site_fract_y
 _atom_site_fract_z
 _atom_site_occupancy
  Li  Li0  1  0.50000000  0.54117400  0.25000000  1
  Li  Li1  1  0.00000000  0.95882600  0.75000000  1
  Li  Li2  1  0.00000000  0.04117400  0.25000000  1
  Li  Li3  1  0.50000000  0.45882600  0.75000000  1
  Ti  Ti4  1  0.25000000  0.25000000  0.50000000  1
  Ti  Ti5  1  0.25000000  0.75000000  0.00000000  1
  Ti  Ti6  1  0.75000000  0.75000000  0.50000000  1
  Ti  Ti7  1  0.75000000  0.25000000  0.00000000  1
  P  P8  1  0.99388850  0.73652450  0.02665600  1
  P  P9  1  0.18963000  0.49438700  0.19560000  1
  P  P10  1  0.31037000  0.00561300  0.80440000  1
  P  P11  1  0.68963000  0.00561300  0.69560000  1
  P  P12  1  0.00611150  0.73652450  0.47334400  1
  P  P13  1  0.81037000  0.49438700  0.30440000  1
  P  P14  1  0.50611150  0.76347550  0.97334400  1
  P  P15  1  0.49388850  0.76347550  0.52665600  1
  P  P16  1  0.49388850  0.23652450  0.02665600  1
  P  P17  1  0.68963000  0.99438700  0.19560000  1
  P  P18  1  0.81037000  0.50561300  0.80440000  1
  P  P19  1  0.18963000  0.50561300  0.69560000  1
  P  P20  1  0.50611150  0.23652450  0.47334400  1
  P  P21  1  0.31037000  0.99438700  0.30440000  1
  P  P22  1  0.00611150  0.26347550  0.97334400  1
  P  P23  1  0.99388850  0.26347550  0.52665600  1
  O  O24  1  0.21201350  0.08387750  0.32652800  1
  O  O25  1  0.07435000  0.60828800  0.16191300  1
  O  O26  1  0.57435000  0.89171200  0.66191300  1
  O  O27  1  0.73022700  0.07920100  0.84923700  1
  O  O28  1  0.94222700  0.25049400  0.07239400  1
  O  O29  1  0.94222700  0.74950600  0.57239400  1
  O  O30  1  0.55777300  0.75049400  0.42760600  1
  O  O31  1  0.13645200  0.63984900  0.56728700  1
  O  O32  1  0.23022700  0.42079900  0.34923700  1
  O  O33  1  0.76977300  0.42079900  0.15076300  1
  O  O34  1  0.03230450  0.87745750  0.40762300  1
  O  O35  1  0.92565000  0.60828800  0.33808700  1
  O  O36  1  0.21201350  0.91612250  0.82652800  1
  O  O37  1  0.42565000  0.89171200  0.83808700  1
  O  O38  1  0.28798650  0.41612250  0.67347200  1
  O  O39  1  0.96769550  0.87745750  0.09237700  1
  O  O40  1  0.28798650  0.58387750  0.17347200  1
  O  O41  1  0.36354800  0.86015100  0.43271300  1
  O  O42  1  0.36354800  0.13984900  0.93271300  1
  O  O43  1  0.13645200  0.36015100  0.06728700  1
  O  O44  1  0.53230450  0.62254250  0.90762300  1
  O  O45  1  0.26977300  0.07920100  0.65076300  1
  O  O46  1  0.55777300  0.24950600  0.92760600  1
  O  O47  1  0.46769550  0.62254250  0.59237700  1
  O  O48  1  0.71201350  0.58387750  0.32652800  1
  O  O49  1  0.57435000  0.10828800  0.16191300  1
  O  O50  1  0.07435000  0.39171200  0.66191300  1
  O  O51  1  0.23022700  0.57920100  0.84923700  1
  O  O52  1  0.44222700  0.75049400  0.07239400  1
  O  O53  1  0.44222700  0.24950600  0.57239400  1
  O  O54  1  0.05777300  0.25049400  0.42760600  1
  O  O55  1  0.63645200  0.13984900  0.56728700  1
  O  O56  1  0.73022700  0.92079900  0.34923700  1
  O  O57  1  0.26977300  0.92079900  0.15076300  1
  O  O58  1  0.53230450  0.37745750  0.40762300  1
  O  O59  1  0.42565000  0.10828800  0.33808700  1
  O  O60  1  0.71201350  0.41612250  0.82652800  1
  O  O61  1  0.92565000  0.39171200  0.83808700  1
  O  O62  1  0.78798650  0.91612250  0.67347200  1
  O  O63  1  0.46769550  0.37745750  0.09237700  1
  O  O64  1  0.78798650  0.08387750  0.17347200  1
  O  O65  1  0.86354800  0.36015100  0.43271300  1
  O  O66  1  0.86354800  0.63984900  0.93271300  1
  O  O67  1  0.63645200  0.86015100  0.06728700  1
  O  O68  1  0.03230450  0.12254250  0.90762300  1
  O  O69  1  0.76977300  0.57920100  0.65076300  1
  O  O70  1  0.05777300  0.74950600  0.92760600  1
  O  O71  1  0.96769550  0.12254250  0.59237700  1
