# generated using pymatgen
data_MgH4(ClO)2
_symmetry_space_group_name_H-M   'P 1'
_cell_length_a   8.05113600
_cell_length_b   8.48154400
_cell_length_c   3.70305458
_cell_angle_alpha   90.00000000
_cell_angle_beta   105.05198516
_cell_angle_gamma   90.00000000
_symmetry_Int_Tables_number   1
_chemical_formula_structural   MgH4(ClO)2
_chemical_formula_sum   'Mg2 H8 Cl4 O4'
_cell_volume   244.19130713
_cell_formula_units_Z   2
loop_
 _symmetry_equiv_pos_site_id
 _symmetry_equiv_pos_as_xyz
  1  'x, y, z'
loop_
 _atom_site_type_symbol
 _atom_site_label
 _atom_site_symmetry_multiplicity
 _atom_site_fract_x
 _atom_site_fract_y
 _atom_site_fract_z
 _atom_site_occupancy
  Mg  Mg0  1  0.00000000  0.00000000  0.00000000  1
  Mg  Mg1  1  0.50000000  0.50000000  0.00000000  1
  H  H2  1  0.40954750  0.18948850  0.85112500  1
  H  H3  1  0.59045250  0.18948850  0.14887500  1
  H  H4  1  0.59045250  0.81051150  0.14887500  1
  H  H5  1  0.40954750  0.81051150  0.85112500  1
  H  H6  1  0.90954750  0.68948850  0.85112500  1
  H  H7  1  0.09045250  0.68948850  0.14887500  1
  H  H8  1  0.09045250  0.31051150  0.14887500  1
  H  H9  1  0.90954750  0.31051150  0.85112500  1
  Cl  Cl10  1  0.77323900  0.00000000  0.38250600  1
  Cl  Cl11  1  0.22676100  0.00000000  0.61749400  1
  Cl  Cl12  1  0.27323900  0.50000000  0.38250600  1
  Cl  Cl13  1  0.72676100  0.50000000  0.61749400  1
  O  O14  1  0.50000000  0.25890300  0.00000000  1
  O  O15  1  0.50000000  0.74109700  0.00000000  1
  O  O16  1  0.00000000  0.75890300  0.00000000  1
  O  O17  1  0.00000000  0.24109700  0.00000000  1
