# generated using pymatgen
data_ZnH4(CO3)2
_symmetry_space_group_name_H-M   'P 1'
_cell_length_a   12.23133200
_cell_length_b   5.51344000
_cell_length_c   9.78065951
_cell_angle_alpha   90.00000000
_cell_angle_beta   127.45998787
_cell_angle_gamma   90.00000000
_symmetry_Int_Tables_number   1
_chemical_formula_structural   ZnH4(CO3)2
_chemical_formula_sum   'Zn4 H16 C8 O24'
_cell_volume   523.55673912
_cell_formula_units_Z   4
loop_
 _symmetry_equiv_pos_site_id
 _symmetry_equiv_pos_as_xyz
  1  'x, y, z'
loop_
 _atom_site_type_symbol
 _atom_site_label
 _atom_site_symmetry_multiplicity
 _atom_site_fract_x
 _atom_site_fract_y
 _atom_site_fract_z
 _atom_site_occupancy
  Zn  Zn0  1  0.50000000  0.92665800  0.25000000  1
  Zn  Zn1  1  0.50000000  0.07334200  0.75000000  1
  Zn  Zn2  1  0.00000000  0.42665800  0.25000000  1
  Zn  Zn3  1  0.00000000  0.57334200  0.75000000  1
  H  H4  1  0.25897500  0.38561000  0.34909300  1
  H  H5  1  0.24102500  0.88561000  0.15090700  1
  H  H6  1  0.15640050  0.35098250  0.14303800  1
  H  H7  1  0.34359950  0.85098250  0.35696200  1
  H  H8  1  0.84359950  0.64901750  0.85696200  1
  H  H9  1  0.75897500  0.11439000  0.84909300  1
  H  H10  1  0.74102500  0.61439000  0.65090700  1
  H  H11  1  0.65640050  0.14901750  0.64303800  1
  H  H12  1  0.75897500  0.88561000  0.34909300  1
  H  H13  1  0.74102500  0.38561000  0.15090700  1
  H  H14  1  0.65640050  0.85098250  0.14303800  1
  H  H15  1  0.84359950  0.35098250  0.35696200  1
  H  H16  1  0.34359950  0.14901750  0.85696200  1
  H  H17  1  0.25897500  0.61439000  0.84909300  1
  H  H18  1  0.24102500  0.11439000  0.65090700  1
  H  H19  1  0.15640050  0.64901750  0.64303800  1
  C  C20  1  0.44888850  0.42563450  0.14952700  1
  C  C21  1  0.44888850  0.57436550  0.64952700  1
  C  C22  1  0.55111150  0.57436550  0.85047300  1
  C  C23  1  0.55111150  0.42563450  0.35047300  1
  C  C24  1  0.94888850  0.92563450  0.14952700  1
  C  C25  1  0.94888850  0.07436550  0.64952700  1
  C  C26  1  0.05111150  0.07436550  0.85047300  1
  C  C27  1  0.05111150  0.92563450  0.35047300  1
  O  O28  1  0.82971100  0.56231000  0.75884400  1
  O  O29  1  0.40946900  0.62996900  0.07430800  1
  O  O30  1  0.67028900  0.06231000  0.74115600  1
  O  O31  1  0.59053100  0.62996900  0.42569200  1
  O  O32  1  0.32971100  0.93769000  0.25884400  1
  O  O33  1  0.17028900  0.43769000  0.24115600  1
  O  O34  1  0.58795250  0.22138250  0.42495000  1
  O  O35  1  0.58795250  0.77861750  0.92495000  1
  O  O36  1  0.40946900  0.37003100  0.57430800  1
  O  O37  1  0.41204750  0.22138250  0.07505000  1
  O  O38  1  0.59053100  0.37003100  0.92569200  1
  O  O39  1  0.41204750  0.77861750  0.57505000  1
  O  O40  1  0.32971100  0.06231000  0.75884400  1
  O  O41  1  0.90946900  0.12996900  0.07430800  1
  O  O42  1  0.17028900  0.56231000  0.74115600  1
  O  O43  1  0.09053100  0.12996900  0.42569200  1
  O  O44  1  0.82971100  0.43769000  0.25884400  1
  O  O45  1  0.67028900  0.93769000  0.24115600  1
  O  O46  1  0.08795250  0.72138250  0.42495000  1
  O  O47  1  0.08795250  0.27861750  0.92495000  1
  O  O48  1  0.90946900  0.87003100  0.57430800  1
  O  O49  1  0.91204750  0.72138250  0.07505000  1
  O  O50  1  0.09053100  0.87003100  0.92569200  1
  O  O51  1  0.91204750  0.27861750  0.57505000  1
