# generated using pymatgen
data_KNb3O8
_symmetry_space_group_name_H-M   'P 1'
_cell_length_a   3.84640000
_cell_length_b   21.75369800
_cell_length_c   9.10488200
_cell_angle_alpha   90.00000000
_cell_angle_beta   90.00000000
_cell_angle_gamma   90.00000000
_symmetry_Int_Tables_number   1
_chemical_formula_structural   KNb3O8
_chemical_formula_sum   'K4 Nb12 O32'
_cell_volume   761.83665194
_cell_formula_units_Z   4
loop_
 _symmetry_equiv_pos_site_id
 _symmetry_equiv_pos_as_xyz
  1  'x, y, z'
loop_
 _atom_site_type_symbol
 _atom_site_label
 _atom_site_symmetry_multiplicity
 _atom_site_fract_x
 _atom_site_fract_y
 _atom_site_fract_z
 _atom_site_occupancy
  K  K0  1  0.50000000  0.51664200  0.75000000  1
  K  K1  1  0.00000000  0.98335800  0.25000000  1
  K  K2  1  0.00000000  0.01664200  0.75000000  1
  K  K3  1  0.50000000  0.48335800  0.25000000  1
  Nb  Nb4  1  0.00000000  0.75729100  0.75000000  1
  Nb  Nb5  1  0.50000000  0.74270900  0.25000000  1
  Nb  Nb6  1  0.50000000  0.86793300  0.55949600  1
  Nb  Nb7  1  0.00000000  0.63206700  0.44050400  1
  Nb  Nb8  1  0.00000000  0.63206700  0.05949600  1
  Nb  Nb9  1  0.50000000  0.86793300  0.94050400  1
  Nb  Nb10  1  0.50000000  0.25729100  0.75000000  1
  Nb  Nb11  1  0.00000000  0.24270900  0.25000000  1
  Nb  Nb12  1  0.00000000  0.36793300  0.55949600  1
  Nb  Nb13  1  0.50000000  0.13206700  0.44050400  1
  Nb  Nb14  1  0.50000000  0.13206700  0.05949600  1
  Nb  Nb15  1  0.00000000  0.36793300  0.94050400  1
  O  O16  1  0.50000000  0.91323400  0.75000000  1
  O  O17  1  0.00000000  0.58676600  0.25000000  1
  O  O18  1  0.50000000  0.78467800  0.75000000  1
  O  O19  1  0.00000000  0.71532200  0.25000000  1
  O  O20  1  0.50000000  0.79647400  0.40556400  1
  O  O21  1  0.00000000  0.70352600  0.59443600  1
  O  O22  1  0.00000000  0.70352600  0.90556400  1
  O  O23  1  0.50000000  0.79647400  0.09443600  1
  O  O24  1  0.50000000  0.65728100  0.40774600  1
  O  O25  1  0.00000000  0.84271900  0.59225400  1
  O  O26  1  0.00000000  0.84271900  0.90774600  1
  O  O27  1  0.50000000  0.65728100  0.09225400  1
  O  O28  1  0.50000000  0.93100700  0.06449600  1
  O  O29  1  0.00000000  0.56899300  0.93550400  1
  O  O30  1  0.00000000  0.56899300  0.56449600  1
  O  O31  1  0.50000000  0.93100700  0.43550400  1
  O  O32  1  0.00000000  0.41323400  0.75000000  1
  O  O33  1  0.50000000  0.08676600  0.25000000  1
  O  O34  1  0.00000000  0.28467800  0.75000000  1
  O  O35  1  0.50000000  0.21532200  0.25000000  1
  O  O36  1  0.00000000  0.29647400  0.40556400  1
  O  O37  1  0.50000000  0.20352600  0.59443600  1
  O  O38  1  0.50000000  0.20352600  0.90556400  1
  O  O39  1  0.00000000  0.29647400  0.09443600  1
  O  O40  1  0.00000000  0.15728100  0.40774600  1
  O  O41  1  0.50000000  0.34271900  0.59225400  1
  O  O42  1  0.50000000  0.34271900  0.90774600  1
  O  O43  1  0.00000000  0.15728100  0.09225400  1
  O  O44  1  0.00000000  0.43100700  0.06449600  1
  O  O45  1  0.50000000  0.06899300  0.93550400  1
  O  O46  1  0.50000000  0.06899300  0.56449600  1
  O  O47  1  0.00000000  0.43100700  0.43550400  1
