# generated using pymatgen
data_ReH4NO4
_symmetry_space_group_name_H-M   'P 1'
_cell_length_a   6.24956000
_cell_length_b   6.24956000
_cell_length_c   12.25703400
_cell_angle_alpha   90.00000000
_cell_angle_beta   90.00000000
_cell_angle_gamma   90.00000000
_symmetry_Int_Tables_number   1
_chemical_formula_structural   ReH4NO4
_chemical_formula_sum   'Re4 H16 N4 O16'
_cell_volume   478.72297931
_cell_formula_units_Z   4
loop_
 _symmetry_equiv_pos_site_id
 _symmetry_equiv_pos_as_xyz
  1  'x, y, z'
loop_
 _atom_site_type_symbol
 _atom_site_label
 _atom_site_symmetry_multiplicity
 _atom_site_fract_x
 _atom_site_fract_y
 _atom_site_fract_z
 _atom_site_occupancy
  Re  Re0  1  0.00000000  0.50000000  0.25000000  1
  Re  Re1  1  0.00000000  0.00000000  0.00000000  1
  Re  Re2  1  0.50000000  0.00000000  0.75000000  1
  Re  Re3  1  0.50000000  0.50000000  0.50000000  1
  H  H4  1  0.37302850  0.95648950  0.20004550  1
  H  H5  1  0.04351050  0.87302850  0.45004550  1
  H  H6  1  0.62697150  0.54351050  0.04995450  1
  H  H7  1  0.45648950  0.12697150  0.29995450  1
  H  H8  1  0.62697150  0.04351050  0.20004550  1
  H  H9  1  0.37302850  0.45648950  0.04995450  1
  H  H10  1  0.95648950  0.12697150  0.45004550  1
  H  H11  1  0.54351050  0.87302850  0.29995450  1
  H  H12  1  0.87302850  0.45648950  0.70004550  1
  H  H13  1  0.54351050  0.37302850  0.95004550  1
  H  H14  1  0.12697150  0.04351050  0.54995450  1
  H  H15  1  0.95648950  0.62697150  0.79995450  1
  H  H16  1  0.12697150  0.54351050  0.70004550  1
  H  H17  1  0.87302850  0.95648950  0.54995450  1
  H  H18  1  0.45648950  0.62697150  0.95004550  1
  H  H19  1  0.04351050  0.37302850  0.79995450  1
  N  N20  1  0.50000000  0.50000000  0.00000000  1
  N  N21  1  0.50000000  0.00000000  0.25000000  1
  N  N22  1  0.00000000  0.00000000  0.50000000  1
  N  N23  1  0.00000000  0.50000000  0.75000000  1
  O  O24  1  0.11203100  0.70109400  0.33212500  1
  O  O25  1  0.20109400  0.88796900  0.08212500  1
  O  O26  1  0.38796900  0.29890600  0.41787500  1
  O  O27  1  0.20109400  0.38796900  0.16787500  1
  O  O28  1  0.79890600  0.61203100  0.16787500  1
  O  O29  1  0.88796900  0.29890600  0.33212500  1
  O  O30  1  0.79890600  0.11203100  0.08212500  1
  O  O31  1  0.61203100  0.70109400  0.41787500  1
  O  O32  1  0.61203100  0.20109400  0.83212500  1
  O  O33  1  0.70109400  0.38796900  0.58212500  1
  O  O34  1  0.88796900  0.79890600  0.91787500  1
  O  O35  1  0.70109400  0.88796900  0.66787500  1
  O  O36  1  0.29890600  0.11203100  0.66787500  1
  O  O37  1  0.38796900  0.79890600  0.83212500  1
  O  O38  1  0.29890600  0.61203100  0.58212500  1
  O  O39  1  0.11203100  0.20109400  0.91787500  1
