# generated using pymatgen
data_Sn2OF2
_symmetry_space_group_name_H-M   'P 1'
_cell_length_a   9.40278200
_cell_length_b   8.17258600
_cell_length_c   5.22798905
_cell_angle_alpha   90.00000000
_cell_angle_beta   97.22581900
_cell_angle_gamma   90.00000000
_symmetry_Int_Tables_number   1
_chemical_formula_structural   Sn2OF2
_chemical_formula_sum   'Sn8 O4 F8'
_cell_volume   398.55444128
_cell_formula_units_Z   4
loop_
 _symmetry_equiv_pos_site_id
 _symmetry_equiv_pos_as_xyz
  1  'x, y, z'
loop_
 _atom_site_type_symbol
 _atom_site_label
 _atom_site_symmetry_multiplicity
 _atom_site_fract_x
 _atom_site_fract_y
 _atom_site_fract_z
 _atom_site_occupancy
  Sn  Sn0  1  0.50000000  0.20272800  0.50000000  1
  Sn  Sn1  1  0.50000000  0.79727200  0.50000000  1
  Sn  Sn2  1  0.78121900  0.00000000  0.98782600  1
  Sn  Sn3  1  0.21878100  0.00000000  0.01217400  1
  Sn  Sn4  1  0.00000000  0.70272800  0.50000000  1
  Sn  Sn5  1  0.00000000  0.29727200  0.50000000  1
  Sn  Sn6  1  0.28121900  0.50000000  0.98782600  1
  Sn  Sn7  1  0.71878100  0.50000000  0.01217400  1
  O  O8  1  0.60796000  0.00000000  0.69445600  1
  O  O9  1  0.39204000  0.00000000  0.30554400  1
  O  O10  1  0.10796000  0.50000000  0.69445600  1
  O  O11  1  0.89204000  0.50000000  0.30554400  1
  F  F12  1  0.32550350  0.81682750  0.79889300  1
  F  F13  1  0.67449650  0.18317250  0.20110700  1
  F  F14  1  0.32550350  0.18317250  0.79889300  1
  F  F15  1  0.67449650  0.81682750  0.20110700  1
  F  F16  1  0.82550350  0.31682750  0.79889300  1
  F  F17  1  0.17449650  0.68317250  0.20110700  1
  F  F18  1  0.82550350  0.68317250  0.79889300  1
  F  F19  1  0.17449650  0.31682750  0.20110700  1
