# generated using pymatgen
data_CsBrF
_symmetry_space_group_name_H-M   'P 1'
_cell_length_a   4.39929400
_cell_length_b   4.39929400
_cell_length_c   20.15853200
_cell_angle_alpha   90.00000000
_cell_angle_beta   90.00000000
_cell_angle_gamma   90.00000000
_symmetry_Int_Tables_number   1
_chemical_formula_structural   CsBrF
_chemical_formula_sum   'Cs4 Br4 F4'
_cell_volume   390.14394864
_cell_formula_units_Z   4
loop_
 _symmetry_equiv_pos_site_id
 _symmetry_equiv_pos_as_xyz
  1  'x, y, z'
loop_
 _atom_site_type_symbol
 _atom_site_label
 _atom_site_symmetry_multiplicity
 _atom_site_fract_x
 _atom_site_fract_y
 _atom_site_fract_z
 _atom_site_occupancy
  Cs  Cs0  1  0.50000000  0.50000000  0.16924900  1
  Cs  Cs1  1  0.00000000  0.00000000  0.33075100  1
  Cs  Cs2  1  0.00000000  0.00000000  0.66924900  1
  Cs  Cs3  1  0.50000000  0.50000000  0.83075100  1
  Br  Br4  1  0.00000000  0.00000000  0.05986900  1
  Br  Br5  1  0.50000000  0.50000000  0.44013100  1
  Br  Br6  1  0.50000000  0.50000000  0.55986900  1
  Br  Br7  1  0.00000000  0.00000000  0.94013100  1
  F  F8  1  0.50000000  0.50000000  0.31673300  1
  F  F9  1  0.00000000  0.00000000  0.18326700  1
  F  F10  1  0.00000000  0.00000000  0.81673300  1
  F  F11  1  0.50000000  0.50000000  0.68326700  1
