# generated using pymatgen
data_Sr(ClO3)2
_symmetry_space_group_name_H-M   'P 1'
_cell_length_a   7.64078800
_cell_length_b   11.71543800
_cell_length_c   12.72302600
_cell_angle_alpha   90.00000000
_cell_angle_beta   90.00000000
_cell_angle_gamma   90.00000000
_symmetry_Int_Tables_number   1
_chemical_formula_structural   Sr(ClO3)2
_chemical_formula_sum   'Sr8 Cl16 O48'
_cell_volume   1138.90393817
_cell_formula_units_Z   8
loop_
 _symmetry_equiv_pos_site_id
 _symmetry_equiv_pos_as_xyz
  1  'x, y, z'
loop_
 _atom_site_type_symbol
 _atom_site_label
 _atom_site_symmetry_multiplicity
 _atom_site_fract_x
 _atom_site_fract_y
 _atom_site_fract_z
 _atom_site_occupancy
  Sr  Sr0  1  0.74904300  0.00000000  0.50000000  1
  Sr  Sr1  1  0.49904300  0.75000000  0.75000000  1
  Sr  Sr2  1  0.24904300  0.00000000  0.00000000  1
  Sr  Sr3  1  0.99904300  0.75000000  0.25000000  1
  Sr  Sr4  1  0.24904300  0.50000000  0.50000000  1
  Sr  Sr5  1  0.99904300  0.25000000  0.75000000  1
  Sr  Sr6  1  0.74904300  0.50000000  0.00000000  1
  Sr  Sr7  1  0.49904300  0.25000000  0.25000000  1
  Cl  Cl8  1  0.31591450  0.19657750  0.51995700  1
  Cl  Cl9  1  0.31591450  0.30342250  0.98004300  1
  Cl  Cl10  1  0.56591450  0.05342250  0.76995700  1
  Cl  Cl11  1  0.06591450  0.94657750  0.73004300  1
  Cl  Cl12  1  0.81591450  0.19657750  0.01995700  1
  Cl  Cl13  1  0.81591450  0.30342250  0.48004300  1
  Cl  Cl14  1  0.06591450  0.05342250  0.26995700  1
  Cl  Cl15  1  0.56591450  0.94657750  0.23004300  1
  Cl  Cl16  1  0.81591450  0.69657750  0.51995700  1
  Cl  Cl17  1  0.81591450  0.80342250  0.98004300  1
  Cl  Cl18  1  0.06591450  0.55342250  0.76995700  1
  Cl  Cl19  1  0.56591450  0.44657750  0.73004300  1
  Cl  Cl20  1  0.31591450  0.69657750  0.01995700  1
  Cl  Cl21  1  0.31591450  0.80342250  0.48004300  1
  Cl  Cl22  1  0.56591450  0.55342250  0.26995700  1
  Cl  Cl23  1  0.06591450  0.44657750  0.23004300  1
  O  O24  1  0.97648850  0.62894250  0.54184900  1
  O  O25  1  0.47648850  0.37105750  0.95815100  1
  O  O26  1  0.22648850  0.62105750  0.79184900  1
  O  O27  1  0.22648850  0.87894250  0.70815100  1
  O  O28  1  0.51913100  0.99020600  0.86908000  1
  O  O29  1  0.01913100  0.00979400  0.63092000  1
  O  O30  1  0.11964500  0.04116500  0.80633900  1
  O  O31  1  0.61964500  0.95883500  0.69366100  1
  O  O32  1  0.86964500  0.20883500  0.55633900  1
  O  O33  1  0.36964500  0.79116500  0.94366100  1
  O  O34  1  0.26913100  0.24020600  0.88092000  1
  O  O35  1  0.26913100  0.25979400  0.61908000  1
  O  O36  1  0.47648850  0.62894250  0.04184900  1
  O  O37  1  0.97648850  0.37105750  0.45815100  1
  O  O38  1  0.72648850  0.62105750  0.29184900  1
  O  O39  1  0.72648850  0.87894250  0.20815100  1
  O  O40  1  0.01913100  0.99020600  0.36908000  1
  O  O41  1  0.51913100  0.00979400  0.13092000  1
  O  O42  1  0.61964500  0.04116500  0.30633900  1
  O  O43  1  0.11964500  0.95883500  0.19366100  1
  O  O44  1  0.36964500  0.20883500  0.05633900  1
  O  O45  1  0.86964500  0.79116500  0.44366100  1
  O  O46  1  0.76913100  0.24020600  0.38092000  1
  O  O47  1  0.76913100  0.25979400  0.11908000  1
  O  O48  1  0.47648850  0.12894250  0.54184900  1
  O  O49  1  0.97648850  0.87105750  0.95815100  1
  O  O50  1  0.72648850  0.12105750  0.79184900  1
  O  O51  1  0.72648850  0.37894250  0.70815100  1
  O  O52  1  0.01913100  0.49020600  0.86908000  1
  O  O53  1  0.51913100  0.50979400  0.63092000  1
  O  O54  1  0.61964500  0.54116500  0.80633900  1
  O  O55  1  0.11964500  0.45883500  0.69366100  1
  O  O56  1  0.36964500  0.70883500  0.55633900  1
  O  O57  1  0.86964500  0.29116500  0.94366100  1
  O  O58  1  0.76913100  0.74020600  0.88092000  1
  O  O59  1  0.76913100  0.75979400  0.61908000  1
  O  O60  1  0.97648850  0.12894250  0.04184900  1
  O  O61  1  0.47648850  0.87105750  0.45815100  1
  O  O62  1  0.22648850  0.12105750  0.29184900  1
  O  O63  1  0.22648850  0.37894250  0.20815100  1
  O  O64  1  0.51913100  0.49020600  0.36908000  1
  O  O65  1  0.01913100  0.50979400  0.13092000  1
  O  O66  1  0.11964500  0.54116500  0.30633900  1
  O  O67  1  0.61964500  0.45883500  0.19366100  1
  O  O68  1  0.86964500  0.70883500  0.05633900  1
  O  O69  1  0.36964500  0.29116500  0.44366100  1
  O  O70  1  0.26913100  0.74020600  0.38092000  1
  O  O71  1  0.26913100  0.75979400  0.11908000  1
