# generated using pymatgen
data_CsGaP3HO10
_symmetry_space_group_name_H-M   'P 1'
_cell_length_a   9.17908400
_cell_length_b   8.82919200
_cell_length_c   6.30166469
_cell_angle_alpha   90.00000000
_cell_angle_beta   111.84296034
_cell_angle_gamma   90.00000000
_symmetry_Int_Tables_number   1
_chemical_formula_structural   CsGaP3HO10
_chemical_formula_sum   'Cs2 Ga2 P6 H2 O20'
_cell_volume   474.04600295
_cell_formula_units_Z   2
loop_
 _symmetry_equiv_pos_site_id
 _symmetry_equiv_pos_as_xyz
  1  'x, y, z'
loop_
 _atom_site_type_symbol
 _atom_site_label
 _atom_site_symmetry_multiplicity
 _atom_site_fract_x
 _atom_site_fract_y
 _atom_site_fract_z
 _atom_site_occupancy
  Cs  Cs0  1  0.00000000  0.94662800  0.50000000  1
  Cs  Cs1  1  0.50000000  0.44662800  0.50000000  1
  Ga  Ga2  1  0.00000000  0.60964300  0.00000000  1
  Ga  Ga3  1  0.50000000  0.10964300  0.00000000  1
  P  P4  1  0.18158700  0.32754900  0.89518400  1
  P  P5  1  0.81841300  0.32754900  0.10481600  1
  P  P6  1  0.00000000  0.51284800  0.50000000  1
  P  P7  1  0.68158700  0.82754900  0.89518400  1
  P  P8  1  0.31841300  0.82754900  0.10481600  1
  P  P9  1  0.50000000  0.01284800  0.50000000  1
  H  H10  1  0.00000000  0.19739000  0.00000000  1
  H  H11  1  0.50000000  0.69739000  0.00000000  1
  O  O12  1  0.06134850  0.19974350  0.86040900  1
  O  O13  1  0.93865150  0.19974350  0.13959100  1
  O  O14  1  0.05257850  0.60593650  0.34015400  1
  O  O15  1  0.94742150  0.60593650  0.65984600  1
  O  O16  1  0.83433800  0.45442600  0.94993000  1
  O  O17  1  0.16566200  0.45442600  0.05007000  1
  O  O18  1  0.14988250  0.77604850  0.03497600  1
  O  O19  1  0.85011750  0.77604850  0.96502400  1
  O  O20  1  0.85796450  0.40268650  0.36098400  1
  O  O21  1  0.14203550  0.40268650  0.63901600  1
  O  O22  1  0.56134850  0.69974350  0.86040900  1
  O  O23  1  0.43865150  0.69974350  0.13959100  1
  O  O24  1  0.55257850  0.10593650  0.34015400  1
  O  O25  1  0.44742150  0.10593650  0.65984600  1
  O  O26  1  0.33433800  0.95442600  0.94993000  1
  O  O27  1  0.66566200  0.95442600  0.05007000  1
  O  O28  1  0.64988250  0.27604850  0.03497600  1
  O  O29  1  0.35011750  0.27604850  0.96502400  1
  O  O30  1  0.35796450  0.90268650  0.36098400  1
  O  O31  1  0.64203550  0.90268650  0.63901600  1
