# generated using pymatgen
data_SbSCl9
_symmetry_space_group_name_H-M   'P 1'
_cell_length_a   11.25415261
_cell_length_b   11.25415261
_cell_length_c   19.05428584
_cell_angle_alpha   90.00000000
_cell_angle_beta   90.00000000
_cell_angle_gamma   120.00000000
_symmetry_Int_Tables_number   1
_chemical_formula_structural   SbSCl9
_chemical_formula_sum   'Sb6 S6 Cl54'
_cell_volume   2090.01261632
_cell_formula_units_Z   6
loop_
 _symmetry_equiv_pos_site_id
 _symmetry_equiv_pos_as_xyz
  1  'x, y, z'
loop_
 _atom_site_type_symbol
 _atom_site_label
 _atom_site_symmetry_multiplicity
 _atom_site_fract_x
 _atom_site_fract_y
 _atom_site_fract_z
 _atom_site_occupancy
  Sb  Sb0  1  0.33333333  0.66666667  0.16666667  1
  Sb  Sb1  1  0.00000000  0.00000000  0.00000000  1
  Sb  Sb2  1  1.00000000  1.00000000  0.50000000  1
  Sb  Sb3  1  0.66666667  0.33333333  0.33333333  1
  Sb  Sb4  1  0.66666667  0.33333333  0.83333333  1
  Sb  Sb5  1  0.33333333  0.66666667  0.66666667  1
  S  S6  1  0.33333333  0.66666667  0.37372567  1
  S  S7  1  0.33333333  0.66666667  0.95960767  1
  S  S8  1  0.00000000  0.00000000  0.70705900  1
  S  S9  1  0.00000000  0.00000000  0.29294100  1
  S  S10  1  0.66666667  0.33333333  0.04039233  1
  S  S11  1  0.66666667  0.33333333  0.62627433  1
  Cl  Cl12  1  0.10134300  0.20268600  0.92733900  1
  Cl  Cl13  1  0.56532367  0.13064733  0.40599433  1
  Cl  Cl14  1  0.56532367  0.43467633  0.40599433  1
  Cl  Cl15  1  0.79731400  0.89865700  0.92733900  1
  Cl  Cl16  1  0.10134300  0.89865700  0.92733900  1
  Cl  Cl17  1  0.86935267  0.43467633  0.40599433  1
  Cl  Cl18  1  0.13093667  0.56546833  0.24011733  1
  Cl  Cl19  1  0.23213500  0.76786500  0.09321600  1
  Cl  Cl20  1  0.53573000  0.76786500  0.09321600  1
  Cl  Cl21  1  0.43453167  0.56546833  0.24011733  1
  Cl  Cl22  1  0.23213500  0.46427000  0.09321600  1
  Cl  Cl23  1  0.43453167  0.86906333  0.24011733  1
  Cl  Cl24  1  0.14778600  0.57389300  0.91483600  1
  Cl  Cl25  1  0.24055967  0.75944033  0.41849733  1
  Cl  Cl26  1  0.51888067  0.75944033  0.41849733  1
  Cl  Cl27  1  0.42610700  0.57389300  0.91483600  1
  Cl  Cl28  1  0.42610700  0.85221400  0.91483600  1
  Cl  Cl29  1  0.24055967  0.48111933  0.41849733  1
  Cl  Cl30  1  0.76800967  0.53601933  0.26067233  1
  Cl  Cl31  1  0.23199033  0.46398067  0.73932767  1
  Cl  Cl32  1  0.23199033  0.76800967  0.73932767  1
  Cl  Cl33  1  0.46398067  0.23199033  0.26067233  1
  Cl  Cl34  1  0.76800967  0.23199033  0.26067233  1
  Cl  Cl35  1  0.53601933  0.76800967  0.73932767  1
  Cl  Cl36  1  0.79760333  0.89880167  0.57345067  1
  Cl  Cl37  1  0.89880167  0.10119833  0.42654933  1
  Cl  Cl38  1  0.20239667  0.10119833  0.42654933  1
  Cl  Cl39  1  0.10119833  0.89880167  0.57345067  1
  Cl  Cl40  1  0.89880167  0.79760333  0.42654933  1
  Cl  Cl41  1  0.10119833  0.20239667  0.57345067  1
  Cl  Cl42  1  0.81445267  0.90722633  0.24816933  1
  Cl  Cl43  1  0.90722633  0.09277367  0.75183067  1
  Cl  Cl44  1  0.18554733  0.09277367  0.75183067  1
  Cl  Cl45  1  0.09277367  0.90722633  0.24816933  1
  Cl  Cl46  1  0.09277367  0.18554733  0.24816933  1
  Cl  Cl47  1  0.90722633  0.81445267  0.75183067  1
  Cl  Cl48  1  0.43467633  0.86935267  0.59400567  1
  Cl  Cl49  1  0.89865700  0.79731400  0.07266100  1
  Cl  Cl50  1  0.89865700  0.10134300  0.07266100  1
  Cl  Cl51  1  0.13064733  0.56532367  0.59400567  1
  Cl  Cl52  1  0.43467633  0.56532367  0.59400567  1
  Cl  Cl53  1  0.20268600  0.10134300  0.07266100  1
  Cl  Cl54  1  0.46427000  0.23213500  0.90678400  1
  Cl  Cl55  1  0.56546833  0.43453167  0.75988267  1
  Cl  Cl56  1  0.86906333  0.43453167  0.75988267  1
  Cl  Cl57  1  0.76786500  0.23213500  0.90678400  1
  Cl  Cl58  1  0.56546833  0.13093667  0.75988267  1
  Cl  Cl59  1  0.76786500  0.53573000  0.90678400  1
  Cl  Cl60  1  0.48111933  0.24055967  0.58150267  1
  Cl  Cl61  1  0.57389300  0.42610700  0.08516400  1
  Cl  Cl62  1  0.85221400  0.42610700  0.08516400  1
  Cl  Cl63  1  0.75944033  0.24055967  0.58150267  1
  Cl  Cl64  1  0.75944033  0.51888067  0.58150267  1
  Cl  Cl65  1  0.57389300  0.14778600  0.08516400  1
