# generated using pymatgen
data_LiH6NO6
_symmetry_space_group_name_H-M   'P 1'
_cell_length_a   6.93911400
_cell_length_b   12.68564000
_cell_length_c   6.06861000
_cell_angle_alpha   90.00000000
_cell_angle_beta   90.00000000
_cell_angle_gamma   90.00000000
_symmetry_Int_Tables_number   1
_chemical_formula_structural   LiH6NO6
_chemical_formula_sum   'Li4 H24 N4 O24'
_cell_volume   534.20215221
_cell_formula_units_Z   4
loop_
 _symmetry_equiv_pos_site_id
 _symmetry_equiv_pos_as_xyz
  1  'x, y, z'
loop_
 _atom_site_type_symbol
 _atom_site_label
 _atom_site_symmetry_multiplicity
 _atom_site_fract_x
 _atom_site_fract_y
 _atom_site_fract_z
 _atom_site_occupancy
  Li  Li0  1  0.00000000  0.00000000  0.00000000  1
  Li  Li1  1  0.00000000  0.00000000  0.50000000  1
  Li  Li2  1  0.50000000  0.50000000  0.00000000  1
  Li  Li3  1  0.50000000  0.50000000  0.50000000  1
  H  H4  1  0.50000000  0.18067600  0.12057600  1
  H  H5  1  0.78538450  0.41555950  0.25000000  1
  H  H6  1  0.00000000  0.31932400  0.62057600  1
  H  H7  1  0.00000000  0.31932400  0.87942400  1
  H  H8  1  0.50000000  0.18067600  0.37942400  1
  H  H9  1  0.30505050  0.03810550  0.25000000  1
  H  H10  1  0.71461550  0.08444050  0.75000000  1
  H  H11  1  0.19494950  0.46189450  0.75000000  1
  H  H12  1  0.69494950  0.03810550  0.25000000  1
  H  H13  1  0.21461550  0.41555950  0.25000000  1
  H  H14  1  0.28538450  0.08444050  0.75000000  1
  H  H15  1  0.80505050  0.46189450  0.75000000  1
  H  H16  1  0.00000000  0.68067600  0.12057600  1
  H  H17  1  0.28538450  0.91555950  0.25000000  1
  H  H18  1  0.50000000  0.81932400  0.62057600  1
  H  H19  1  0.50000000  0.81932400  0.87942400  1
  H  H20  1  0.00000000  0.68067600  0.37942400  1
  H  H21  1  0.80505050  0.53810550  0.25000000  1
  H  H22  1  0.21461550  0.58444050  0.75000000  1
  H  H23  1  0.69494950  0.96189450  0.75000000  1
  H  H24  1  0.19494950  0.53810550  0.25000000  1
  H  H25  1  0.71461550  0.91555950  0.25000000  1
  H  H26  1  0.78538450  0.58444050  0.75000000  1
  H  H27  1  0.30505050  0.96189450  0.75000000  1
  N  N28  1  0.00000000  0.22008100  0.25000000  1
  N  N29  1  0.50000000  0.27991900  0.75000000  1
  N  N30  1  0.50000000  0.72008100  0.25000000  1
  N  N31  1  0.00000000  0.77991900  0.75000000  1
  O  O32  1  0.00000000  0.17224700  0.06786200  1
  O  O33  1  0.79142000  0.01951800  0.75000000  1
  O  O34  1  0.70858000  0.48048200  0.25000000  1
  O  O35  1  0.50000000  0.17860300  0.75000000  1
  O  O36  1  0.00000000  0.32139700  0.25000000  1
  O  O37  1  0.20858000  0.01951800  0.75000000  1
  O  O38  1  0.50000000  0.32775300  0.56786200  1
  O  O39  1  0.50000000  0.32775300  0.93213800  1
  O  O40  1  0.00000000  0.17224700  0.43213800  1
  O  O41  1  0.29142000  0.48048200  0.25000000  1
  O  O42  1  0.00000000  0.36598800  0.75000000  1
  O  O43  1  0.50000000  0.13401200  0.25000000  1
  O  O44  1  0.50000000  0.67224700  0.06786200  1
  O  O45  1  0.29142000  0.51951800  0.75000000  1
  O  O46  1  0.20858000  0.98048200  0.25000000  1
  O  O47  1  0.00000000  0.67860300  0.75000000  1
  O  O48  1  0.50000000  0.82139700  0.25000000  1
  O  O49  1  0.70858000  0.51951800  0.75000000  1
  O  O50  1  0.00000000  0.82775300  0.56786200  1
  O  O51  1  0.00000000  0.82775300  0.93213800  1
  O  O52  1  0.50000000  0.67224700  0.43213800  1
  O  O53  1  0.79142000  0.98048200  0.25000000  1
  O  O54  1  0.50000000  0.86598800  0.75000000  1
  O  O55  1  0.00000000  0.63401200  0.25000000  1
