# generated using pymatgen
data_PtI3
_symmetry_space_group_name_H-M   'P 1'
_cell_length_a   7.09422800
_cell_length_b   12.34044600
_cell_length_c   13.56368204
_cell_angle_alpha   90.00000000
_cell_angle_beta   101.35999894
_cell_angle_gamma   90.00000000
_symmetry_Int_Tables_number   1
_chemical_formula_structural   PtI3
_chemical_formula_sum   'Pt8 I24'
_cell_volume   1164.18193792
_cell_formula_units_Z   8
loop_
 _symmetry_equiv_pos_site_id
 _symmetry_equiv_pos_as_xyz
  1  'x, y, z'
loop_
 _atom_site_type_symbol
 _atom_site_label
 _atom_site_symmetry_multiplicity
 _atom_site_fract_x
 _atom_site_fract_y
 _atom_site_fract_z
 _atom_site_occupancy
  Pt  Pt0  1  0.50000000  0.59671600  0.75000000  1
  Pt  Pt1  1  0.00000000  0.90328400  0.25000000  1
  Pt  Pt2  1  0.25000000  0.75000000  0.50000000  1
  Pt  Pt3  1  0.75000000  0.75000000  0.00000000  1
  Pt  Pt4  1  0.00000000  0.09671600  0.75000000  1
  Pt  Pt5  1  0.50000000  0.40328400  0.25000000  1
  Pt  Pt6  1  0.75000000  0.25000000  0.50000000  1
  Pt  Pt7  1  0.25000000  0.25000000  0.00000000  1
  I  I8  1  0.13068550  0.93922950  0.64131500  1
  I  I9  1  0.86931450  0.93922950  0.85868500  1
  I  I10  1  0.36931450  0.56077050  0.35868500  1
  I  I11  1  0.63068550  0.56077050  0.14131500  1
  I  I12  1  0.90724150  0.74623950  0.37981200  1
  I  I13  1  0.09275850  0.74623950  0.12018800  1
  I  I14  1  0.59275850  0.75376050  0.62018800  1
  I  I15  1  0.40724150  0.75376050  0.87981200  1
  I  I16  1  0.65800050  0.89765050  0.12368800  1
  I  I17  1  0.34199950  0.89765050  0.37631200  1
  I  I18  1  0.84199950  0.60234950  0.87631200  1
  I  I19  1  0.15800050  0.60234950  0.62368800  1
  I  I20  1  0.63068550  0.43922950  0.64131500  1
  I  I21  1  0.36931450  0.43922950  0.85868500  1
  I  I22  1  0.86931450  0.06077050  0.35868500  1
  I  I23  1  0.13068550  0.06077050  0.14131500  1
  I  I24  1  0.40724150  0.24623950  0.37981200  1
  I  I25  1  0.59275850  0.24623950  0.12018800  1
  I  I26  1  0.09275850  0.25376050  0.62018800  1
  I  I27  1  0.90724150  0.25376050  0.87981200  1
  I  I28  1  0.15800050  0.39765050  0.12368800  1
  I  I29  1  0.84199950  0.39765050  0.37631200  1
  I  I30  1  0.34199950  0.10234950  0.87631200  1
  I  I31  1  0.65800050  0.10234950  0.62368800  1
