# generated using pymatgen
data_B6P
_symmetry_space_group_name_H-M   'P 1'
_cell_length_a   5.99305428
_cell_length_b   5.99305428
_cell_length_c   11.85785661
_cell_angle_alpha   90.00000000
_cell_angle_beta   90.00000000
_cell_angle_gamma   120.00000000
_symmetry_Int_Tables_number   1
_chemical_formula_structural   B6P
_chemical_formula_sum   'B36 P6'
_cell_volume   368.83595277
_cell_formula_units_Z   6
loop_
 _symmetry_equiv_pos_site_id
 _symmetry_equiv_pos_as_xyz
  1  'x, y, z'
loop_
 _atom_site_type_symbol
 _atom_site_label
 _atom_site_symmetry_multiplicity
 _atom_site_fract_x
 _atom_site_fract_y
 _atom_site_fract_z
 _atom_site_occupancy
  B  B0  1  0.68914467  0.84457233  0.02843733  1
  B  B1  1  0.15542767  0.31085533  0.02843733  1
  B  B2  1  0.15542767  0.84457233  0.02843733  1
  B  B3  1  0.51123900  0.48876100  0.30489600  1
  B  B4  1  0.97752200  0.48876100  0.30489600  1
  B  B5  1  0.51123900  0.02247800  0.30489600  1
  B  B6  1  0.54241933  0.77120967  0.78401867  1
  B  B7  1  0.22879033  0.45758067  0.78401867  1
  B  B8  1  0.22879033  0.77120967  0.78401867  1
  B  B9  1  0.43787633  0.56212367  0.54931467  1
  B  B10  1  0.12424733  0.56212367  0.54931467  1
  B  B11  1  0.43787633  0.87575267  0.54931467  1
  B  B12  1  0.35581133  0.17790567  0.36177067  1
  B  B13  1  0.82209433  0.64418867  0.36177067  1
  B  B14  1  0.82209433  0.17790567  0.36177067  1
  B  B15  1  0.17790567  0.82209433  0.63822933  1
  B  B16  1  0.64418867  0.82209433  0.63822933  1
  B  B17  1  0.17790567  0.35581133  0.63822933  1
  B  B18  1  0.20908600  0.10454300  0.11735200  1
  B  B19  1  0.89545700  0.79091400  0.11735200  1
  B  B20  1  0.89545700  0.10454300  0.11735200  1
  B  B21  1  0.10454300  0.89545700  0.88264800  1
  B  B22  1  0.79091400  0.89545700  0.88264800  1
  B  B23  1  0.10454300  0.20908600  0.88264800  1
  B  B24  1  0.02247800  0.51123900  0.69510400  1
  B  B25  1  0.48876100  0.97752200  0.69510400  1
  B  B26  1  0.48876100  0.51123900  0.69510400  1
  B  B27  1  0.84457233  0.15542767  0.97156267  1
  B  B28  1  0.31085533  0.15542767  0.97156267  1
  B  B29  1  0.84457233  0.68914467  0.97156267  1
  B  B30  1  0.87575267  0.43787633  0.45068533  1
  B  B31  1  0.56212367  0.12424733  0.45068533  1
  B  B32  1  0.56212367  0.43787633  0.45068533  1
  B  B33  1  0.77120967  0.22879033  0.21598133  1
  B  B34  1  0.45758067  0.22879033  0.21598133  1
  B  B35  1  0.77120967  0.54241933  0.21598133  1
  P  P36  1  0.33333333  0.66666667  0.07180567  1
  P  P37  1  0.33333333  0.66666667  0.26152767  1
  P  P38  1  0.00000000  0.00000000  0.40513900  1
  P  P39  1  0.00000000  0.00000000  0.59486100  1
  P  P40  1  0.66666667  0.33333333  0.73847233  1
  P  P41  1  0.66666667  0.33333333  0.92819433  1
