# generated using pymatgen
data_LiInTe2
_symmetry_space_group_name_H-M   'P 1'
_cell_length_a   6.54122600
_cell_length_b   6.54122600
_cell_length_c   12.75795800
_cell_angle_alpha   90.00000000
_cell_angle_beta   90.00000000
_cell_angle_gamma   90.00000000
_symmetry_Int_Tables_number   1
_chemical_formula_structural   LiInTe2
_chemical_formula_sum   'Li4 In4 Te8'
_cell_volume   545.88288320
_cell_formula_units_Z   4
loop_
 _symmetry_equiv_pos_site_id
 _symmetry_equiv_pos_as_xyz
  1  'x, y, z'
loop_
 _atom_site_type_symbol
 _atom_site_label
 _atom_site_symmetry_multiplicity
 _atom_site_fract_x
 _atom_site_fract_y
 _atom_site_fract_z
 _atom_site_occupancy
  Li  Li0  1  0.50000000  0.00000000  0.25000000  1
  Li  Li1  1  0.50000000  0.50000000  0.00000000  1
  Li  Li2  1  0.00000000  0.50000000  0.75000000  1
  Li  Li3  1  0.00000000  0.00000000  0.50000000  1
  In  In4  1  0.00000000  0.50000000  0.25000000  1
  In  In5  1  0.00000000  0.00000000  0.00000000  1
  In  In6  1  0.50000000  0.00000000  0.75000000  1
  In  In7  1  0.50000000  0.50000000  0.50000000  1
  Te  Te8  1  0.74239100  0.75000000  0.12500000  1
  Te  Te9  1  0.25000000  0.75760900  0.37500000  1
  Te  Te10  1  0.75000000  0.24239100  0.37500000  1
  Te  Te11  1  0.25760900  0.25000000  0.12500000  1
  Te  Te12  1  0.24239100  0.25000000  0.62500000  1
  Te  Te13  1  0.75000000  0.25760900  0.87500000  1
  Te  Te14  1  0.25000000  0.74239100  0.87500000  1
  Te  Te15  1  0.75760900  0.75000000  0.62500000  1
