# generated using pymatgen
data_Na2InCuF7
_symmetry_space_group_name_H-M   'P 1'
_cell_length_a   7.36060200
_cell_length_b   7.83559500
_cell_length_c   10.72965700
_cell_angle_alpha   90.00000000
_cell_angle_beta   90.00000000
_cell_angle_gamma   90.00000000
_symmetry_Int_Tables_number   1
_chemical_formula_structural   Na2InCuF7
_chemical_formula_sum   'Na8 In4 Cu4 F28'
_cell_volume   618.82970811
_cell_formula_units_Z   4
loop_
 _symmetry_equiv_pos_site_id
 _symmetry_equiv_pos_as_xyz
  1  'x, y, z'
loop_
 _atom_site_type_symbol
 _atom_site_label
 _atom_site_symmetry_multiplicity
 _atom_site_fract_x
 _atom_site_fract_y
 _atom_site_fract_z
 _atom_site_occupancy
  Na  Na0  1  0.25000000  0.21752800  0.76224400  1
  Na  Na1  1  0.25000000  0.28247200  0.26224400  1
  Na  Na2  1  0.75000000  0.78247200  0.23775600  1
  Na  Na3  1  0.50000000  0.00000000  0.50000000  1
  Na  Na4  1  0.75000000  0.71752800  0.73775600  1
  Na  Na5  1  0.00000000  0.00000000  0.50000000  1
  Na  Na6  1  0.00000000  0.50000000  0.00000000  1
  Na  Na7  1  0.50000000  0.50000000  0.00000000  1
  In  In8  1  0.25000000  0.72547900  0.76732800  1
  In  In9  1  0.75000000  0.27452100  0.23267200  1
  In  In10  1  0.25000000  0.77452100  0.26732800  1
  In  In11  1  0.75000000  0.22547900  0.73267200  1
  Cu  Cu12  1  0.00000000  0.00000000  0.00000000  1
  Cu  Cu13  1  0.50000000  0.00000000  0.00000000  1
  Cu  Cu14  1  0.00000000  0.50000000  0.50000000  1
  Cu  Cu15  1  0.50000000  0.50000000  0.50000000  1
  F  F16  1  0.01859900  0.73457000  0.37783100  1
  F  F17  1  0.25000000  0.54438400  0.16693300  1
  F  F18  1  0.25000000  0.95561600  0.66693300  1
  F  F19  1  0.51859900  0.23457000  0.12216900  1
  F  F20  1  0.75000000  0.96018400  0.03309400  1
  F  F21  1  0.48140100  0.73457000  0.37783100  1
  F  F22  1  0.04553100  0.84972200  0.14019300  1
  F  F23  1  0.25000000  0.46018400  0.46690600  1
  F  F24  1  0.75000000  0.45561600  0.83306700  1
  F  F25  1  0.25000000  0.48295600  0.85847900  1
  F  F26  1  0.01859900  0.76543000  0.87783100  1
  F  F27  1  0.75000000  0.04438400  0.33306700  1
  F  F28  1  0.75000000  0.53981600  0.53309400  1
  F  F29  1  0.75000000  0.98295600  0.64152100  1
  F  F30  1  0.98140100  0.26543000  0.62216900  1
  F  F31  1  0.54553100  0.34972200  0.35980700  1
  F  F32  1  0.48140100  0.76543000  0.87783100  1
  F  F33  1  0.51859900  0.26543000  0.62216900  1
  F  F34  1  0.75000000  0.51704400  0.14152100  1
  F  F35  1  0.25000000  0.03981600  0.96690600  1
  F  F36  1  0.04553100  0.65027800  0.64019300  1
  F  F37  1  0.54553100  0.15027800  0.85980700  1
  F  F38  1  0.95446900  0.15027800  0.85980700  1
  F  F39  1  0.95446900  0.34972200  0.35980700  1
  F  F40  1  0.25000000  0.01704400  0.35847900  1
  F  F41  1  0.98140100  0.23457000  0.12216900  1
  F  F42  1  0.45446900  0.84972200  0.14019300  1
  F  F43  1  0.45446900  0.65027800  0.64019300  1
