# generated using pymatgen
data_Th2Ta2O9
_symmetry_space_group_name_H-M   'P 1'
_cell_length_a   11.68463000
_cell_length_b   15.69456400
_cell_length_c   7.47353100
_cell_angle_alpha   90.00000000
_cell_angle_beta   90.00000000
_cell_angle_gamma   90.00000000
_symmetry_Int_Tables_number   1
_chemical_formula_structural   Th2Ta2O9
_chemical_formula_sum   'Th16 Ta16 O72'
_cell_volume   1370.53477798
_cell_formula_units_Z   8
loop_
 _symmetry_equiv_pos_site_id
 _symmetry_equiv_pos_as_xyz
  1  'x, y, z'
loop_
 _atom_site_type_symbol
 _atom_site_label
 _atom_site_symmetry_multiplicity
 _atom_site_fract_x
 _atom_site_fract_y
 _atom_site_fract_z
 _atom_site_occupancy
  Th  Th0  1  0.50000000  0.70667400  0.75000000  1
  Th  Th1  1  0.50000000  0.29332600  0.25000000  1
  Th  Th2  1  0.50000000  0.26142200  0.75000000  1
  Th  Th3  1  0.50000000  0.73857800  0.25000000  1
  Th  Th4  1  0.26216800  0.12771500  0.48738200  1
  Th  Th5  1  0.73783200  0.87228500  0.98738200  1
  Th  Th6  1  0.26216800  0.87228500  0.51261800  1
  Th  Th7  1  0.73783200  0.12771500  0.01261800  1
  Th  Th8  1  0.00000000  0.20667400  0.75000000  1
  Th  Th9  1  0.00000000  0.79332600  0.25000000  1
  Th  Th10  1  0.00000000  0.76142200  0.75000000  1
  Th  Th11  1  0.00000000  0.23857800  0.25000000  1
  Th  Th12  1  0.76216800  0.62771500  0.48738200  1
  Th  Th13  1  0.23783200  0.37228500  0.98738200  1
  Th  Th14  1  0.76216800  0.37228500  0.51261800  1
  Th  Th15  1  0.23783200  0.62771500  0.01261800  1
  Ta  Ta16  1  0.99130500  0.00000000  0.50000000  1
  Ta  Ta17  1  0.00869500  0.00000000  0.00000000  1
  Ta  Ta18  1  0.50000000  0.00539700  0.75000000  1
  Ta  Ta19  1  0.50000000  0.99460300  0.25000000  1
  Ta  Ta20  1  0.72746350  0.12711850  0.50143300  1
  Ta  Ta21  1  0.27253650  0.87288150  0.00143300  1
  Ta  Ta22  1  0.72746350  0.87288150  0.49856700  1
  Ta  Ta23  1  0.27253650  0.12711850  0.99856700  1
  Ta  Ta24  1  0.49130500  0.50000000  0.50000000  1
  Ta  Ta25  1  0.50869500  0.50000000  0.00000000  1
  Ta  Ta26  1  0.00000000  0.50539700  0.75000000  1
  Ta  Ta27  1  0.00000000  0.49460300  0.25000000  1
  Ta  Ta28  1  0.22746350  0.62711850  0.50143300  1
  Ta  Ta29  1  0.77253650  0.37288150  0.00143300  1
  Ta  Ta30  1  0.22746350  0.37288150  0.49856700  1
  Ta  Ta31  1  0.77253650  0.62711850  0.99856700  1
  O  O32  1  0.17618800  0.00000000  0.50000000  1
  O  O33  1  0.82381200  0.00000000  0.00000000  1
  O  O34  1  0.81779700  0.00000000  0.50000000  1
  O  O35  1  0.18220300  0.00000000  0.00000000  1
  O  O36  1  0.43107200  0.00000000  0.50000000  1
  O  O37  1  0.56892800  0.00000000  0.00000000  1
  O  O38  1  0.50000000  0.52694000  0.75000000  1
  O  O39  1  0.50000000  0.47306000  0.25000000  1
  O  O40  1  0.39164000  0.09923100  0.80143100  1
  O  O41  1  0.60836000  0.90076900  0.30143100  1
  O  O42  1  0.39164000  0.90076900  0.19856900  1
  O  O43  1  0.60836000  0.09923100  0.69856900  1
  O  O44  1  0.58145000  0.21031700  0.02013300  1
  O  O45  1  0.41855000  0.78968300  0.52013300  1
  O  O46  1  0.58145000  0.78968300  0.97986700  1
  O  O47  1  0.41855000  0.21031700  0.47986700  1
  O  O48  1  0.47684000  0.37568700  0.96893700  1
  O  O49  1  0.52316000  0.62431300  0.46893700  1
  O  O50  1  0.47684000  0.62431300  0.03106300  1
  O  O51  1  0.52316000  0.37568700  0.53106300  1
  O  O52  1  0.81808450  0.14840750  0.71703600  1
  O  O53  1  0.18191550  0.85159250  0.21703600  1
  O  O54  1  0.81808450  0.85159250  0.28296400  1
  O  O55  1  0.18191550  0.14840750  0.78296400  1
  O  O56  1  0.81777550  0.16027850  0.29651800  1
  O  O57  1  0.18222450  0.83972150  0.79651800  1
  O  O58  1  0.81777550  0.83972150  0.70348200  1
  O  O59  1  0.18222450  0.16027850  0.20348200  1
  O  O60  1  0.34508350  0.76194850  0.99979800  1
  O  O61  1  0.65491650  0.23805150  0.49979800  1
  O  O62  1  0.34508350  0.23805150  0.00020200  1
  O  O63  1  0.65491650  0.76194850  0.50020200  1
  O  O64  1  0.62033650  0.07679050  0.32099600  1
  O  O65  1  0.37966350  0.92320950  0.82099600  1
  O  O66  1  0.62033650  0.92320950  0.67900400  1
  O  O67  1  0.37966350  0.07679050  0.17900400  1
  O  O68  1  0.67618800  0.50000000  0.50000000  1
  O  O69  1  0.32381200  0.50000000  0.00000000  1
  O  O70  1  0.31779700  0.50000000  0.50000000  1
  O  O71  1  0.68220300  0.50000000  0.00000000  1
  O  O72  1  0.93107200  0.50000000  0.50000000  1
  O  O73  1  0.06892800  0.50000000  0.00000000  1
  O  O74  1  0.00000000  0.02694000  0.75000000  1
  O  O75  1  0.00000000  0.97306000  0.25000000  1
  O  O76  1  0.89164000  0.59923100  0.80143100  1
  O  O77  1  0.10836000  0.40076900  0.30143100  1
  O  O78  1  0.89164000  0.40076900  0.19856900  1
  O  O79  1  0.10836000  0.59923100  0.69856900  1
  O  O80  1  0.08145000  0.71031700  0.02013300  1
  O  O81  1  0.91855000  0.28968300  0.52013300  1
  O  O82  1  0.08145000  0.28968300  0.97986700  1
  O  O83  1  0.91855000  0.71031700  0.47986700  1
  O  O84  1  0.97684000  0.87568700  0.96893700  1
  O  O85  1  0.02316000  0.12431300  0.46893700  1
  O  O86  1  0.97684000  0.12431300  0.03106300  1
  O  O87  1  0.02316000  0.87568700  0.53106300  1
  O  O88  1  0.31808450  0.64840750  0.71703600  1
  O  O89  1  0.68191550  0.35159250  0.21703600  1
  O  O90  1  0.31808450  0.35159250  0.28296400  1
  O  O91  1  0.68191550  0.64840750  0.78296400  1
  O  O92  1  0.31777550  0.66027850  0.29651800  1
  O  O93  1  0.68222450  0.33972150  0.79651800  1
  O  O94  1  0.31777550  0.33972150  0.70348200  1
  O  O95  1  0.68222450  0.66027850  0.20348200  1
  O  O96  1  0.84508350  0.26194850  0.99979800  1
  O  O97  1  0.15491650  0.73805150  0.49979800  1
  O  O98  1  0.84508350  0.73805150  0.00020200  1
  O  O99  1  0.15491650  0.26194850  0.50020200  1
  O  O100  1  0.12033650  0.57679050  0.32099600  1
  O  O101  1  0.87966350  0.42320950  0.82099600  1
  O  O102  1  0.12033650  0.42320950  0.67900400  1
  O  O103  1  0.87966350  0.57679050  0.17900400  1
