# generated using pymatgen
data_Na4HgP2
_symmetry_space_group_name_H-M   'P 1'
_cell_length_a   5.02211406
_cell_length_b   5.02211406
_cell_length_c   25.81217039
_cell_angle_alpha   90.00000000
_cell_angle_beta   90.00000000
_cell_angle_gamma   120.00000000
_symmetry_Int_Tables_number   1
_chemical_formula_structural   Na4HgP2
_chemical_formula_sum   'Na12 Hg3 P6'
_cell_volume   563.80418960
_cell_formula_units_Z   3
loop_
 _symmetry_equiv_pos_site_id
 _symmetry_equiv_pos_as_xyz
  1  'x, y, z'
loop_
 _atom_site_type_symbol
 _atom_site_label
 _atom_site_symmetry_multiplicity
 _atom_site_fract_x
 _atom_site_fract_y
 _atom_site_fract_z
 _atom_site_occupancy
  Na  Na0  1  0.00000000  0.00000000  0.20719600  1
  Na  Na1  1  0.33333333  0.66666667  0.06946767  1
  Na  Na2  1  0.66666667  0.33333333  0.12613733  1
  Na  Na3  1  0.33333333  0.66666667  0.26386567  1
  Na  Na4  1  0.66666667  0.33333333  0.54052933  1
  Na  Na5  1  0.00000000  0.00000000  0.40280100  1
  Na  Na6  1  0.33333333  0.66666667  0.45947067  1
  Na  Na7  1  0.00000000  0.00000000  0.59719900  1
  Na  Na8  1  0.33333333  0.66666667  0.87386267  1
  Na  Na9  1  0.66666667  0.33333333  0.73613433  1
  Na  Na10  1  0.00000000  0.00000000  0.79280400  1
  Na  Na11  1  0.66666667  0.33333333  0.93053233  1
  Hg  Hg12  1  0.00000000  0.00000000  0.00000000  1
  Hg  Hg13  1  0.66666667  0.33333333  0.33333333  1
  Hg  Hg14  1  0.33333333  0.66666667  0.66666667  1
  P  P15  1  0.66666667  0.33333333  0.23963433  1
  P  P16  1  0.00000000  0.00000000  0.09369900  1
  P  P17  1  0.33333333  0.66666667  0.57296767  1
  P  P18  1  0.66666667  0.33333333  0.42703233  1
  P  P19  1  0.00000000  0.00000000  0.90630100  1
  P  P20  1  0.33333333  0.66666667  0.76036567  1
