# generated using pymatgen
data_ReCl3
_symmetry_space_group_name_H-M   'P 1'
_cell_length_a   10.45659607
_cell_length_b   10.45659607
_cell_length_c   21.59034765
_cell_angle_alpha   90.00000000
_cell_angle_beta   90.00000000
_cell_angle_gamma   120.00000000
_symmetry_Int_Tables_number   1
_chemical_formula_structural   ReCl3
_chemical_formula_sum   'Re18 Cl54'
_cell_volume   2044.42381303
_cell_formula_units_Z   18
loop_
 _symmetry_equiv_pos_site_id
 _symmetry_equiv_pos_as_xyz
  1  'x, y, z'
loop_
 _atom_site_type_symbol
 _atom_site_label
 _atom_site_symmetry_multiplicity
 _atom_site_fract_x
 _atom_site_fract_y
 _atom_site_fract_z
 _atom_site_occupancy
  Re  Re0  1  0.41146800  0.82293600  0.94387500  1
  Re  Re1  1  0.17706400  0.58853200  0.94387500  1
  Re  Re2  1  0.41146800  0.58853200  0.94387500  1
  Re  Re3  1  0.25519867  0.74480133  0.38945833  1
  Re  Re4  1  0.25519867  0.51039733  0.38945833  1
  Re  Re5  1  0.48960267  0.74480133  0.38945833  1
  Re  Re6  1  0.07813467  0.15626933  0.27720833  1
  Re  Re7  1  0.84373067  0.92186533  0.27720833  1
  Re  Re8  1  0.07813467  0.92186533  0.27720833  1
  Re  Re9  1  0.92186533  0.07813467  0.72279167  1
  Re  Re10  1  0.92186533  0.84373067  0.72279167  1
  Re  Re11  1  0.15626933  0.07813467  0.72279167  1
  Re  Re12  1  0.74480133  0.48960267  0.61054167  1
  Re  Re13  1  0.51039733  0.25519867  0.61054167  1
  Re  Re14  1  0.74480133  0.25519867  0.61054167  1
  Re  Re15  1  0.58853200  0.41146800  0.05612500  1
  Re  Re16  1  0.58853200  0.17706400  0.05612500  1
  Re  Re17  1  0.82293600  0.41146800  0.05612500  1
  Cl  Cl18  1  0.17910567  0.35821133  0.94492933  1
  Cl  Cl19  1  0.64178867  0.82089433  0.94492933  1
  Cl  Cl20  1  0.17910567  0.82089433  0.94492933  1
  Cl  Cl21  1  0.48756100  0.51243900  0.38840400  1
  Cl  Cl22  1  0.48756100  0.97512200  0.38840400  1
  Cl  Cl23  1  0.02487800  0.51243900  0.38840400  1
  Cl  Cl24  1  0.54712000  0.77356000  0.28118900  1
  Cl  Cl25  1  0.22644000  0.45288000  0.28118900  1
  Cl  Cl26  1  0.22644000  0.77356000  0.28118900  1
  Cl  Cl27  1  0.44022667  0.55977333  0.05214433  1
  Cl  Cl28  1  0.11954667  0.55977333  0.05214433  1
  Cl  Cl29  1  0.44022667  0.88045333  0.05214433  1
  Cl  Cl30  1  0.87327467  0.43663733  0.15877633  1
  Cl  Cl31  1  0.56336267  0.12672533  0.15877633  1
  Cl  Cl32  1  0.56336267  0.43663733  0.15877633  1
  Cl  Cl33  1  0.10330400  0.89669600  0.17455700  1
  Cl  Cl34  1  0.79339200  0.89669600  0.17455700  1
  Cl  Cl35  1  0.10330400  0.20660800  0.17455700  1
  Cl  Cl36  1  0.84577233  0.69154467  0.27826267  1
  Cl  Cl37  1  0.30845533  0.15422767  0.27826267  1
  Cl  Cl38  1  0.84577233  0.15422767  0.27826267  1
  Cl  Cl39  1  0.15422767  0.84577233  0.72173733  1
  Cl  Cl40  1  0.15422767  0.30845533  0.72173733  1
  Cl  Cl41  1  0.69154467  0.84577233  0.72173733  1
  Cl  Cl42  1  0.21378667  0.10689333  0.61452233  1
  Cl  Cl43  1  0.89310667  0.78621333  0.61452233  1
  Cl  Cl44  1  0.89310667  0.10689333  0.61452233  1
  Cl  Cl45  1  0.10689333  0.89310667  0.38547767  1
  Cl  Cl46  1  0.78621333  0.89310667  0.38547767  1
  Cl  Cl47  1  0.10689333  0.21378667  0.38547767  1
  Cl  Cl48  1  0.53994133  0.76997067  0.49210967  1
  Cl  Cl49  1  0.23002933  0.46005867  0.49210967  1
  Cl  Cl50  1  0.23002933  0.76997067  0.49210967  1
  Cl  Cl51  1  0.76997067  0.23002933  0.50789033  1
  Cl  Cl52  1  0.46005867  0.23002933  0.50789033  1
  Cl  Cl53  1  0.76997067  0.53994133  0.50789033  1
  Cl  Cl54  1  0.51243900  0.02487800  0.61159600  1
  Cl  Cl55  1  0.97512200  0.48756100  0.61159600  1
  Cl  Cl56  1  0.51243900  0.48756100  0.61159600  1
  Cl  Cl57  1  0.82089433  0.17910567  0.05507067  1
  Cl  Cl58  1  0.82089433  0.64178867  0.05507067  1
  Cl  Cl59  1  0.35821133  0.17910567  0.05507067  1
  Cl  Cl60  1  0.88045333  0.44022667  0.94785567  1
  Cl  Cl61  1  0.55977333  0.11954667  0.94785567  1
  Cl  Cl62  1  0.55977333  0.44022667  0.94785567  1
  Cl  Cl63  1  0.77356000  0.22644000  0.71881100  1
  Cl  Cl64  1  0.45288000  0.22644000  0.71881100  1
  Cl  Cl65  1  0.77356000  0.54712000  0.71881100  1
  Cl  Cl66  1  0.20660800  0.10330400  0.82544300  1
  Cl  Cl67  1  0.89669600  0.79339200  0.82544300  1
  Cl  Cl68  1  0.89669600  0.10330400  0.82544300  1
  Cl  Cl69  1  0.43663733  0.56336267  0.84122367  1
  Cl  Cl70  1  0.12672533  0.56336267  0.84122367  1
  Cl  Cl71  1  0.43663733  0.87327467  0.84122367  1
