# generated using pymatgen
data_CaPH5O6
_symmetry_space_group_name_H-M   'P 1'
_cell_length_a   6.43768400
_cell_length_b   15.13877600
_cell_length_c   5.89979607
_cell_angle_alpha   90.00000000
_cell_angle_beta   119.39073678
_cell_angle_gamma   90.00000000
_symmetry_Int_Tables_number   1
_chemical_formula_structural   CaPH5O6
_chemical_formula_sum   'Ca4 P4 H20 O24'
_cell_volume   500.98154333
_cell_formula_units_Z   4
loop_
 _symmetry_equiv_pos_site_id
 _symmetry_equiv_pos_as_xyz
  1  'x, y, z'
loop_
 _atom_site_type_symbol
 _atom_site_label
 _atom_site_symmetry_multiplicity
 _atom_site_fract_x
 _atom_site_fract_y
 _atom_site_fract_z
 _atom_site_occupancy
  Ca  Ca0  1  0.00606000  0.17154500  0.24944400  1
  Ca  Ca1  1  0.50606000  0.32845500  0.74944400  1
  Ca  Ca2  1  0.50606000  0.67154500  0.24944400  1
  Ca  Ca3  1  0.00606000  0.82845500  0.74944400  1
  P  P4  1  0.48631600  0.17746400  0.23405500  1
  P  P5  1  0.98631600  0.32253600  0.73405500  1
  P  P6  1  0.98631600  0.67746400  0.23405500  1
  P  P7  1  0.48631600  0.82253600  0.73405500  1
  H  H8  1  0.60662150  0.06680650  0.85359400  1
  H  H9  1  0.10662150  0.43319350  0.35359400  1
  H  H10  1  0.27281850  0.48723350  0.00308500  1
  H  H11  1  0.77281850  0.01276650  0.50308500  1
  H  H12  1  0.25521900  0.00823900  0.61178500  1
  H  H13  1  0.75521900  0.49176100  0.11178500  1
  H  H14  1  0.78959750  0.17246650  0.63470400  1
  H  H15  1  0.28959750  0.32753350  0.13470400  1
  H  H16  1  0.24859800  0.08708600  0.78724100  1
  H  H17  1  0.74859800  0.41291400  0.28724100  1
  H  H18  1  0.10662150  0.56680650  0.85359400  1
  H  H19  1  0.60662150  0.93319350  0.35359400  1
  H  H20  1  0.77281850  0.98723350  0.00308500  1
  H  H21  1  0.27281850  0.51276650  0.50308500  1
  H  H22  1  0.75521900  0.50823900  0.61178500  1
  H  H23  1  0.25521900  0.99176100  0.11178500  1
  H  H24  1  0.28959750  0.67246650  0.63470400  1
  H  H25  1  0.78959750  0.82753350  0.13470400  1
  H  H26  1  0.74859800  0.58708600  0.78724100  1
  H  H27  1  0.24859800  0.91291400  0.28724100  1
  O  O28  1  0.29570750  0.10599250  0.09823400  1
  O  O29  1  0.38673850  0.24806750  0.34744300  1
  O  O30  1  0.74934950  0.42625750  0.12154800  1
  O  O31  1  0.24934950  0.07374250  0.62154800  1
  O  O32  1  0.27022000  0.44790200  0.48829800  1
  O  O33  1  0.77022000  0.05209800  0.98829800  1
  O  O34  1  0.58225100  0.21842200  0.06650300  1
  O  O35  1  0.08225100  0.28157800  0.56650300  1
  O  O36  1  0.71510300  0.13168500  0.47696500  1
  O  O37  1  0.21510300  0.36831500  0.97696500  1
  O  O38  1  0.88673850  0.25193250  0.84744300  1
  O  O39  1  0.79570750  0.39400750  0.59823400  1
  O  O40  1  0.79570750  0.60599250  0.09823400  1
  O  O41  1  0.88673850  0.74806750  0.34744300  1
  O  O42  1  0.24934950  0.92625750  0.12154800  1
  O  O43  1  0.74934950  0.57374250  0.62154800  1
  O  O44  1  0.77022000  0.94790200  0.48829800  1
  O  O45  1  0.27022000  0.55209800  0.98829800  1
  O  O46  1  0.08225100  0.71842200  0.06650300  1
  O  O47  1  0.58225100  0.78157800  0.56650300  1
  O  O48  1  0.21510300  0.63168500  0.47696500  1
  O  O49  1  0.71510300  0.86831500  0.97696500  1
  O  O50  1  0.38673850  0.75193250  0.84744300  1
  O  O51  1  0.29570750  0.89400750  0.59823400  1
