# generated using pymatgen
data_RbB3O5
_symmetry_space_group_name_H-M   'P 1'
_cell_length_a   6.52762500
_cell_length_b   8.53779200
_cell_length_c   8.79848000
_cell_angle_alpha   90.00000000
_cell_angle_beta   90.00000000
_cell_angle_gamma   90.00000000
_symmetry_Int_Tables_number   1
_chemical_formula_structural   RbB3O5
_chemical_formula_sum   'Rb4 B12 O20'
_cell_volume   490.35252775
_cell_formula_units_Z   4
loop_
 _symmetry_equiv_pos_site_id
 _symmetry_equiv_pos_as_xyz
  1  'x, y, z'
loop_
 _atom_site_type_symbol
 _atom_site_label
 _atom_site_symmetry_multiplicity
 _atom_site_fract_x
 _atom_site_fract_y
 _atom_site_fract_z
 _atom_site_occupancy
  Rb  Rb0  1  0.36320000  0.65637700  0.10658100  1
  Rb  Rb1  1  0.86320000  0.84362300  0.89341900  1
  Rb  Rb2  1  0.63680000  0.15637700  0.39341900  1
  Rb  Rb3  1  0.13680000  0.34362300  0.60658100  1
  B  B4  1  0.87658200  0.78908400  0.29895100  1
  B  B5  1  0.37658200  0.71091600  0.70104900  1
  B  B6  1  0.12341800  0.28908400  0.20104900  1
  B  B7  1  0.62341800  0.21091600  0.79895100  1
  B  B8  1  0.12843300  0.00049600  0.24589500  1
  B  B9  1  0.62843300  0.49950400  0.75410500  1
  B  B10  1  0.78661200  0.61678100  0.50753200  1
  B  B11  1  0.28661200  0.88321900  0.49246800  1
  B  B12  1  0.21338800  0.11678100  0.99246800  1
  B  B13  1  0.71338800  0.38321900  0.00753200  1
  B  B14  1  0.87156700  0.50049600  0.25410500  1
  B  B15  1  0.37156700  0.99950400  0.74589500  1
  O  O16  1  0.79037200  0.49066400  0.41163400  1
  O  O17  1  0.91504000  0.93859400  0.24794400  1
  O  O18  1  0.58496000  0.06140600  0.74794400  1
  O  O19  1  0.41504000  0.56140600  0.75205600  1
  O  O20  1  0.75869600  0.60295500  0.66084100  1
  O  O21  1  0.25869600  0.89704500  0.33915900  1
  O  O22  1  0.24130400  0.10295500  0.83915900  1
  O  O23  1  0.74130400  0.39704500  0.16084100  1
  O  O24  1  0.67228700  0.23220200  0.95203700  1
  O  O25  1  0.17228700  0.26779800  0.04796300  1
  O  O26  1  0.32771300  0.73220200  0.54796300  1
  O  O27  1  0.82771300  0.76779800  0.45203700  1
  O  O28  1  0.20962800  0.99066400  0.08836600  1
  O  O29  1  0.70962800  0.50933600  0.91163400  1
  O  O30  1  0.87561200  0.66502300  0.19958400  1
  O  O31  1  0.37561200  0.83497700  0.80041600  1
  O  O32  1  0.12438800  0.16502300  0.30041600  1
  O  O33  1  0.62438800  0.33497700  0.69958400  1
  O  O34  1  0.08496000  0.43859400  0.25205600  1
  O  O35  1  0.29037200  0.00933600  0.58836600  1
