# generated using pymatgen
data_KBa4Bi3O
_symmetry_space_group_name_H-M   'P 1'
_cell_length_a   9.12931200
_cell_length_b   9.12931200
_cell_length_c   17.03751000
_cell_angle_alpha   90.00000000
_cell_angle_beta   90.00000000
_cell_angle_gamma   90.00000000
_symmetry_Int_Tables_number   1
_chemical_formula_structural   KBa4Bi3O
_chemical_formula_sum   'K4 Ba16 Bi12 O4'
_cell_volume   1419.97998519
_cell_formula_units_Z   4
loop_
 _symmetry_equiv_pos_site_id
 _symmetry_equiv_pos_as_xyz
  1  'x, y, z'
loop_
 _atom_site_type_symbol
 _atom_site_label
 _atom_site_symmetry_multiplicity
 _atom_site_fract_x
 _atom_site_fract_y
 _atom_site_fract_z
 _atom_site_occupancy
  K  K0  1  0.00000000  0.00000000  0.00000000  1
  K  K1  1  0.50000000  0.50000000  0.00000000  1
  K  K2  1  0.50000000  0.50000000  0.50000000  1
  K  K3  1  0.00000000  0.00000000  0.50000000  1
  Ba  Ba4  1  0.65499300  0.15499300  0.34488100  1
  Ba  Ba5  1  0.84500700  0.65499300  0.34488100  1
  Ba  Ba6  1  0.34500700  0.84500700  0.34488100  1
  Ba  Ba7  1  0.84500700  0.34500700  0.15511900  1
  Ba  Ba8  1  0.15499300  0.34500700  0.34488100  1
  Ba  Ba9  1  0.15499300  0.65499300  0.15511900  1
  Ba  Ba10  1  0.34500700  0.15499300  0.15511900  1
  Ba  Ba11  1  0.65499300  0.84500700  0.15511900  1
  Ba  Ba12  1  0.15499300  0.65499300  0.84488100  1
  Ba  Ba13  1  0.34500700  0.15499300  0.84488100  1
  Ba  Ba14  1  0.84500700  0.34500700  0.84488100  1
  Ba  Ba15  1  0.34500700  0.84500700  0.65511900  1
  Ba  Ba16  1  0.65499300  0.84500700  0.84488100  1
  Ba  Ba17  1  0.65499300  0.15499300  0.65511900  1
  Ba  Ba18  1  0.84500700  0.65499300  0.65511900  1
  Ba  Ba19  1  0.15499300  0.34500700  0.65511900  1
  Bi  Bi20  1  0.12044300  0.37955700  0.00000000  1
  Bi  Bi21  1  0.37955700  0.87955700  0.00000000  1
  Bi  Bi22  1  0.00000000  0.00000000  0.25000000  1
  Bi  Bi23  1  0.50000000  0.50000000  0.25000000  1
  Bi  Bi24  1  0.62044300  0.12044300  0.00000000  1
  Bi  Bi25  1  0.87955700  0.62044300  0.00000000  1
  Bi  Bi26  1  0.62044300  0.87955700  0.50000000  1
  Bi  Bi27  1  0.87955700  0.37955700  0.50000000  1
  Bi  Bi28  1  0.50000000  0.50000000  0.75000000  1
  Bi  Bi29  1  0.00000000  0.00000000  0.75000000  1
  Bi  Bi30  1  0.12044300  0.62044300  0.50000000  1
  Bi  Bi31  1  0.37955700  0.12044300  0.50000000  1
  O  O32  1  0.50000000  0.00000000  0.25000000  1
  O  O33  1  0.00000000  0.50000000  0.25000000  1
  O  O34  1  0.00000000  0.50000000  0.75000000  1
  O  O35  1  0.50000000  0.00000000  0.75000000  1
