# generated using pymatgen
data_Cs2PdI6
_symmetry_space_group_name_H-M   'P 1'
_cell_length_a   9.23040000
_cell_length_b   9.23040000
_cell_length_c   9.33202200
_cell_angle_alpha   90.00000000
_cell_angle_beta   90.00000000
_cell_angle_gamma   90.00000000
_symmetry_Int_Tables_number   1
_chemical_formula_structural   Cs2PdI6
_chemical_formula_sum   'Cs4 Pd2 I12'
_cell_volume   795.09092619
_cell_formula_units_Z   2
loop_
 _symmetry_equiv_pos_site_id
 _symmetry_equiv_pos_as_xyz
  1  'x, y, z'
loop_
 _atom_site_type_symbol
 _atom_site_label
 _atom_site_symmetry_multiplicity
 _atom_site_fract_x
 _atom_site_fract_y
 _atom_site_fract_z
 _atom_site_occupancy
  Cs  Cs0  1  0.00000000  0.50000000  0.25000000  1
  Cs  Cs1  1  0.50000000  0.00000000  0.25000000  1
  Cs  Cs2  1  0.50000000  0.00000000  0.75000000  1
  Cs  Cs3  1  0.00000000  0.50000000  0.75000000  1
  Pd  Pd4  1  0.00000000  0.00000000  0.00000000  1
  Pd  Pd5  1  0.50000000  0.50000000  0.50000000  1
  I  I6  1  0.70414600  0.29585400  0.50000000  1
  I  I7  1  0.00000000  0.00000000  0.34578500  1
  I  I8  1  0.29585400  0.29585400  0.50000000  1
  I  I9  1  0.29585400  0.70414600  0.50000000  1
  I  I10  1  0.20414600  0.20414600  0.00000000  1
  I  I11  1  0.00000000  0.00000000  0.65421500  1
  I  I12  1  0.20414600  0.79585400  0.00000000  1
  I  I13  1  0.50000000  0.50000000  0.84578500  1
  I  I14  1  0.79585400  0.79585400  0.00000000  1
  I  I15  1  0.79585400  0.20414600  0.00000000  1
  I  I16  1  0.70414600  0.70414600  0.50000000  1
  I  I17  1  0.50000000  0.50000000  0.15421500  1
