# generated using pymatgen
data_InAgSe2
_symmetry_space_group_name_H-M   'P 1'
_cell_length_a   6.21819800
_cell_length_b   6.21819800
_cell_length_c   12.01074800
_cell_angle_alpha   90.00000000
_cell_angle_beta   90.00000000
_cell_angle_gamma   90.00000000
_symmetry_Int_Tables_number   1
_chemical_formula_structural   InAgSe2
_chemical_formula_sum   'In4 Ag4 Se8'
_cell_volume   464.40741843
_cell_formula_units_Z   4
loop_
 _symmetry_equiv_pos_site_id
 _symmetry_equiv_pos_as_xyz
  1  'x, y, z'
loop_
 _atom_site_type_symbol
 _atom_site_label
 _atom_site_symmetry_multiplicity
 _atom_site_fract_x
 _atom_site_fract_y
 _atom_site_fract_z
 _atom_site_occupancy
  In  In0  1  0.50000000  0.50000000  0.00000000  1
  In  In1  1  0.50000000  0.00000000  0.25000000  1
  In  In2  1  0.00000000  0.00000000  0.50000000  1
  In  In3  1  0.00000000  0.50000000  0.75000000  1
  Ag  Ag4  1  0.00000000  0.50000000  0.25000000  1
  Ag  Ag5  1  0.00000000  0.00000000  0.00000000  1
  Ag  Ag6  1  0.50000000  0.00000000  0.75000000  1
  Ag  Ag7  1  0.50000000  0.50000000  0.50000000  1
  Se  Se8  1  0.74572900  0.75000000  0.12500000  1
  Se  Se9  1  0.25000000  0.75427100  0.37500000  1
  Se  Se10  1  0.25427100  0.25000000  0.12500000  1
  Se  Se11  1  0.75000000  0.24572900  0.37500000  1
  Se  Se12  1  0.24572900  0.25000000  0.62500000  1
  Se  Se13  1  0.75000000  0.25427100  0.87500000  1
  Se  Se14  1  0.75427100  0.75000000  0.62500000  1
  Se  Se15  1  0.25000000  0.74572900  0.87500000  1
