# generated using pymatgen
data_Hg6S4Br3Cl
_symmetry_space_group_name_H-M   'P 1'
_cell_length_a   18.67735000
_cell_length_b   9.46425600
_cell_length_c   10.59423764
_cell_angle_alpha   90.00000000
_cell_angle_beta   116.89404598
_cell_angle_gamma   90.00000000
_symmetry_Int_Tables_number   1
_chemical_formula_structural   Hg6S4Br3Cl
_chemical_formula_sum   'Hg24 S16 Br12 Cl4'
_cell_volume   1670.16971644
_cell_formula_units_Z   4
loop_
 _symmetry_equiv_pos_site_id
 _symmetry_equiv_pos_as_xyz
  1  'x, y, z'
loop_
 _atom_site_type_symbol
 _atom_site_label
 _atom_site_symmetry_multiplicity
 _atom_site_fract_x
 _atom_site_fract_y
 _atom_site_fract_z
 _atom_site_occupancy
  Hg  Hg0  1  0.07404250  0.76846650  0.79478700  1
  Hg  Hg1  1  0.42595750  0.26846650  0.20521300  1
  Hg  Hg2  1  0.42595750  0.73153350  0.20521300  1
  Hg  Hg3  1  0.07404250  0.23153350  0.79478700  1
  Hg  Hg4  1  0.07429700  0.50000000  0.22527700  1
  Hg  Hg5  1  0.42570300  0.00000000  0.77472300  1
  Hg  Hg6  1  0.21737700  0.50000000  0.78811500  1
  Hg  Hg7  1  0.28262300  0.00000000  0.21188500  1
  Hg  Hg8  1  0.36910000  0.26322300  0.49542700  1
  Hg  Hg9  1  0.13090000  0.76322300  0.50457300  1
  Hg  Hg10  1  0.13090000  0.23677700  0.50457300  1
  Hg  Hg11  1  0.36910000  0.73677700  0.49542700  1
  Hg  Hg12  1  0.57404250  0.26846650  0.79478700  1
  Hg  Hg13  1  0.92595750  0.76846650  0.20521300  1
  Hg  Hg14  1  0.92595750  0.23153350  0.20521300  1
  Hg  Hg15  1  0.57404250  0.73153350  0.79478700  1
  Hg  Hg16  1  0.57429700  0.00000000  0.22527700  1
  Hg  Hg17  1  0.92570300  0.50000000  0.77472300  1
  Hg  Hg18  1  0.71737700  0.00000000  0.78811500  1
  Hg  Hg19  1  0.78262300  0.50000000  0.21188500  1
  Hg  Hg20  1  0.86910000  0.76322300  0.49542700  1
  Hg  Hg21  1  0.63090000  0.26322300  0.50457300  1
  Hg  Hg22  1  0.63090000  0.73677700  0.50457300  1
  Hg  Hg23  1  0.86910000  0.23677700  0.49542700  1
  S  S24  1  0.06633500  0.75743500  0.24683100  1
  S  S25  1  0.06633500  0.24256500  0.24683100  1
  S  S26  1  0.43366500  0.74256500  0.75316900  1
  S  S27  1  0.30367450  0.74397550  0.23756100  1
  S  S28  1  0.19632550  0.24397550  0.76243900  1
  S  S29  1  0.19632550  0.75602450  0.76243900  1
  S  S30  1  0.30367450  0.25602450  0.23756100  1
  S  S31  1  0.43366500  0.25743500  0.75316900  1
  S  S32  1  0.56633500  0.25743500  0.24683100  1
  S  S33  1  0.56633500  0.74256500  0.24683100  1
  S  S34  1  0.93366500  0.24256500  0.75316900  1
  S  S35  1  0.80367450  0.24397550  0.23756100  1
  S  S36  1  0.69632550  0.74397550  0.76243900  1
  S  S37  1  0.69632550  0.25602450  0.76243900  1
  S  S38  1  0.80367450  0.75602450  0.23756100  1
  S  S39  1  0.93366500  0.75743500  0.75316900  1
  Br  Br40  1  0.24877100  0.50000000  0.50203700  1
  Br  Br41  1  0.25122900  0.00000000  0.49796300  1
  Br  Br42  1  0.00000000  0.50000000  0.50000000  1
  Br  Br43  1  0.38083600  0.00000000  0.01036600  1
  Br  Br44  1  0.11916400  0.50000000  0.98963400  1
  Br  Br45  1  0.00000000  0.00000000  0.50000000  1
  Br  Br46  1  0.74877100  0.00000000  0.50203700  1
  Br  Br47  1  0.75122900  0.50000000  0.49796300  1
  Br  Br48  1  0.50000000  0.00000000  0.50000000  1
  Br  Br49  1  0.88083600  0.50000000  0.01036600  1
  Br  Br50  1  0.61916400  0.00000000  0.98963400  1
  Br  Br51  1  0.50000000  0.50000000  0.50000000  1
  Cl  Cl52  1  0.37465500  0.50000000  0.01332200  1
  Cl  Cl53  1  0.12534500  0.00000000  0.98667800  1
  Cl  Cl54  1  0.87465500  0.00000000  0.01332200  1
  Cl  Cl55  1  0.62534500  0.50000000  0.98667800  1
