# generated using pymatgen
data_Os(SCl6)2
_symmetry_space_group_name_H-M   'P 1'
_cell_length_a   10.70463042
_cell_length_b   10.70463042
_cell_length_c   17.27106713
_cell_angle_alpha   90.00000000
_cell_angle_beta   90.00000000
_cell_angle_gamma   120.00000000
_symmetry_Int_Tables_number   1
_chemical_formula_structural   Os(SCl6)2
_chemical_formula_sum   'Os3 S6 Cl36'
_cell_volume   1713.93031201
_cell_formula_units_Z   3
loop_
 _symmetry_equiv_pos_site_id
 _symmetry_equiv_pos_as_xyz
  1  'x, y, z'
loop_
 _atom_site_type_symbol
 _atom_site_label
 _atom_site_symmetry_multiplicity
 _atom_site_fract_x
 _atom_site_fract_y
 _atom_site_fract_z
 _atom_site_occupancy
  Os  Os0  1  0.00000000  0.00000000  0.00000000  1
  Os  Os1  1  0.66666667  0.33333333  0.33333333  1
  Os  Os2  1  0.33333333  0.66666667  0.66666667  1
  S  S3  1  0.33333333  0.66666667  0.87533267  1
  S  S4  1  0.33333333  0.66666667  0.45800067  1
  S  S5  1  0.00000000  0.00000000  0.20866600  1
  S  S6  1  0.00000000  0.00000000  0.79133400  1
  S  S7  1  0.66666667  0.33333333  0.54199933  1
  S  S8  1  0.66666667  0.33333333  0.12466733  1
  Cl  Cl9  1  0.43167800  0.86335600  0.40391200  1
  Cl  Cl10  1  0.79490333  0.89745167  0.07936767  1
  Cl  Cl11  1  0.10254833  0.20509667  0.07936767  1
  Cl  Cl12  1  0.10254833  0.89745167  0.07936767  1
  Cl  Cl13  1  0.56411833  0.43588167  0.25396567  1
  Cl  Cl14  1  0.87176333  0.43588167  0.25396567  1
  Cl  Cl15  1  0.56411833  0.12823667  0.25396567  1
  Cl  Cl16  1  0.53002267  0.76501133  0.92942133  1
  Cl  Cl17  1  0.23498867  0.46997733  0.92942133  1
  Cl  Cl18  1  0.23498867  0.76501133  0.92942133  1
  Cl  Cl19  1  0.43167800  0.56832200  0.40391200  1
  Cl  Cl20  1  0.13664400  0.56832200  0.40391200  1
  Cl  Cl21  1  0.09834467  0.19668933  0.73724533  1
  Cl  Cl22  1  0.46157000  0.23078500  0.41270100  1
  Cl  Cl23  1  0.76921500  0.53843000  0.41270100  1
  Cl  Cl24  1  0.76921500  0.23078500  0.41270100  1
  Cl  Cl25  1  0.23078500  0.76921500  0.58729900  1
  Cl  Cl26  1  0.53843000  0.76921500  0.58729900  1
  Cl  Cl27  1  0.23078500  0.46157000  0.58729900  1
  Cl  Cl28  1  0.19668933  0.09834467  0.26275467  1
  Cl  Cl29  1  0.90165533  0.80331067  0.26275467  1
  Cl  Cl30  1  0.90165533  0.09834467  0.26275467  1
  Cl  Cl31  1  0.09834467  0.90165533  0.73724533  1
  Cl  Cl32  1  0.80331067  0.90165533  0.73724533  1
  Cl  Cl33  1  0.76501133  0.53002267  0.07057867  1
  Cl  Cl34  1  0.12823667  0.56411833  0.74603433  1
  Cl  Cl35  1  0.43588167  0.87176333  0.74603433  1
  Cl  Cl36  1  0.43588167  0.56411833  0.74603433  1
  Cl  Cl37  1  0.89745167  0.10254833  0.92063233  1
  Cl  Cl38  1  0.20509667  0.10254833  0.92063233  1
  Cl  Cl39  1  0.89745167  0.79490333  0.92063233  1
  Cl  Cl40  1  0.86335600  0.43167800  0.59608800  1
  Cl  Cl41  1  0.56832200  0.13664400  0.59608800  1
  Cl  Cl42  1  0.56832200  0.43167800  0.59608800  1
  Cl  Cl43  1  0.76501133  0.23498867  0.07057867  1
  Cl  Cl44  1  0.46997733  0.23498867  0.07057867  1
