# generated using pymatgen
data_Ca3SiO5
_symmetry_space_group_name_H-M   'P 1'
_cell_length_a   7.08979851
_cell_length_b   7.08979851
_cell_length_c   25.80952205
_cell_angle_alpha   90.00000000
_cell_angle_beta   90.00000000
_cell_angle_gamma   120.00000000
_symmetry_Int_Tables_number   1
_chemical_formula_structural   Ca3SiO5
_chemical_formula_sum   'Ca27 Si9 O45'
_cell_volume   1123.51371809
_cell_formula_units_Z   9
loop_
 _symmetry_equiv_pos_site_id
 _symmetry_equiv_pos_as_xyz
  1  'x, y, z'
loop_
 _atom_site_type_symbol
 _atom_site_label
 _atom_site_symmetry_multiplicity
 _atom_site_fract_x
 _atom_site_fract_y
 _atom_site_fract_z
 _atom_site_occupancy
  Ca  Ca0  1  0.50815333  0.49184667  0.22948467  1
  Ca  Ca1  1  0.98369333  0.49184667  0.22948467  1
  Ca  Ca2  1  0.50815333  0.01630667  0.22948467  1
  Ca  Ca3  1  0.82467433  0.17532567  0.11727167  1
  Ca  Ca4  1  0.35065133  0.17532567  0.11727167  1
  Ca  Ca5  1  0.82467433  0.64934867  0.11727167  1
  Ca  Ca6  1  0.17483333  0.82516667  0.33016467  1
  Ca  Ca7  1  0.65033333  0.82516667  0.33016467  1
  Ca  Ca8  1  0.17483333  0.34966667  0.33016467  1
  Ca  Ca9  1  0.17482000  0.82518000  0.56281800  1
  Ca  Ca10  1  0.65036000  0.82518000  0.56281800  1
  Ca  Ca11  1  0.17482000  0.34964000  0.56281800  1
  Ca  Ca12  1  0.49134100  0.50865900  0.45060500  1
  Ca  Ca13  1  0.01731800  0.50865900  0.45060500  1
  Ca  Ca14  1  0.49134100  0.98268200  0.45060500  1
  Ca  Ca15  1  0.84150000  0.15850000  0.66349800  1
  Ca  Ca16  1  0.31700000  0.15850000  0.66349800  1
  Ca  Ca17  1  0.84150000  0.68300000  0.66349800  1
  Ca  Ca18  1  0.84148667  0.15851333  0.89615133  1
  Ca  Ca19  1  0.31702667  0.15851333  0.89615133  1
  Ca  Ca20  1  0.84148667  0.68297333  0.89615133  1
  Ca  Ca21  1  0.15800767  0.84199233  0.78393833  1
  Ca  Ca22  1  0.68398467  0.84199233  0.78393833  1
  Ca  Ca23  1  0.15800767  0.31601533  0.78393833  1
  Ca  Ca24  1  0.50816667  0.49183333  0.99683133  1
  Ca  Ca25  1  0.98366667  0.49183333  0.99683133  1
  Ca  Ca26  1  0.50816667  0.01633333  0.99683133  1
  Si  Si27  1  0.00000000  0.00000000  0.23204900  1
  Si  Si28  1  0.33333333  0.66666667  0.11140467  1
  Si  Si29  1  0.00000000  0.00000000  0.01093900  1
  Si  Si30  1  0.66666667  0.33333333  0.56538233  1
  Si  Si31  1  0.00000000  0.00000000  0.44473800  1
  Si  Si32  1  0.66666667  0.33333333  0.34427233  1
  Si  Si33  1  0.33333333  0.66666667  0.89871567  1
  Si  Si34  1  0.66666667  0.33333333  0.77807133  1
  Si  Si35  1  0.33333333  0.66666667  0.67760567  1
  O  O36  1  0.53931233  0.46068767  0.32481567  1
  O  O37  1  0.92137533  0.46068767  0.32481567  1
  O  O38  1  0.53931233  0.07862467  0.32481567  1
  O  O39  1  0.45912100  0.54087900  0.13384200  1
  O  O40  1  0.08175800  0.54087900  0.13384200  1
  O  O41  1  0.45912100  0.91824200  0.13384200  1
  O  O42  1  0.87486300  0.12513700  0.25538600  1
  O  O43  1  0.25027400  0.12513700  0.25538600  1
  O  O44  1  0.87486300  0.74972600  0.25538600  1
  O  O45  1  0.33333333  0.66666667  0.04622067  1
  O  O46  1  0.66666667  0.33333333  0.05857033  1
  O  O47  1  0.00000000  0.00000000  0.07429000  1
  O  O48  1  0.00000000  0.00000000  0.16915600  1
  O  O49  1  0.33333333  0.66666667  0.26470567  1
  O  O50  1  0.66666667  0.33333333  0.18293733  1
  O  O51  1  0.20597900  0.79402100  0.65814900  1
  O  O52  1  0.58804200  0.79402100  0.65814900  1
  O  O53  1  0.20597900  0.41195800  0.65814900  1
  O  O54  1  0.12578767  0.87421233  0.46717533  1
  O  O55  1  0.74842467  0.87421233  0.46717533  1
  O  O56  1  0.12578767  0.25157533  0.46717533  1
  O  O57  1  0.54152967  0.45847033  0.58871933  1
  O  O58  1  0.91694067  0.45847033  0.58871933  1
  O  O59  1  0.54152967  0.08305933  0.58871933  1
  O  O60  1  0.00000000  0.00000000  0.37955400  1
  O  O61  1  0.33333333  0.66666667  0.39190367  1
  O  O62  1  0.66666667  0.33333333  0.40762333  1
  O  O63  1  0.66666667  0.33333333  0.50248933  1
  O  O64  1  0.00000000  0.00000000  0.59803900  1
  O  O65  1  0.33333333  0.66666667  0.51627067  1
  O  O66  1  0.87264567  0.12735433  0.99148233  1
  O  O67  1  0.25470867  0.12735433  0.99148233  1
  O  O68  1  0.87264567  0.74529133  0.99148233  1
  O  O69  1  0.79245433  0.20754567  0.80050867  1
  O  O70  1  0.41509133  0.20754567  0.80050867  1
  O  O71  1  0.79245433  0.58490867  0.80050867  1
  O  O72  1  0.20819633  0.79180367  0.92205267  1
  O  O73  1  0.58360733  0.79180367  0.92205267  1
  O  O74  1  0.20819633  0.41639267  0.92205267  1
  O  O75  1  0.66666667  0.33333333  0.71288733  1
  O  O76  1  0.00000000  0.00000000  0.72523700  1
  O  O77  1  0.33333333  0.66666667  0.74095667  1
  O  O78  1  0.33333333  0.66666667  0.83582267  1
  O  O79  1  0.66666667  0.33333333  0.93137233  1
  O  O80  1  0.00000000  0.00000000  0.84960400  1
