# generated using pymatgen
data_NaCu3F7
_symmetry_space_group_name_H-M   'P 1'
_cell_length_a   12.24519000
_cell_length_b   7.44852200
_cell_length_c   6.99487402
_cell_angle_alpha   90.00000000
_cell_angle_beta   120.23546949
_cell_angle_gamma   90.00000000
_symmetry_Int_Tables_number   1
_chemical_formula_structural   NaCu3F7
_chemical_formula_sum   'Na4 Cu12 F28'
_cell_volume   551.20201053
_cell_formula_units_Z   4
loop_
 _symmetry_equiv_pos_site_id
 _symmetry_equiv_pos_as_xyz
  1  'x, y, z'
loop_
 _atom_site_type_symbol
 _atom_site_label
 _atom_site_symmetry_multiplicity
 _atom_site_fract_x
 _atom_site_fract_y
 _atom_site_fract_z
 _atom_site_occupancy
  Na  Na0  1  0.50000000  0.00000000  0.00000000  1
  Na  Na1  1  0.50000000  0.00000000  0.50000000  1
  Na  Na2  1  0.00000000  0.50000000  0.00000000  1
  Na  Na3  1  0.00000000  0.50000000  0.50000000  1
  Cu  Cu4  1  0.25000000  0.75000000  0.50000000  1
  Cu  Cu5  1  0.25000000  0.25000000  0.00000000  1
  Cu  Cu6  1  0.00000000  0.00000000  0.50000000  1
  Cu  Cu7  1  0.00000000  0.00000000  0.00000000  1
  Cu  Cu8  1  0.25000000  0.25000000  0.50000000  1
  Cu  Cu9  1  0.25000000  0.75000000  0.00000000  1
  Cu  Cu10  1  0.75000000  0.25000000  0.50000000  1
  Cu  Cu11  1  0.75000000  0.75000000  0.00000000  1
  Cu  Cu12  1  0.50000000  0.50000000  0.50000000  1
  Cu  Cu13  1  0.50000000  0.50000000  0.00000000  1
  Cu  Cu14  1  0.75000000  0.75000000  0.50000000  1
  Cu  Cu15  1  0.75000000  0.25000000  0.00000000  1
  F  F16  1  0.50000000  0.39365800  0.75000000  1
  F  F17  1  0.50000000  0.60634200  0.25000000  1
  F  F18  1  0.65378050  0.03824550  0.89491800  1
  F  F19  1  0.34621950  0.03824550  0.60508200  1
  F  F20  1  0.34621950  0.96175450  0.10508200  1
  F  F21  1  0.65378050  0.96175450  0.39491800  1
  F  F22  1  0.32615850  0.70335350  0.81537100  1
  F  F23  1  0.67384150  0.70335350  0.68462900  1
  F  F24  1  0.59565600  0.70242500  0.99779500  1
  F  F25  1  0.40434400  0.70242500  0.50220500  1
  F  F26  1  0.40434400  0.29757500  0.00220500  1
  F  F27  1  0.59565600  0.29757500  0.49779500  1
  F  F28  1  0.32615850  0.29664650  0.31537100  1
  F  F29  1  0.67384150  0.29664650  0.18462900  1
  F  F30  1  0.00000000  0.89365800  0.75000000  1
  F  F31  1  0.00000000  0.10634200  0.25000000  1
  F  F32  1  0.15378050  0.53824550  0.89491800  1
  F  F33  1  0.84621950  0.53824550  0.60508200  1
  F  F34  1  0.84621950  0.46175450  0.10508200  1
  F  F35  1  0.15378050  0.46175450  0.39491800  1
  F  F36  1  0.82615850  0.20335350  0.81537100  1
  F  F37  1  0.17384150  0.20335350  0.68462900  1
  F  F38  1  0.09565600  0.20242500  0.99779500  1
  F  F39  1  0.90434400  0.20242500  0.50220500  1
  F  F40  1  0.90434400  0.79757500  0.00220500  1
  F  F41  1  0.09565600  0.79757500  0.49779500  1
  F  F42  1  0.82615850  0.79664650  0.31537100  1
  F  F43  1  0.17384150  0.79664650  0.18462900  1
