# generated using pymatgen
data_Tl5SbO5
_symmetry_space_group_name_H-M   'P 1'
_cell_length_a   11.08264800
_cell_length_b   12.12086000
_cell_length_c   14.13347800
_cell_angle_alpha   90.00000000
_cell_angle_beta   90.00000000
_cell_angle_gamma   90.00000000
_symmetry_Int_Tables_number   1
_chemical_formula_structural   Tl5SbO5
_chemical_formula_sum   'Tl40 Sb8 O40'
_cell_volume   1898.56741095
_cell_formula_units_Z   8
loop_
 _symmetry_equiv_pos_site_id
 _symmetry_equiv_pos_as_xyz
  1  'x, y, z'
loop_
 _atom_site_type_symbol
 _atom_site_label
 _atom_site_symmetry_multiplicity
 _atom_site_fract_x
 _atom_site_fract_y
 _atom_site_fract_z
 _atom_site_occupancy
  Tl  Tl0  1  0.50000000  0.24202700  0.90069600  1
  Tl  Tl1  1  0.50000000  0.75797300  0.40069600  1
  Tl  Tl2  1  0.50000000  0.97492100  0.23955300  1
  Tl  Tl3  1  0.50000000  0.02507900  0.73955300  1
  Tl  Tl4  1  0.33659800  0.97561900  0.99544500  1
  Tl  Tl5  1  0.66340200  0.02438100  0.49544500  1
  Tl  Tl6  1  0.66340200  0.97561900  0.99544500  1
  Tl  Tl7  1  0.33659800  0.02438100  0.49544500  1
  Tl  Tl8  1  0.15849400  0.03970900  0.25132700  1
  Tl  Tl9  1  0.84150600  0.96029100  0.75132700  1
  Tl  Tl10  1  0.84150600  0.03970900  0.25132700  1
  Tl  Tl11  1  0.15849400  0.96029100  0.75132700  1
  Tl  Tl12  1  0.66206100  0.30098000  0.39041700  1
  Tl  Tl13  1  0.33793900  0.69902000  0.89041700  1
  Tl  Tl14  1  0.33793900  0.30098000  0.39041700  1
  Tl  Tl15  1  0.66206100  0.69902000  0.89041700  1
  Tl  Tl16  1  0.66248750  0.26571250  0.13335500  1
  Tl  Tl17  1  0.33751250  0.73428750  0.63335500  1
  Tl  Tl18  1  0.33751250  0.26571250  0.13335500  1
  Tl  Tl19  1  0.66248750  0.73428750  0.63335500  1
  Tl  Tl20  1  0.00000000  0.74202700  0.90069600  1
  Tl  Tl21  1  0.00000000  0.25797300  0.40069600  1
  Tl  Tl22  1  0.00000000  0.47492100  0.23955300  1
  Tl  Tl23  1  0.00000000  0.52507900  0.73955300  1
  Tl  Tl24  1  0.83659800  0.47561900  0.99544500  1
  Tl  Tl25  1  0.16340200  0.52438100  0.49544500  1
  Tl  Tl26  1  0.16340200  0.47561900  0.99544500  1
  Tl  Tl27  1  0.83659800  0.52438100  0.49544500  1
  Tl  Tl28  1  0.65849400  0.53970900  0.25132700  1
  Tl  Tl29  1  0.34150600  0.46029100  0.75132700  1
  Tl  Tl30  1  0.34150600  0.53970900  0.25132700  1
  Tl  Tl31  1  0.65849400  0.46029100  0.75132700  1
  Tl  Tl32  1  0.16206100  0.80098000  0.39041700  1
  Tl  Tl33  1  0.83793900  0.19902000  0.89041700  1
  Tl  Tl34  1  0.83793900  0.80098000  0.39041700  1
  Tl  Tl35  1  0.16206100  0.19902000  0.89041700  1
  Tl  Tl36  1  0.16248750  0.76571250  0.13335500  1
  Tl  Tl37  1  0.83751250  0.23428750  0.63335500  1
  Tl  Tl38  1  0.83751250  0.76571250  0.13335500  1
  Tl  Tl39  1  0.16248750  0.23428750  0.63335500  1
  Sb  Sb40  1  0.50000000  0.74418500  0.10413300  1
  Sb  Sb41  1  0.50000000  0.25581500  0.60413300  1
  Sb  Sb42  1  0.50000000  0.50636000  0.52069800  1
  Sb  Sb43  1  0.50000000  0.49364000  0.02069800  1
  Sb  Sb44  1  0.00000000  0.24418500  0.10413300  1
  Sb  Sb45  1  0.00000000  0.75581500  0.60413300  1
  Sb  Sb46  1  0.00000000  0.00636000  0.52069800  1
  Sb  Sb47  1  0.00000000  0.99364000  0.02069800  1
  O  O48  1  0.50000000  0.56279300  0.65472600  1
  O  O49  1  0.50000000  0.43720700  0.15472600  1
  O  O50  1  0.50000000  0.44594500  0.38795800  1
  O  O51  1  0.50000000  0.55405500  0.88795800  1
  O  O52  1  0.50000000  0.31931900  0.73582400  1
  O  O53  1  0.50000000  0.68068100  0.23582400  1
  O  O54  1  0.50000000  0.19452300  0.47012100  1
  O  O55  1  0.50000000  0.80547700  0.97012100  1
  O  O56  1  0.13262350  0.11403350  0.48840500  1
  O  O57  1  0.86737650  0.88596650  0.98840500  1
  O  O58  1  0.86737650  0.11403350  0.48840500  1
  O  O59  1  0.13262350  0.88596650  0.98840500  1
  O  O60  1  0.63062550  0.85320250  0.13754800  1
  O  O61  1  0.36937450  0.14679750  0.63754800  1
  O  O62  1  0.36937450  0.85320250  0.13754800  1
  O  O63  1  0.63062550  0.14679750  0.63754800  1
  O  O64  1  0.62014400  0.62151700  0.05994900  1
  O  O65  1  0.37985600  0.37848300  0.55994900  1
  O  O66  1  0.37985600  0.62151700  0.05994900  1
  O  O67  1  0.62014400  0.37848300  0.55994900  1
  O  O68  1  0.00000000  0.06279300  0.65472600  1
  O  O69  1  0.00000000  0.93720700  0.15472600  1
  O  O70  1  0.00000000  0.94594500  0.38795800  1
  O  O71  1  0.00000000  0.05405500  0.88795800  1
  O  O72  1  0.00000000  0.81931900  0.73582400  1
  O  O73  1  0.00000000  0.18068100  0.23582400  1
  O  O74  1  0.00000000  0.69452300  0.47012100  1
  O  O75  1  0.00000000  0.30547700  0.97012100  1
  O  O76  1  0.63262350  0.61403350  0.48840500  1
  O  O77  1  0.36737650  0.38596650  0.98840500  1
  O  O78  1  0.36737650  0.61403350  0.48840500  1
  O  O79  1  0.63262350  0.38596650  0.98840500  1
  O  O80  1  0.13062550  0.35320250  0.13754800  1
  O  O81  1  0.86937450  0.64679750  0.63754800  1
  O  O82  1  0.86937450  0.35320250  0.13754800  1
  O  O83  1  0.13062550  0.64679750  0.63754800  1
  O  O84  1  0.12014400  0.12151700  0.05994900  1
  O  O85  1  0.87985600  0.87848300  0.55994900  1
  O  O86  1  0.87985600  0.12151700  0.05994900  1
  O  O87  1  0.12014400  0.87848300  0.55994900  1
