# generated using pymatgen
data_LiBi2(PO4)3
_symmetry_space_group_name_H-M   'P 1'
_cell_length_a   8.93976900
_cell_length_b   9.34117400
_cell_length_c   12.78211803
_cell_angle_alpha   90.00000000
_cell_angle_beta   90.53104878
_cell_angle_gamma   90.00000000
_symmetry_Int_Tables_number   1
_chemical_formula_structural   LiBi2(PO4)3
_chemical_formula_sum   'Li4 Bi8 P12 O48'
_cell_volume   1067.36246838
_cell_formula_units_Z   4
loop_
 _symmetry_equiv_pos_site_id
 _symmetry_equiv_pos_as_xyz
  1  'x, y, z'
loop_
 _atom_site_type_symbol
 _atom_site_label
 _atom_site_symmetry_multiplicity
 _atom_site_fract_x
 _atom_site_fract_y
 _atom_site_fract_z
 _atom_site_occupancy
  Li  Li0  1  0.82775000  0.00236500  0.10219700  1
  Li  Li1  1  0.17225000  0.50236500  0.89780300  1
  Li  Li2  1  0.17961500  0.08579100  0.56110600  1
  Li  Li3  1  0.82038500  0.58579100  0.43889400  1
  Bi  Bi4  1  0.00106900  0.46983900  0.13951300  1
  Bi  Bi5  1  0.99893100  0.96983900  0.86048700  1
  Bi  Bi6  1  0.00950700  0.54448600  0.64465100  1
  Bi  Bi7  1  0.99049300  0.04448600  0.35534900  1
  Bi  Bi8  1  0.51634000  0.46244000  0.85588800  1
  Bi  Bi9  1  0.52392800  0.02723400  0.63834100  1
  Bi  Bi10  1  0.48366000  0.96244000  0.14411200  1
  Bi  Bi11  1  0.47607200  0.52723400  0.36165900  1
  P  P12  1  0.64069700  0.11700600  0.91868700  1
  P  P13  1  0.70140500  0.24575800  0.25428100  1
  P  P14  1  0.65349100  0.39471700  0.60357800  1
  P  P15  1  0.79269200  0.75765000  0.24678200  1
  P  P16  1  0.86848200  0.87678100  0.58277700  1
  P  P17  1  0.86315200  0.61273500  0.89876700  1
  P  P18  1  0.13684800  0.11273500  0.10123300  1
  P  P19  1  0.13151800  0.37678100  0.41722300  1
  P  P20  1  0.29859500  0.74575800  0.74571900  1
  P  P21  1  0.35930300  0.61700600  0.08131300  1
  P  P22  1  0.34650900  0.89471700  0.39642200  1
  P  P23  1  0.20730800  0.25765000  0.75321800  1
  O  O24  1  0.51566400  0.03476600  0.98040100  1
  O  O25  1  0.16374900  0.37060600  0.66684300  1
  O  O26  1  0.10943200  0.21385000  0.44843600  1
  O  O27  1  0.09965300  0.39285000  0.30110600  1
  O  O28  1  0.12680700  0.00194400  0.01368900  1
  O  O29  1  0.18648600  0.90400200  0.34351700  1
  O  O30  1  0.20321800  0.57487900  0.03837500  1
  O  O31  1  0.21132600  0.85712500  0.80769600  1
  O  O32  1  0.29109900  0.14312800  0.69010300  1
  O  O33  1  0.29348000  0.10858600  0.15716500  1
  O  O34  1  0.29062900  0.41598900  0.45140300  1
  O  O35  1  0.30096300  0.33051700  0.84359200  1
  O  O36  1  0.33374000  0.62103100  0.82524000  1
  O  O37  1  0.35371800  0.99392600  0.49296000  1
  O  O38  1  0.37177800  0.78358800  0.06374000  1
  O  O39  1  0.37710500  0.58064900  0.19720800  1
  O  O40  1  0.37339100  0.73791400  0.42465800  1
  O  O41  1  0.44179400  0.80265700  0.69709800  1
  O  O42  1  0.46681800  0.94624400  0.31571500  1
  O  O43  1  0.48433600  0.53476600  0.01959900  1
  O  O44  1  0.53318200  0.44624400  0.68428500  1
  O  O45  1  0.20415300  0.68581000  0.64951800  1
  O  O46  1  0.55820600  0.30265700  0.30290200  1
  O  O47  1  0.62660900  0.23791400  0.57534200  1
  O  O48  1  0.62289500  0.08064900  0.80279200  1
  O  O49  1  0.62822200  0.28358800  0.93626000  1
  O  O50  1  0.64628200  0.49392600  0.50704000  1
  O  O51  1  0.66626000  0.12103100  0.17476000  1
  O  O52  1  0.70937100  0.91598900  0.54859700  1
  O  O53  1  0.70890100  0.64312800  0.30989700  1
  O  O54  1  0.69903700  0.83051700  0.15640800  1
  O  O55  1  0.70652000  0.60858600  0.84283500  1
  O  O56  1  0.78867400  0.35712500  0.19230400  1
  O  O57  1  0.81351400  0.40400200  0.65648300  1
  O  O58  1  0.79584700  0.18581000  0.35048200  1
  O  O59  1  0.79678200  0.07487900  0.96162500  1
  O  O60  1  0.83625100  0.87060600  0.33315700  1
  O  O61  1  0.87319300  0.50194400  0.98631100  1
  O  O62  1  0.89056800  0.71385000  0.55156400  1
  O  O63  1  0.90034700  0.89285000  0.69889400  1
  O  O64  1  0.89338200  0.76634000  0.93401100  1
  O  O65  1  0.93262700  0.70013100  0.19363900  1
  O  O66  1  0.10661800  0.26634000  0.06598900  1
  O  O67  1  0.98883800  0.56601500  0.81759800  1
  O  O68  1  0.01116200  0.06601500  0.18240200  1
  O  O69  1  0.01331000  0.47209700  0.47720100  1
  O  O70  1  0.06737300  0.20013100  0.80636100  1
  O  O71  1  0.98669000  0.97209700  0.52279900  1
