# generated using pymatgen
data_BaAsH3O5
_symmetry_space_group_name_H-M   'P 1'
_cell_length_a   7.98227500
_cell_length_b   8.78707400
_cell_length_c   14.88855600
_cell_angle_alpha   90.00000000
_cell_angle_beta   90.00000000
_cell_angle_gamma   90.00000000
_symmetry_Int_Tables_number   1
_chemical_formula_structural   BaAsH3O5
_chemical_formula_sum   'Ba8 As8 H24 O40'
_cell_volume   1044.29584080
_cell_formula_units_Z   8
loop_
 _symmetry_equiv_pos_site_id
 _symmetry_equiv_pos_as_xyz
  1  'x, y, z'
loop_
 _atom_site_type_symbol
 _atom_site_label
 _atom_site_symmetry_multiplicity
 _atom_site_fract_x
 _atom_site_fract_y
 _atom_site_fract_z
 _atom_site_occupancy
  Ba  Ba0  1  0.13606900  0.18439300  0.41747800  1
  Ba  Ba1  1  0.63606900  0.31560700  0.58252200  1
  Ba  Ba2  1  0.86393100  0.68439300  0.08252200  1
  Ba  Ba3  1  0.36393100  0.81560700  0.91747800  1
  Ba  Ba4  1  0.86393100  0.81560700  0.58252200  1
  Ba  Ba5  1  0.36393100  0.68439300  0.41747800  1
  Ba  Ba6  1  0.13606900  0.31560700  0.91747800  1
  Ba  Ba7  1  0.63606900  0.18439300  0.08252200  1
  As  As8  1  0.64982200  0.06202000  0.38529300  1
  As  As9  1  0.14982200  0.43798000  0.61470700  1
  As  As10  1  0.35017800  0.56202000  0.11470700  1
  As  As11  1  0.85017800  0.93798000  0.88529300  1
  As  As12  1  0.35017800  0.93798000  0.61470700  1
  As  As13  1  0.85017800  0.56202000  0.38529300  1
  As  As14  1  0.64982200  0.43798000  0.88529300  1
  As  As15  1  0.14982200  0.06202000  0.11470700  1
  H  H16  1  0.90120500  0.40048400  0.22582400  1
  H  H17  1  0.40120500  0.09951600  0.77417600  1
  H  H18  1  0.09879500  0.90048400  0.27417600  1
  H  H19  1  0.59879500  0.59951600  0.72582400  1
  H  H20  1  0.09879500  0.59951600  0.77417600  1
  H  H21  1  0.59879500  0.90048400  0.22582400  1
  H  H22  1  0.90120500  0.09951600  0.72582400  1
  H  H23  1  0.40120500  0.40048400  0.27417600  1
  H  H24  1  0.94901500  0.32227500  0.13184000  1
  H  H25  1  0.44901500  0.17772500  0.86816000  1
  H  H26  1  0.05098500  0.82227500  0.36816000  1
  H  H27  1  0.55098500  0.67772500  0.63184000  1
  H  H28  1  0.05098500  0.67772500  0.86816000  1
  H  H29  1  0.55098500  0.82227500  0.13184000  1
  H  H30  1  0.94901500  0.17772500  0.63184000  1
  H  H31  1  0.44901500  0.32227500  0.36816000  1
  H  H32  1  0.77434000  0.25980700  0.30916700  1
  H  H33  1  0.27434000  0.24019300  0.69083300  1
  H  H34  1  0.22566000  0.75980700  0.19083300  1
  H  H35  1  0.72566000  0.74019300  0.80916700  1
  H  H36  1  0.22566000  0.74019300  0.69083300  1
  H  H37  1  0.72566000  0.75980700  0.30916700  1
  H  H38  1  0.77434000  0.24019300  0.80916700  1
  H  H39  1  0.27434000  0.25980700  0.19083300  1
  O  O40  1  0.37773400  0.09758000  0.83996200  1
  O  O41  1  0.87773400  0.40242000  0.16003800  1
  O  O42  1  0.62226600  0.59758000  0.66003800  1
  O  O43  1  0.12226600  0.90242000  0.33996200  1
  O  O44  1  0.62226600  0.90242000  0.16003800  1
  O  O45  1  0.12226600  0.59758000  0.83996200  1
  O  O46  1  0.37773400  0.40242000  0.33996200  1
  O  O47  1  0.87773400  0.09758000  0.66003800  1
  O  O48  1  0.48955400  0.16325100  0.43314800  1
  O  O49  1  0.98955400  0.33674900  0.56685200  1
  O  O50  1  0.51044600  0.66325100  0.06685200  1
  O  O51  1  0.01044600  0.83674900  0.93314800  1
  O  O52  1  0.51044600  0.83674900  0.56685200  1
  O  O53  1  0.01044600  0.66325100  0.43314800  1
  O  O54  1  0.48955400  0.33674900  0.93314800  1
  O  O55  1  0.98955400  0.16325100  0.06685200  1
  O  O56  1  0.81476300  0.05638200  0.45785500  1
  O  O57  1  0.31476300  0.44361800  0.54214500  1
  O  O58  1  0.18523700  0.55638200  0.04214500  1
  O  O59  1  0.68523700  0.94361800  0.95785500  1
  O  O60  1  0.18523700  0.94361800  0.54214500  1
  O  O61  1  0.68523700  0.55638200  0.45785500  1
  O  O62  1  0.81476300  0.44361800  0.95785500  1
  O  O63  1  0.31476300  0.05638200  0.04214500  1
  O  O64  1  0.59024300  0.88979800  0.34188800  1
  O  O65  1  0.09024300  0.61020200  0.65811200  1
  O  O66  1  0.40975700  0.38979800  0.15811200  1
  O  O67  1  0.90975700  0.11020200  0.84188800  1
  O  O68  1  0.40975700  0.11020200  0.65811200  1
  O  O69  1  0.90975700  0.38979800  0.34188800  1
  O  O70  1  0.59024300  0.61020200  0.84188800  1
  O  O71  1  0.09024300  0.88979800  0.15811200  1
  O  O72  1  0.71064300  0.16699300  0.28726900  1
  O  O73  1  0.21064300  0.33300700  0.71273100  1
  O  O74  1  0.28935700  0.66699300  0.21273100  1
  O  O75  1  0.78935700  0.83300700  0.78726900  1
  O  O76  1  0.28935700  0.83300700  0.71273100  1
  O  O77  1  0.78935700  0.66699300  0.28726900  1
  O  O78  1  0.71064300  0.33300700  0.78726900  1
  O  O79  1  0.21064300  0.16699300  0.21273100  1
