# generated using pymatgen
data_Na3PaF8
_symmetry_space_group_name_H-M   'P 1'
_cell_length_a   5.52772600
_cell_length_b   5.52772600
_cell_length_c   11.02122400
_cell_angle_alpha   90.00000000
_cell_angle_beta   90.00000000
_cell_angle_gamma   90.00000000
_symmetry_Int_Tables_number   1
_chemical_formula_structural   Na3PaF8
_chemical_formula_sum   'Na6 Pa2 F16'
_cell_volume   336.76181738
_cell_formula_units_Z   2
loop_
 _symmetry_equiv_pos_site_id
 _symmetry_equiv_pos_as_xyz
  1  'x, y, z'
loop_
 _atom_site_type_symbol
 _atom_site_label
 _atom_site_symmetry_multiplicity
 _atom_site_fract_x
 _atom_site_fract_y
 _atom_site_fract_z
 _atom_site_occupancy
  Na  Na0  1  0.50000000  0.00000000  0.25000000  1
  Na  Na1  1  0.00000000  0.50000000  0.25000000  1
  Na  Na2  1  0.50000000  0.50000000  0.00000000  1
  Na  Na3  1  0.00000000  0.50000000  0.75000000  1
  Na  Na4  1  0.50000000  0.00000000  0.75000000  1
  Na  Na5  1  0.00000000  0.00000000  0.50000000  1
  Pa  Pa6  1  0.00000000  0.00000000  0.00000000  1
  Pa  Pa7  1  0.50000000  0.50000000  0.50000000  1
  F  F8  1  0.76764700  0.76764700  0.11652800  1
  F  F9  1  0.26764700  0.26764700  0.38347200  1
  F  F10  1  0.73235300  0.73235300  0.38347200  1
  F  F11  1  0.26764700  0.73235300  0.38347200  1
  F  F12  1  0.23235300  0.23235300  0.11652800  1
  F  F13  1  0.76764700  0.23235300  0.11652800  1
  F  F14  1  0.23235300  0.76764700  0.11652800  1
  F  F15  1  0.73235300  0.26764700  0.38347200  1
  F  F16  1  0.26764700  0.26764700  0.61652800  1
  F  F17  1  0.76764700  0.76764700  0.88347200  1
  F  F18  1  0.23235300  0.23235300  0.88347200  1
  F  F19  1  0.76764700  0.23235300  0.88347200  1
  F  F20  1  0.73235300  0.73235300  0.61652800  1
  F  F21  1  0.26764700  0.73235300  0.61652800  1
  F  F22  1  0.73235300  0.26764700  0.61652800  1
  F  F23  1  0.23235300  0.76764700  0.88347200  1
