# generated using pymatgen
data_NClO6
_symmetry_space_group_name_H-M   'P 1'
_cell_length_a   9.28383800
_cell_length_b   7.22515200
_cell_length_c   7.37088606
_cell_angle_alpha   90.00000000
_cell_angle_beta   111.03703721
_cell_angle_gamma   90.00000000
_symmetry_Int_Tables_number   1
_chemical_formula_structural   NClO6
_chemical_formula_sum   'N4 Cl4 O24'
_cell_volume   461.46429958
_cell_formula_units_Z   4
loop_
 _symmetry_equiv_pos_site_id
 _symmetry_equiv_pos_as_xyz
  1  'x, y, z'
loop_
 _atom_site_type_symbol
 _atom_site_label
 _atom_site_symmetry_multiplicity
 _atom_site_fract_x
 _atom_site_fract_y
 _atom_site_fract_z
 _atom_site_occupancy
  N  N0  1  0.00000000  0.83354200  0.25000000  1
  N  N1  1  0.00000000  0.16645800  0.75000000  1
  N  N2  1  0.50000000  0.33354200  0.25000000  1
  N  N3  1  0.50000000  0.66645800  0.75000000  1
  Cl  Cl4  1  0.00000000  0.68074500  0.75000000  1
  Cl  Cl5  1  0.00000000  0.31925500  0.25000000  1
  Cl  Cl6  1  0.50000000  0.18074500  0.75000000  1
  Cl  Cl7  1  0.50000000  0.81925500  0.25000000  1
  O  O8  1  0.13095650  0.16627550  0.79311100  1
  O  O9  1  0.86904350  0.16627550  0.70688900  1
  O  O10  1  0.04959350  0.19844150  0.12255600  1
  O  O11  1  0.95040650  0.19844150  0.37744400  1
  O  O12  1  0.95040650  0.80155850  0.87744400  1
  O  O13  1  0.04959350  0.80155850  0.62255600  1
  O  O14  1  0.12836000  0.43456700  0.36637200  1
  O  O15  1  0.87164000  0.43456700  0.13362800  1
  O  O16  1  0.87164000  0.56543300  0.63362800  1
  O  O17  1  0.12836000  0.56543300  0.86637200  1
  O  O18  1  0.13095650  0.83372450  0.29311100  1
  O  O19  1  0.86904350  0.83372450  0.20688900  1
  O  O20  1  0.63095650  0.66627550  0.79311100  1
  O  O21  1  0.36904350  0.66627550  0.70688900  1
  O  O22  1  0.54959350  0.69844150  0.12255600  1
  O  O23  1  0.45040650  0.69844150  0.37744400  1
  O  O24  1  0.45040650  0.30155850  0.87744400  1
  O  O25  1  0.54959350  0.30155850  0.62255600  1
  O  O26  1  0.62836000  0.93456700  0.36637200  1
  O  O27  1  0.37164000  0.93456700  0.13362800  1
  O  O28  1  0.37164000  0.06543300  0.63362800  1
  O  O29  1  0.62836000  0.06543300  0.86637200  1
  O  O30  1  0.63095650  0.33372450  0.29311100  1
  O  O31  1  0.36904350  0.33372450  0.20688900  1
