# generated using pymatgen
data_CaP2(HO)4
_symmetry_space_group_name_H-M   'P 1'
_cell_length_a   15.25187000
_cell_length_b   5.73254400
_cell_length_c   6.75532736
_cell_angle_alpha   90.00000000
_cell_angle_beta   102.11709745
_cell_angle_gamma   90.00000000
_symmetry_Int_Tables_number   1
_chemical_formula_structural   CaP2(HO)4
_chemical_formula_sum   'Ca4 P8 H16 O16'
_cell_volume   577.47298927
_cell_formula_units_Z   4
loop_
 _symmetry_equiv_pos_site_id
 _symmetry_equiv_pos_as_xyz
  1  'x, y, z'
loop_
 _atom_site_type_symbol
 _atom_site_label
 _atom_site_symmetry_multiplicity
 _atom_site_fract_x
 _atom_site_fract_y
 _atom_site_fract_z
 _atom_site_occupancy
  Ca  Ca0  1  0.00000000  0.83275700  0.75000000  1
  Ca  Ca1  1  0.00000000  0.16724300  0.25000000  1
  Ca  Ca2  1  0.50000000  0.33275700  0.75000000  1
  Ca  Ca3  1  0.50000000  0.66724300  0.25000000  1
  P  P4  1  0.64147450  0.81690950  0.71842500  1
  P  P5  1  0.85852550  0.31690950  0.78157500  1
  P  P6  1  0.85852550  0.68309050  0.28157500  1
  P  P7  1  0.64147450  0.18309050  0.21842500  1
  P  P8  1  0.14147450  0.31690950  0.71842500  1
  P  P9  1  0.35852550  0.81690950  0.78157500  1
  P  P10  1  0.35852550  0.18309050  0.28157500  1
  P  P11  1  0.14147450  0.68309050  0.21842500  1
  H  H12  1  0.72014250  0.81321950  0.63746900  1
  H  H13  1  0.77985750  0.31321950  0.86253100  1
  H  H14  1  0.77985750  0.68678050  0.36253100  1
  H  H15  1  0.72014250  0.18678050  0.13746900  1
  H  H16  1  0.67103800  0.72809500  0.91741000  1
  H  H17  1  0.82896200  0.22809500  0.58259000  1
  H  H18  1  0.82896200  0.77190500  0.08259000  1
  H  H19  1  0.67103800  0.27190500  0.41741000  1
  H  H20  1  0.22014250  0.31321950  0.63746900  1
  H  H21  1  0.27985750  0.81321950  0.86253100  1
  H  H22  1  0.27985750  0.18678050  0.36253100  1
  H  H23  1  0.22014250  0.68678050  0.13746900  1
  H  H24  1  0.17103800  0.22809500  0.91741000  1
  H  H25  1  0.32896200  0.72809500  0.58259000  1
  H  H26  1  0.32896200  0.27190500  0.08259000  1
  H  H27  1  0.17103800  0.77190500  0.41741000  1
  O  O28  1  0.92516050  0.13836750  0.89770800  1
  O  O29  1  0.57483950  0.63836750  0.60229200  1
  O  O30  1  0.61041050  0.93336550  0.22896000  1
  O  O31  1  0.88958950  0.43336550  0.27104000  1
  O  O32  1  0.88958950  0.56663450  0.77104000  1
  O  O33  1  0.61041050  0.06663450  0.72896000  1
  O  O34  1  0.92516050  0.86163250  0.39770800  1
  O  O35  1  0.57483950  0.36163250  0.10229200  1
  O  O36  1  0.42516050  0.63836750  0.89770800  1
  O  O37  1  0.07483950  0.13836750  0.60229200  1
  O  O38  1  0.11041050  0.43336550  0.22896000  1
  O  O39  1  0.38958950  0.93336550  0.27104000  1
  O  O40  1  0.38958950  0.06663450  0.77104000  1
  O  O41  1  0.11041050  0.56663450  0.72896000  1
  O  O42  1  0.42516050  0.36163250  0.39770800  1
  O  O43  1  0.07483950  0.86163250  0.10229200  1
