# generated using pymatgen
data_VPCl9
_symmetry_space_group_name_H-M   'P 1'
_cell_length_a   12.34505800
_cell_length_b   16.95684800
_cell_length_c   6.43891700
_cell_angle_alpha   90.00000000
_cell_angle_beta   90.00000000
_cell_angle_gamma   90.00000000
_symmetry_Int_Tables_number   1
_chemical_formula_structural   VPCl9
_chemical_formula_sum   'V4 P4 Cl36'
_cell_volume   1347.87956411
_cell_formula_units_Z   4
loop_
 _symmetry_equiv_pos_site_id
 _symmetry_equiv_pos_as_xyz
  1  'x, y, z'
loop_
 _atom_site_type_symbol
 _atom_site_label
 _atom_site_symmetry_multiplicity
 _atom_site_fract_x
 _atom_site_fract_y
 _atom_site_fract_z
 _atom_site_occupancy
  V  V0  1  0.50000000  0.75000000  0.61335900  1
  V  V1  1  0.50000000  0.25000000  0.38664100  1
  V  V2  1  0.00000000  0.25000000  0.61335900  1
  V  V3  1  0.00000000  0.75000000  0.38664100  1
  P  P4  1  0.75000000  0.00000000  0.00000000  1
  P  P5  1  0.25000000  0.00000000  0.00000000  1
  P  P6  1  0.25000000  0.50000000  0.00000000  1
  P  P7  1  0.75000000  0.50000000  0.00000000  1
  Cl  Cl8  1  0.15813800  0.93363100  0.82264600  1
  Cl  Cl9  1  0.34186200  0.93363100  0.17735400  1
  Cl  Cl10  1  0.65809300  0.75000000  0.76773600  1
  Cl  Cl11  1  0.34190700  0.25000000  0.23226400  1
  Cl  Cl12  1  0.65809300  0.25000000  0.23226400  1
  Cl  Cl13  1  0.34190700  0.75000000  0.76773600  1
  Cl  Cl14  1  0.50000000  0.75000000  0.26980900  1
  Cl  Cl15  1  0.50000000  0.25000000  0.73019100  1
  Cl  Cl16  1  0.50000000  0.38751100  0.39152100  1
  Cl  Cl17  1  0.50000000  0.88751100  0.60847900  1
  Cl  Cl18  1  0.50000000  0.11248900  0.39152100  1
  Cl  Cl19  1  0.50000000  0.61248900  0.60847900  1
  Cl  Cl20  1  0.34186200  0.06636900  0.82264600  1
  Cl  Cl21  1  0.15813800  0.06636900  0.17735400  1
  Cl  Cl22  1  0.84186200  0.06636900  0.17735400  1
  Cl  Cl23  1  0.65813800  0.06636900  0.82264600  1
  Cl  Cl24  1  0.84186200  0.93363100  0.82264600  1
  Cl  Cl25  1  0.65813800  0.93363100  0.17735400  1
  Cl  Cl26  1  0.65813800  0.43363100  0.82264600  1
  Cl  Cl27  1  0.84186200  0.43363100  0.17735400  1
  Cl  Cl28  1  0.15809300  0.25000000  0.76773600  1
  Cl  Cl29  1  0.84190700  0.75000000  0.23226400  1
  Cl  Cl30  1  0.15809300  0.75000000  0.23226400  1
  Cl  Cl31  1  0.84190700  0.25000000  0.76773600  1
  Cl  Cl32  1  0.00000000  0.25000000  0.26980900  1
  Cl  Cl33  1  0.00000000  0.75000000  0.73019100  1
  Cl  Cl34  1  0.00000000  0.88751100  0.39152100  1
  Cl  Cl35  1  0.00000000  0.38751100  0.60847900  1
  Cl  Cl36  1  0.00000000  0.61248900  0.39152100  1
  Cl  Cl37  1  0.00000000  0.11248900  0.60847900  1
  Cl  Cl38  1  0.84186200  0.56636900  0.82264600  1
  Cl  Cl39  1  0.65813800  0.56636900  0.17735400  1
  Cl  Cl40  1  0.34186200  0.56636900  0.17735400  1
  Cl  Cl41  1  0.15813800  0.56636900  0.82264600  1
  Cl  Cl42  1  0.34186200  0.43363100  0.82264600  1
  Cl  Cl43  1  0.15813800  0.43363100  0.17735400  1
