# generated using pymatgen
data_GaCuI4
_symmetry_space_group_name_H-M   'P 1'
_cell_length_a   6.50761800
_cell_length_b   6.50761800
_cell_length_c   11.45748200
_cell_angle_alpha   90.00000000
_cell_angle_beta   90.00000000
_cell_angle_gamma   90.00000000
_symmetry_Int_Tables_number   1
_chemical_formula_structural   GaCuI4
_chemical_formula_sum   'Ga2 Cu2 I8'
_cell_volume   485.21395970
_cell_formula_units_Z   2
loop_
 _symmetry_equiv_pos_site_id
 _symmetry_equiv_pos_as_xyz
  1  'x, y, z'
loop_
 _atom_site_type_symbol
 _atom_site_label
 _atom_site_symmetry_multiplicity
 _atom_site_fract_x
 _atom_site_fract_y
 _atom_site_fract_z
 _atom_site_occupancy
  Ga  Ga0  1  0.50000000  0.00000000  0.25000000  1
  Ga  Ga1  1  0.00000000  0.50000000  0.75000000  1
  Cu  Cu2  1  0.50000000  0.50000000  0.00000000  1
  Cu  Cu3  1  0.00000000  0.00000000  0.50000000  1
  I  I4  1  0.74425200  0.22568600  0.37770600  1
  I  I5  1  0.72568600  0.75574800  0.12229400  1
  I  I6  1  0.27431400  0.24425200  0.12229400  1
  I  I7  1  0.25574800  0.77431400  0.37770600  1
  I  I8  1  0.24425200  0.72568600  0.87770600  1
  I  I9  1  0.22568600  0.25574800  0.62229400  1
  I  I10  1  0.77431400  0.74425200  0.62229400  1
  I  I11  1  0.75574800  0.27431400  0.87770600  1
