# generated using pymatgen
data_InPb2I5
_symmetry_space_group_name_H-M   'P 1'
_cell_length_a   9.01014200
_cell_length_b   9.01014200
_cell_length_c   15.57249800
_cell_angle_alpha   90.00000000
_cell_angle_beta   90.00000000
_cell_angle_gamma   90.00000000
_symmetry_Int_Tables_number   1
_chemical_formula_structural   InPb2I5
_chemical_formula_sum   'In4 Pb8 I20'
_cell_volume   1264.21679273
_cell_formula_units_Z   4
loop_
 _symmetry_equiv_pos_site_id
 _symmetry_equiv_pos_as_xyz
  1  'x, y, z'
loop_
 _atom_site_type_symbol
 _atom_site_label
 _atom_site_symmetry_multiplicity
 _atom_site_fract_x
 _atom_site_fract_y
 _atom_site_fract_z
 _atom_site_occupancy
  In  In0  1  0.00000000  0.00000000  0.25000000  1
  In  In1  1  0.50000000  0.50000000  0.25000000  1
  In  In2  1  0.50000000  0.50000000  0.75000000  1
  In  In3  1  0.00000000  0.00000000  0.75000000  1
  Pb  Pb4  1  0.16337800  0.66337800  0.00000000  1
  Pb  Pb5  1  0.83662200  0.33662200  0.00000000  1
  Pb  Pb6  1  0.66337800  0.83662200  0.00000000  1
  Pb  Pb7  1  0.33662200  0.16337800  0.00000000  1
  Pb  Pb8  1  0.66337800  0.16337800  0.50000000  1
  Pb  Pb9  1  0.33662200  0.83662200  0.50000000  1
  Pb  Pb10  1  0.16337800  0.33662200  0.50000000  1
  Pb  Pb11  1  0.83662200  0.66337800  0.50000000  1
  I  I12  1  0.65646100  0.15646100  0.13921400  1
  I  I13  1  0.84353900  0.34353900  0.36078600  1
  I  I14  1  0.34353900  0.84353900  0.13921400  1
  I  I15  1  0.15646100  0.65646100  0.36078600  1
  I  I16  1  0.00000000  0.00000000  0.00000000  1
  I  I17  1  0.50000000  0.50000000  0.00000000  1
  I  I18  1  0.34353900  0.15646100  0.36078600  1
  I  I19  1  0.15646100  0.34353900  0.13921400  1
  I  I20  1  0.65646100  0.84353900  0.36078600  1
  I  I21  1  0.84353900  0.65646100  0.13921400  1
  I  I22  1  0.15646100  0.65646100  0.63921400  1
  I  I23  1  0.34353900  0.84353900  0.86078600  1
  I  I24  1  0.84353900  0.34353900  0.63921400  1
  I  I25  1  0.65646100  0.15646100  0.86078600  1
  I  I26  1  0.50000000  0.50000000  0.50000000  1
  I  I27  1  0.00000000  0.00000000  0.50000000  1
  I  I28  1  0.84353900  0.65646100  0.86078600  1
  I  I29  1  0.65646100  0.84353900  0.63921400  1
  I  I30  1  0.15646100  0.34353900  0.86078600  1
  I  I31  1  0.34353900  0.15646100  0.63921400  1
