# generated using pymatgen
data_Rb2CuH12(SO7)2
_symmetry_space_group_name_H-M   'P 1'
_cell_length_a   6.27631700
_cell_length_b   12.50697400
_cell_length_c   9.31561541
_cell_angle_alpha   90.00000000
_cell_angle_beta   104.67089578
_cell_angle_gamma   90.00000000
_symmetry_Int_Tables_number   1
_chemical_formula_structural   Rb2CuH12(SO7)2
_chemical_formula_sum   'Rb4 Cu2 H24 S4 O28'
_cell_volume   707.41325386
_cell_formula_units_Z   2
loop_
 _symmetry_equiv_pos_site_id
 _symmetry_equiv_pos_as_xyz
  1  'x, y, z'
loop_
 _atom_site_type_symbol
 _atom_site_label
 _atom_site_symmetry_multiplicity
 _atom_site_fract_x
 _atom_site_fract_y
 _atom_site_fract_z
 _atom_site_occupancy
  Rb  Rb0  1  0.34705700  0.64951100  0.11912500  1
  Rb  Rb1  1  0.65294300  0.14951100  0.38087500  1
  Rb  Rb2  1  0.65294300  0.35048900  0.88087500  1
  Rb  Rb3  1  0.34705700  0.85048900  0.61912500  1
  Cu  Cu4  1  0.00000000  0.50000000  0.50000000  1
  Cu  Cu5  1  0.00000000  0.00000000  0.00000000  1
  H  H6  1  0.30787000  0.35955700  0.53267000  1
  H  H7  1  0.69213000  0.85955700  0.96733000  1
  H  H8  1  0.69213000  0.64044300  0.46733000  1
  H  H9  1  0.30787000  0.14044300  0.03267000  1
  H  H10  1  0.32367500  0.43771800  0.39969400  1
  H  H11  1  0.67632500  0.93771800  0.10030600  1
  H  H12  1  0.92174900  0.60391400  0.20514400  1
  H  H13  1  0.07825100  0.10391400  0.29485600  1
  H  H14  1  0.07825100  0.39608600  0.79485600  1
  H  H15  1  0.92174900  0.89608600  0.70514400  1
  H  H16  1  0.08200800  0.62343700  0.73082200  1
  H  H17  1  0.91799200  0.12343700  0.76917800  1
  H  H18  1  0.91799200  0.37656300  0.26917800  1
  H  H19  1  0.08200800  0.87656300  0.23082200  1
  H  H20  1  0.31554000  0.59068800  0.69820000  1
  H  H21  1  0.00817700  0.30696300  0.67240100  1
  H  H22  1  0.68446000  0.09068800  0.80180000  1
  H  H23  1  0.68446000  0.40931200  0.30180000  1
  H  H24  1  0.31554000  0.90931200  0.19820000  1
  H  H25  1  0.00817700  0.19303700  0.17240100  1
  H  H26  1  0.99182300  0.69303700  0.32759900  1
  H  H27  1  0.32367500  0.06228200  0.89969400  1
  H  H28  1  0.67632500  0.56228200  0.60030600  1
  H  H29  1  0.99182300  0.80696300  0.82759900  1
  S  S30  1  0.27264300  0.14064200  0.61163100  1
  S  S31  1  0.72735700  0.64064200  0.88836900  1
  S  S32  1  0.72735700  0.85935800  0.38836900  1
  S  S33  1  0.27264300  0.35935800  0.11163100  1
  O  O34  1  0.84087900  0.38930200  0.34891700  1
  O  O35  1  0.84087900  0.11069800  0.84891700  1
  O  O36  1  0.02691500  0.88058600  0.80182000  1
  O  O37  1  0.97308500  0.38058600  0.69818000  1
  O  O38  1  0.97308500  0.11941400  0.19818000  1
  O  O39  1  0.02691500  0.61941400  0.30182000  1
  O  O40  1  0.15912100  0.88930200  0.15108300  1
  O  O41  1  0.94610700  0.67002800  0.86211900  1
  O  O42  1  0.05389300  0.17002800  0.63788100  1
  O  O43  1  0.05389300  0.32997200  0.13788100  1
  O  O44  1  0.28585100  0.06448700  0.99791900  1
  O  O45  1  0.71414900  0.56448700  0.50208100  1
  O  O46  1  0.71414900  0.93551300  0.00208100  1
  O  O47  1  0.28585100  0.43551300  0.49791900  1
  O  O48  1  0.94610700  0.82997200  0.36211900  1
  O  O49  1  0.59904800  0.57497400  0.75975700  1
  O  O50  1  0.40095200  0.07497400  0.74024300  1
  O  O51  1  0.59904800  0.92502600  0.25975700  1
  O  O52  1  0.75752600  0.57623000  0.02584500  1
  O  O53  1  0.24247400  0.07623000  0.47415500  1
  O  O54  1  0.24247400  0.42377000  0.97415500  1
  O  O55  1  0.75752600  0.92377000  0.52584500  1
  O  O56  1  0.40095200  0.42502600  0.24024300  1
  O  O57  1  0.40100300  0.23970800  0.60124900  1
  O  O58  1  0.40100300  0.26029200  0.10124900  1
  O  O59  1  0.59899700  0.76029200  0.39875100  1
  O  O60  1  0.15912100  0.61069800  0.65108300  1
  O  O61  1  0.59899700  0.73970800  0.89875100  1
