# generated using pymatgen
data_NbXeF11
_symmetry_space_group_name_H-M   'P 1'
_cell_length_a   5.58541100
_cell_length_b   8.88638300
_cell_length_c   17.49919400
_cell_angle_alpha   90.00000000
_cell_angle_beta   90.00000000
_cell_angle_gamma   90.00000000
_symmetry_Int_Tables_number   1
_chemical_formula_structural   NbXeF11
_chemical_formula_sum   'Nb4 Xe4 F44'
_cell_volume   868.55676869
_cell_formula_units_Z   4
loop_
 _symmetry_equiv_pos_site_id
 _symmetry_equiv_pos_as_xyz
  1  'x, y, z'
loop_
 _atom_site_type_symbol
 _atom_site_label
 _atom_site_symmetry_multiplicity
 _atom_site_fract_x
 _atom_site_fract_y
 _atom_site_fract_z
 _atom_site_occupancy
  Nb  Nb0  1  0.71521000  0.75000000  0.95538300  1
  Nb  Nb1  1  0.21521000  0.25000000  0.54461700  1
  Nb  Nb2  1  0.28479000  0.25000000  0.04461700  1
  Nb  Nb3  1  0.78479000  0.75000000  0.45538300  1
  Xe  Xe4  1  0.20483900  0.75000000  0.14871300  1
  Xe  Xe5  1  0.70483900  0.25000000  0.35128700  1
  Xe  Xe6  1  0.79516100  0.25000000  0.85128700  1
  Xe  Xe7  1  0.29516100  0.75000000  0.64871300  1
  F  F8  1  0.13833700  0.75000000  0.25908000  1
  F  F9  1  0.63833700  0.25000000  0.24092000  1
  F  F10  1  0.86166300  0.25000000  0.74092000  1
  F  F11  1  0.36166300  0.75000000  0.75908000  1
  F  F12  1  0.56612000  0.40764600  0.81724400  1
  F  F13  1  0.06612000  0.59235400  0.68275600  1
  F  F14  1  0.43388000  0.90764600  0.18275600  1
  F  F15  1  0.93388000  0.09235400  0.31724400  1
  F  F16  1  0.76565400  0.53501200  0.46246200  1
  F  F17  1  0.26565400  0.46498800  0.03753800  1
  F  F18  1  0.23434600  0.03501200  0.53753800  1
  F  F19  1  0.73434600  0.96498800  0.96246200  1
  F  F20  1  0.23434600  0.46498800  0.53753800  1
  F  F21  1  0.73434600  0.53501200  0.96246200  1
  F  F22  1  0.76565400  0.96498800  0.46246200  1
  F  F23  1  0.26565400  0.03501200  0.03753800  1
  F  F24  1  0.48870600  0.75000000  0.52323600  1
  F  F25  1  0.98870600  0.25000000  0.97676400  1
  F  F26  1  0.51129400  0.25000000  0.47676400  1
  F  F27  1  0.01129400  0.75000000  0.02323600  1
  F  F28  1  0.08639900  0.75000000  0.40724900  1
  F  F29  1  0.58639900  0.25000000  0.09275100  1
  F  F30  1  0.91360100  0.25000000  0.59275100  1
  F  F31  1  0.41360100  0.75000000  0.90724900  1
  F  F32  1  0.61392100  0.75000000  0.36258000  1
  F  F33  1  0.11392100  0.25000000  0.13742000  1
  F  F34  1  0.38607900  0.25000000  0.63742000  1
  F  F35  1  0.88607900  0.75000000  0.86258000  1
  F  F36  1  0.97218100  0.75000000  0.55575200  1
  F  F37  1  0.47218100  0.25000000  0.94424800  1
  F  F38  1  0.02781900  0.25000000  0.44424800  1
  F  F39  1  0.52781900  0.75000000  0.05575200  1
  F  F40  1  0.54629500  0.90823200  0.65336600  1
  F  F41  1  0.04629500  0.09176800  0.84663400  1
  F  F42  1  0.45370500  0.40823200  0.34663400  1
  F  F43  1  0.95370500  0.59176800  0.15336600  1
  F  F44  1  0.45370500  0.09176800  0.34663400  1
  F  F45  1  0.95370500  0.90823200  0.15336600  1
  F  F46  1  0.54629500  0.59176800  0.65336600  1
  F  F47  1  0.04629500  0.40823200  0.84663400  1
  F  F48  1  0.06612000  0.90764600  0.68275600  1
  F  F49  1  0.56612000  0.09235400  0.81724400  1
  F  F50  1  0.93388000  0.40764600  0.31724400  1
  F  F51  1  0.43388000  0.59235400  0.18275600  1
