# generated using pymatgen
data_Hg2P3Br
_symmetry_space_group_name_H-M   'P 1'
_cell_length_a   7.94373100
_cell_length_b   8.17182400
_cell_length_c   9.13922200
_cell_angle_alpha   90.00000000
_cell_angle_beta   90.00000000
_cell_angle_gamma   90.00000000
_symmetry_Int_Tables_number   1
_chemical_formula_structural   Hg2P3Br
_chemical_formula_sum   'Hg8 P12 Br4'
_cell_volume   593.27050905
_cell_formula_units_Z   4
loop_
 _symmetry_equiv_pos_site_id
 _symmetry_equiv_pos_as_xyz
  1  'x, y, z'
loop_
 _atom_site_type_symbol
 _atom_site_label
 _atom_site_symmetry_multiplicity
 _atom_site_fract_x
 _atom_site_fract_y
 _atom_site_fract_z
 _atom_site_occupancy
  Hg  Hg0  1  0.89292700  0.21691600  0.67192700  1
  Hg  Hg1  1  0.60707300  0.78308400  0.67192700  1
  Hg  Hg2  1  0.10707300  0.71691600  0.82807300  1
  Hg  Hg3  1  0.39292700  0.28308400  0.82807300  1
  Hg  Hg4  1  0.89292700  0.28308400  0.17192700  1
  Hg  Hg5  1  0.39292700  0.21691600  0.32807300  1
  Hg  Hg6  1  0.10707300  0.78308400  0.32807300  1
  Hg  Hg7  1  0.60707300  0.71691600  0.17192700  1
  P  P8  1  0.07772200  0.11168300  0.01592900  1
  P  P9  1  0.57772200  0.38831700  0.48407100  1
  P  P10  1  0.92227800  0.61168300  0.48407100  1
  P  P11  1  0.42227800  0.88831700  0.01592900  1
  P  P12  1  0.92227800  0.88831700  0.98407100  1
  P  P13  1  0.42227800  0.61168300  0.51592900  1
  P  P14  1  0.07772200  0.38831700  0.51592900  1
  P  P15  1  0.25000000  0.00000000  0.17858900  1
  P  P16  1  0.25000000  0.50000000  0.67858900  1
  P  P17  1  0.75000000  0.00000000  0.82141100  1
  P  P18  1  0.75000000  0.50000000  0.32141100  1
  P  P19  1  0.57772200  0.11168300  0.98407100  1
  Br  Br20  1  0.25000000  0.50000000  0.11357000  1
  Br  Br21  1  0.75000000  0.50000000  0.88643000  1
  Br  Br22  1  0.75000000  0.00000000  0.38643000  1
  Br  Br23  1  0.25000000  0.00000000  0.61357000  1
