# generated using pymatgen
data_ZnCN2
_symmetry_space_group_name_H-M   'P 1'
_cell_length_a   8.99961000
_cell_length_b   8.99961000
_cell_length_c   5.41808000
_cell_angle_alpha   90.00000000
_cell_angle_beta   90.00000000
_cell_angle_gamma   90.00000000
_symmetry_Int_Tables_number   1
_chemical_formula_structural   ZnCN2
_chemical_formula_sum   'Zn8 C8 N16'
_cell_volume   438.82644590
_cell_formula_units_Z   8
loop_
 _symmetry_equiv_pos_site_id
 _symmetry_equiv_pos_as_xyz
  1  'x, y, z'
loop_
 _atom_site_type_symbol
 _atom_site_label
 _atom_site_symmetry_multiplicity
 _atom_site_fract_x
 _atom_site_fract_y
 _atom_site_fract_z
 _atom_site_occupancy
  Zn  Zn0  1  0.04668600  0.75000000  0.87500000  1
  Zn  Zn1  1  0.25000000  0.04668600  0.12500000  1
  Zn  Zn2  1  0.75000000  0.95331400  0.12500000  1
  Zn  Zn3  1  0.95331400  0.25000000  0.87500000  1
  Zn  Zn4  1  0.54668600  0.25000000  0.37500000  1
  Zn  Zn5  1  0.75000000  0.54668600  0.62500000  1
  Zn  Zn6  1  0.25000000  0.45331400  0.62500000  1
  Zn  Zn7  1  0.45331400  0.75000000  0.37500000  1
  C  C8  1  0.07114000  0.25000000  0.37500000  1
  C  C9  1  0.75000000  0.07114000  0.62500000  1
  C  C10  1  0.92886000  0.75000000  0.37500000  1
  C  C11  1  0.25000000  0.92886000  0.62500000  1
  C  C12  1  0.57114000  0.75000000  0.87500000  1
  C  C13  1  0.25000000  0.57114000  0.12500000  1
  C  C14  1  0.42886000  0.25000000  0.87500000  1
  C  C15  1  0.75000000  0.42886000  0.12500000  1
  N  N16  1  0.19090300  0.92524600  0.83026000  1
  N  N17  1  0.92524600  0.80909700  0.16974000  1
  N  N18  1  0.80909700  0.07475400  0.83026000  1
  N  N19  1  0.07475400  0.19090300  0.16974000  1
  N  N20  1  0.30909700  0.92524600  0.41974000  1
  N  N21  1  0.07475400  0.30909700  0.58026000  1
  N  N22  1  0.92524600  0.69090300  0.58026000  1
  N  N23  1  0.69090300  0.07475400  0.41974000  1
  N  N24  1  0.69090300  0.42524600  0.33026000  1
  N  N25  1  0.42524600  0.30909700  0.66974000  1
  N  N26  1  0.30909700  0.57475400  0.33026000  1
  N  N27  1  0.57475400  0.69090300  0.66974000  1
  N  N28  1  0.80909700  0.42524600  0.91974000  1
  N  N29  1  0.57475400  0.80909700  0.08026000  1
  N  N30  1  0.42524600  0.19090300  0.08026000  1
  N  N31  1  0.19090300  0.57475400  0.91974000  1
