# generated using pymatgen
data_Bi2TeO6
_symmetry_space_group_name_H-M   'P 1'
_cell_length_a   5.45439400
_cell_length_b   16.83959400
_cell_length_c   5.45762500
_cell_angle_alpha   90.00000000
_cell_angle_beta   90.00000000
_cell_angle_gamma   90.00000000
_symmetry_Int_Tables_number   1
_chemical_formula_structural   Bi2TeO6
_chemical_formula_sum   'Bi8 Te4 O24'
_cell_volume   501.28165817
_cell_formula_units_Z   4
loop_
 _symmetry_equiv_pos_site_id
 _symmetry_equiv_pos_as_xyz
  1  'x, y, z'
loop_
 _atom_site_type_symbol
 _atom_site_label
 _atom_site_symmetry_multiplicity
 _atom_site_fract_x
 _atom_site_fract_y
 _atom_site_fract_z
 _atom_site_occupancy
  Bi  Bi0  1  0.00000000  0.67319700  0.01109200  1
  Bi  Bi1  1  0.00000000  0.82680300  0.51109200  1
  Bi  Bi2  1  0.50000000  0.82680300  0.98890800  1
  Bi  Bi3  1  0.50000000  0.67319700  0.48890800  1
  Bi  Bi4  1  0.50000000  0.17319700  0.01109200  1
  Bi  Bi5  1  0.50000000  0.32680300  0.51109200  1
  Bi  Bi6  1  0.00000000  0.32680300  0.98890800  1
  Bi  Bi7  1  0.00000000  0.17319700  0.48890800  1
  Te  Te8  1  0.50000000  0.00000000  0.50000000  1
  Te  Te9  1  0.00000000  0.00000000  0.00000000  1
  Te  Te10  1  0.00000000  0.50000000  0.50000000  1
  Te  Te11  1  0.50000000  0.50000000  0.00000000  1
  O  O12  1  0.00000000  0.60918100  0.41546800  1
  O  O13  1  0.00000000  0.89081900  0.91546800  1
  O  O14  1  0.50000000  0.89081900  0.58453200  1
  O  O15  1  0.50000000  0.60918100  0.08453200  1
  O  O16  1  0.75000000  0.96784500  0.25000000  1
  O  O17  1  0.25000000  0.53215500  0.75000000  1
  O  O18  1  0.25000000  0.75039800  0.75000000  1
  O  O19  1  0.75000000  0.74960200  0.25000000  1
  O  O20  1  0.25000000  0.74960200  0.25000000  1
  O  O21  1  0.75000000  0.75039800  0.75000000  1
  O  O22  1  0.25000000  0.96784500  0.25000000  1
  O  O23  1  0.75000000  0.53215500  0.75000000  1
  O  O24  1  0.50000000  0.10918100  0.41546800  1
  O  O25  1  0.50000000  0.39081900  0.91546800  1
  O  O26  1  0.00000000  0.39081900  0.58453200  1
  O  O27  1  0.00000000  0.10918100  0.08453200  1
  O  O28  1  0.25000000  0.46784500  0.25000000  1
  O  O29  1  0.75000000  0.03215500  0.75000000  1
  O  O30  1  0.75000000  0.25039800  0.75000000  1
  O  O31  1  0.25000000  0.24960200  0.25000000  1
  O  O32  1  0.75000000  0.24960200  0.25000000  1
  O  O33  1  0.25000000  0.25039800  0.75000000  1
  O  O34  1  0.75000000  0.46784500  0.25000000  1
  O  O35  1  0.25000000  0.03215500  0.75000000  1
