# generated using pymatgen
data_K2CuF4
_symmetry_space_group_name_H-M   'P 1'
_cell_length_a   5.93524200
_cell_length_b   5.93524200
_cell_length_c   25.78958800
_cell_angle_alpha   90.00000000
_cell_angle_beta   90.00000000
_cell_angle_gamma   90.00000000
_symmetry_Int_Tables_number   1
_chemical_formula_structural   K2CuF4
_chemical_formula_sum   'K16 Cu8 F32'
_cell_volume   908.49233350
_cell_formula_units_Z   8
loop_
 _symmetry_equiv_pos_site_id
 _symmetry_equiv_pos_as_xyz
  1  'x, y, z'
loop_
 _atom_site_type_symbol
 _atom_site_label
 _atom_site_symmetry_multiplicity
 _atom_site_fract_x
 _atom_site_fract_y
 _atom_site_fract_z
 _atom_site_occupancy
  K  K0  1  0.00000000  0.00000000  0.42895800  1
  K  K1  1  0.50000000  0.50000000  0.07104200  1
  K  K2  1  0.00000000  0.00000000  0.07104200  1
  K  K3  1  0.50000000  0.50000000  0.42895800  1
  K  K4  1  0.50000000  0.00000000  0.32104200  1
  K  K5  1  0.50000000  0.00000000  0.17895800  1
  K  K6  1  0.00000000  0.50000000  0.17895800  1
  K  K7  1  0.00000000  0.50000000  0.32104200  1
  K  K8  1  0.50000000  0.50000000  0.92895800  1
  K  K9  1  0.00000000  0.00000000  0.57104200  1
  K  K10  1  0.50000000  0.50000000  0.57104200  1
  K  K11  1  0.00000000  0.00000000  0.92895800  1
  K  K12  1  0.00000000  0.50000000  0.82104200  1
  K  K13  1  0.00000000  0.50000000  0.67895800  1
  K  K14  1  0.50000000  0.00000000  0.67895800  1
  K  K15  1  0.50000000  0.00000000  0.82104200  1
  Cu  Cu16  1  0.00000000  0.00000000  0.25000000  1
  Cu  Cu17  1  0.50000000  0.50000000  0.25000000  1
  Cu  Cu18  1  0.00000000  0.50000000  0.00000000  1
  Cu  Cu19  1  0.50000000  0.00000000  0.00000000  1
  Cu  Cu20  1  0.50000000  0.50000000  0.75000000  1
  Cu  Cu21  1  0.00000000  0.00000000  0.75000000  1
  Cu  Cu22  1  0.50000000  0.00000000  0.50000000  1
  Cu  Cu23  1  0.00000000  0.50000000  0.50000000  1
  F  F24  1  0.73188500  0.26811500  0.25000000  1
  F  F25  1  0.76811500  0.76811500  0.25000000  1
  F  F26  1  0.23188500  0.23188500  0.25000000  1
  F  F27  1  0.26811500  0.73188500  0.25000000  1
  F  F28  1  0.73188500  0.76811500  0.00000000  1
  F  F29  1  0.26811500  0.76811500  0.50000000  1
  F  F30  1  0.23188500  0.73188500  0.00000000  1
  F  F31  1  0.26811500  0.23188500  0.00000000  1
  F  F32  1  0.00000000  0.00000000  0.32677000  1
  F  F33  1  0.50000000  0.50000000  0.17323000  1
  F  F34  1  0.00000000  0.00000000  0.17323000  1
  F  F35  1  0.50000000  0.50000000  0.32677000  1
  F  F36  1  0.00000000  0.50000000  0.42323000  1
  F  F37  1  0.00000000  0.50000000  0.07677000  1
  F  F38  1  0.50000000  0.00000000  0.07677000  1
  F  F39  1  0.50000000  0.00000000  0.42323000  1
  F  F40  1  0.23188500  0.76811500  0.75000000  1
  F  F41  1  0.26811500  0.26811500  0.75000000  1
  F  F42  1  0.73188500  0.73188500  0.75000000  1
  F  F43  1  0.76811500  0.23188500  0.75000000  1
  F  F44  1  0.23188500  0.26811500  0.50000000  1
  F  F45  1  0.76811500  0.26811500  0.00000000  1
  F  F46  1  0.73188500  0.23188500  0.50000000  1
  F  F47  1  0.76811500  0.73188500  0.50000000  1
  F  F48  1  0.50000000  0.50000000  0.82677000  1
  F  F49  1  0.00000000  0.00000000  0.67323000  1
  F  F50  1  0.50000000  0.50000000  0.67323000  1
  F  F51  1  0.00000000  0.00000000  0.82677000  1
  F  F52  1  0.50000000  0.00000000  0.92323000  1
  F  F53  1  0.50000000  0.00000000  0.57677000  1
  F  F54  1  0.00000000  0.50000000  0.57677000  1
  F  F55  1  0.00000000  0.50000000  0.92323000  1
