# generated using pymatgen
data_NdH3(CO2)3
_symmetry_space_group_name_H-M   'P 1'
_cell_length_a   10.70024165
_cell_length_b   10.70024165
_cell_length_c   4.12235187
_cell_angle_alpha   90.00000000
_cell_angle_beta   90.00000000
_cell_angle_gamma   120.00000000
_symmetry_Int_Tables_number   1
_chemical_formula_structural   NdH3(CO2)3
_chemical_formula_sum   'Nd3 H9 C9 O18'
_cell_volume   408.75479718
_cell_formula_units_Z   3
loop_
 _symmetry_equiv_pos_site_id
 _symmetry_equiv_pos_as_xyz
  1  'x, y, z'
loop_
 _atom_site_type_symbol
 _atom_site_label
 _atom_site_symmetry_multiplicity
 _atom_site_fract_x
 _atom_site_fract_y
 _atom_site_fract_z
 _atom_site_occupancy
  Nd  Nd0  1  0.00000000  0.00000000  0.86041000  1
  Nd  Nd1  1  0.66666667  0.33333333  0.19374333  1
  Nd  Nd2  1  0.33333333  0.66666667  0.52707667  1
  H  H3  1  0.17204100  0.34408200  0.06698600  1
  H  H4  1  0.17204100  0.82795900  0.06698600  1
  H  H5  1  0.32258467  0.16129233  0.40031933  1
  H  H6  1  0.83870767  0.67741533  0.40031933  1
  H  H7  1  0.83870767  0.16129233  0.40031933  1
  H  H8  1  0.98925133  0.49462567  0.73365267  1
  H  H9  1  0.50537433  0.01074867  0.73365267  1
  H  H10  1  0.50537433  0.49462567  0.73365267  1
  H  H11  1  0.65591800  0.82795900  0.06698600  1
  C  C12  1  0.36031533  0.18015767  0.65452367  1
  C  C13  1  0.15317567  0.30635133  0.32119033  1
  C  C14  1  0.15317567  0.84682433  0.32119033  1
  C  C15  1  0.02698200  0.51349100  0.98785700  1
  C  C16  1  0.81984233  0.63968467  0.65452367  1
  C  C17  1  0.81984233  0.18015767  0.65452367  1
  C  C18  1  0.69364867  0.84682433  0.32119033  1
  C  C19  1  0.48650900  0.97301800  0.98785700  1
  C  C20  1  0.48650900  0.51349100  0.98785700  1
  O  O21  1  0.19947067  0.39894133  0.54623733  1
  O  O22  1  0.49704467  0.24852233  0.69875033  1
  O  O23  1  0.08481100  0.91518900  0.36541700  1
  O  O24  1  0.26772533  0.13386267  0.87957067  1
  O  O25  1  0.19947067  0.80052933  0.54623733  1
  O  O26  1  0.08481100  0.16962200  0.36541700  1
  O  O27  1  0.86613733  0.73227467  0.87957067  1
  O  O28  1  0.16371133  0.58185567  0.03208367  1
  O  O29  1  0.75147767  0.24852233  0.69875033  1
  O  O30  1  0.93439200  0.46719600  0.21290400  1
  O  O31  1  0.86613733  0.13386267  0.87957067  1
  O  O32  1  0.75147767  0.50295533  0.69875033  1
  O  O33  1  0.53280400  0.06560800  0.21290400  1
  O  O34  1  0.83037800  0.91518900  0.36541700  1
  O  O35  1  0.41814433  0.58185567  0.03208367  1
  O  O36  1  0.60105867  0.80052933  0.54623733  1
  O  O37  1  0.53280400  0.46719600  0.21290400  1
  O  O38  1  0.41814433  0.83628867  0.03208367  1
