# generated using pymatgen
data_Ag3P11
_symmetry_space_group_name_H-M   'P 1'
_cell_length_a   13.09505000
_cell_length_b   7.65172200
_cell_length_c   6.68122537
_cell_angle_alpha   90.00000000
_cell_angle_beta   118.67783442
_cell_angle_gamma   90.00000000
_symmetry_Int_Tables_number   1
_chemical_formula_structural   Ag3P11
_chemical_formula_sum   'Ag6 P22'
_cell_volume   587.33566743
_cell_formula_units_Z   2
loop_
 _symmetry_equiv_pos_site_id
 _symmetry_equiv_pos_as_xyz
  1  'x, y, z'
loop_
 _atom_site_type_symbol
 _atom_site_label
 _atom_site_symmetry_multiplicity
 _atom_site_fract_x
 _atom_site_fract_y
 _atom_site_fract_z
 _atom_site_occupancy
  Ag  Ag0  1  0.29133100  0.00000000  0.02583200  1
  Ag  Ag1  1  0.58954700  0.00000000  0.80359700  1
  Ag  Ag2  1  0.99931000  0.00000000  0.00237400  1
  Ag  Ag3  1  0.79133100  0.50000000  0.02583200  1
  Ag  Ag4  1  0.08954700  0.50000000  0.80359700  1
  Ag  Ag5  1  0.49931000  0.50000000  0.00237400  1
  P  P6  1  0.81111100  0.00000000  0.04571800  1
  P  P7  1  0.49239500  0.00000000  0.05506400  1
  P  P8  1  0.08193300  0.00000000  0.72633100  1
  P  P9  1  0.52019100  0.25537200  0.53074000  1
  P  P10  1  0.52019100  0.74462800  0.53074000  1
  P  P11  1  0.76229250  0.14823850  0.50259300  1
  P  P12  1  0.76229250  0.85176150  0.50259300  1
  P  P13  1  0.33267400  0.72262500  0.27117400  1
  P  P14  1  0.33267400  0.27737500  0.27117400  1
  P  P15  1  0.58002950  0.22879650  0.26623500  1
  P  P16  1  0.58002950  0.77120350  0.26623500  1
  P  P17  1  0.31111100  0.50000000  0.04571800  1
  P  P18  1  0.99239500  0.50000000  0.05506400  1
  P  P19  1  0.58193300  0.50000000  0.72633100  1
  P  P20  1  0.02019100  0.75537200  0.53074000  1
  P  P21  1  0.02019100  0.24462800  0.53074000  1
  P  P22  1  0.26229250  0.64823850  0.50259300  1
  P  P23  1  0.26229250  0.35176150  0.50259300  1
  P  P24  1  0.83267400  0.22262500  0.27117400  1
  P  P25  1  0.83267400  0.77737500  0.27117400  1
  P  P26  1  0.08002950  0.72879650  0.26623500  1
  P  P27  1  0.08002950  0.27120350  0.26623500  1
