# generated using pymatgen
data_Lu2S3
_symmetry_space_group_name_H-M   'P 1'
_cell_length_a   6.74112842
_cell_length_b   6.74112842
_cell_length_c   18.21981666
_cell_angle_alpha   90.00000000
_cell_angle_beta   90.00000000
_cell_angle_gamma   120.00000000
_symmetry_Int_Tables_number   1
_chemical_formula_structural   Lu2S3
_chemical_formula_sum   'Lu12 S18'
_cell_volume   717.03414303
_cell_formula_units_Z   6
loop_
 _symmetry_equiv_pos_site_id
 _symmetry_equiv_pos_as_xyz
  1  'x, y, z'
loop_
 _atom_site_type_symbol
 _atom_site_label
 _atom_site_symmetry_multiplicity
 _atom_site_fract_x
 _atom_site_fract_y
 _atom_site_fract_z
 _atom_site_occupancy
  Lu  Lu0  1  0.00000000  0.00000000  0.15105900  1
  Lu  Lu1  1  0.33333333  0.66666667  0.01560767  1
  Lu  Lu2  1  0.66666667  0.33333333  0.18227433  1
  Lu  Lu3  1  0.33333333  0.66666667  0.31772567  1
  Lu  Lu4  1  0.66666667  0.33333333  0.48439233  1
  Lu  Lu5  1  0.00000000  0.00000000  0.34894100  1
  Lu  Lu6  1  0.33333333  0.66666667  0.51560767  1
  Lu  Lu7  1  0.00000000  0.00000000  0.65105900  1
  Lu  Lu8  1  0.33333333  0.66666667  0.81772567  1
  Lu  Lu9  1  0.66666667  0.33333333  0.68227433  1
  Lu  Lu10  1  0.00000000  0.00000000  0.84894100  1
  Lu  Lu11  1  0.66666667  0.33333333  0.98439233  1
  S  S12  1  0.30344400  0.00000000  0.25000000  1
  S  S13  1  0.69655600  0.69655600  0.25000000  1
  S  S14  1  0.00000000  0.30344400  0.25000000  1
  S  S15  1  0.36322267  0.33333333  0.08333333  1
  S  S16  1  0.66666667  0.02988933  0.08333333  1
  S  S17  1  0.97011067  0.63677733  0.08333333  1
  S  S18  1  0.97011067  0.33333333  0.58333333  1
  S  S19  1  0.36322267  0.02988933  0.58333333  1
  S  S20  1  0.66666667  0.63677733  0.58333333  1
  S  S21  1  0.02988933  0.66666667  0.41666667  1
  S  S22  1  0.33333333  0.36322267  0.41666667  1
  S  S23  1  0.63677733  0.97011067  0.41666667  1
  S  S24  1  0.63677733  0.66666667  0.91666667  1
  S  S25  1  0.02988933  0.36322267  0.91666667  1
  S  S26  1  0.33333333  0.97011067  0.91666667  1
  S  S27  1  0.69655600  0.00000000  0.75000000  1
  S  S28  1  0.00000000  0.69655600  0.75000000  1
  S  S29  1  0.30344400  0.30344400  0.75000000  1
