# generated using pymatgen
data_Ta3I7
_symmetry_space_group_name_H-M   'P 1'
_cell_length_a   15.25227800
_cell_length_b   16.30330000
_cell_length_c   12.92259800
_cell_angle_alpha   90.00000000
_cell_angle_beta   90.00000000
_cell_angle_gamma   90.00000000
_symmetry_Int_Tables_number   1
_chemical_formula_structural   Ta3I7
_chemical_formula_sum   'Ta24 I56'
_cell_volume   3213.36505889
_cell_formula_units_Z   8
loop_
 _symmetry_equiv_pos_site_id
 _symmetry_equiv_pos_as_xyz
  1  'x, y, z'
loop_
 _atom_site_type_symbol
 _atom_site_label
 _atom_site_symmetry_multiplicity
 _atom_site_fract_x
 _atom_site_fract_y
 _atom_site_fract_z
 _atom_site_occupancy
  Ta  Ta0  1  0.50000000  0.59465500  0.93206600  1
  Ta  Ta1  1  0.50000000  0.90534500  0.43206600  1
  Ta  Ta2  1  0.50000000  0.09465500  0.56793400  1
  Ta  Ta3  1  0.50000000  0.40534500  0.06793400  1
  Ta  Ta4  1  0.89715650  0.04729450  0.10529100  1
  Ta  Ta5  1  0.60284350  0.95270550  0.60529100  1
  Ta  Ta6  1  0.60284350  0.04729450  0.39470900  1
  Ta  Ta7  1  0.89715650  0.95270550  0.89470900  1
  Ta  Ta8  1  0.10284350  0.95270550  0.89470900  1
  Ta  Ta9  1  0.39715650  0.04729450  0.39470900  1
  Ta  Ta10  1  0.39715650  0.95270550  0.60529100  1
  Ta  Ta11  1  0.10284350  0.04729450  0.10529100  1
  Ta  Ta12  1  0.00000000  0.09465500  0.93206600  1
  Ta  Ta13  1  0.00000000  0.40534500  0.43206600  1
  Ta  Ta14  1  0.00000000  0.59465500  0.56793400  1
  Ta  Ta15  1  0.00000000  0.90534500  0.06793400  1
  Ta  Ta16  1  0.39715650  0.54729450  0.10529100  1
  Ta  Ta17  1  0.10284350  0.45270550  0.60529100  1
  Ta  Ta18  1  0.10284350  0.54729450  0.39470900  1
  Ta  Ta19  1  0.39715650  0.45270550  0.89470900  1
  Ta  Ta20  1  0.60284350  0.45270550  0.89470900  1
  Ta  Ta21  1  0.89715650  0.54729450  0.39470900  1
  Ta  Ta22  1  0.89715650  0.45270550  0.60529100  1
  Ta  Ta23  1  0.60284350  0.54729450  0.10529100  1
  I  I24  1  0.75000000  0.12380300  0.25000000  1
  I  I25  1  0.75000000  0.87619700  0.75000000  1
  I  I26  1  0.25000000  0.87619700  0.75000000  1
  I  I27  1  0.25000000  0.12380300  0.25000000  1
  I  I28  1  0.37668800  0.70564400  0.01919400  1
  I  I29  1  0.62331200  0.79435600  0.51919400  1
  I  I30  1  0.62331200  0.20564400  0.48080600  1
  I  I31  1  0.37668800  0.29435600  0.98080600  1
  I  I32  1  0.62331200  0.29435600  0.98080600  1
  I  I33  1  0.37668800  0.20564400  0.48080600  1
  I  I34  1  0.37668800  0.79435600  0.51919400  1
  I  I35  1  0.62331200  0.70564400  0.01919400  1
  I  I36  1  0.25624200  0.00000000  0.00000000  1
  I  I37  1  0.24375800  0.00000000  0.50000000  1
  I  I38  1  0.74375800  0.00000000  0.00000000  1
  I  I39  1  0.75624200  0.00000000  0.50000000  1
  I  I40  1  0.50000000  0.61886300  0.26273100  1
  I  I41  1  0.50000000  0.88113700  0.76273100  1
  I  I42  1  0.50000000  0.11886300  0.23726900  1
  I  I43  1  0.50000000  0.38113700  0.73726900  1
  I  I44  1  0.62209600  0.90897400  0.26652900  1
  I  I45  1  0.87790400  0.09102600  0.76652900  1
  I  I46  1  0.87790400  0.90897400  0.23347100  1
  I  I47  1  0.62209600  0.09102600  0.73347100  1
  I  I48  1  0.37790400  0.09102600  0.73347100  1
  I  I49  1  0.12209600  0.90897400  0.23347100  1
  I  I50  1  0.12209600  0.09102600  0.76652900  1
  I  I51  1  0.37790400  0.90897400  0.26652900  1
  I  I52  1  0.25000000  0.62380300  0.25000000  1
  I  I53  1  0.25000000  0.37619700  0.75000000  1
  I  I54  1  0.75000000  0.37619700  0.75000000  1
  I  I55  1  0.75000000  0.62380300  0.25000000  1
  I  I56  1  0.87668800  0.20564400  0.01919400  1
  I  I57  1  0.12331200  0.29435600  0.51919400  1
  I  I58  1  0.12331200  0.70564400  0.48080600  1
  I  I59  1  0.87668800  0.79435600  0.98080600  1
  I  I60  1  0.12331200  0.79435600  0.98080600  1
  I  I61  1  0.87668800  0.70564400  0.48080600  1
  I  I62  1  0.87668800  0.29435600  0.51919400  1
  I  I63  1  0.12331200  0.20564400  0.01919400  1
  I  I64  1  0.75624200  0.50000000  0.00000000  1
  I  I65  1  0.74375800  0.50000000  0.50000000  1
  I  I66  1  0.24375800  0.50000000  0.00000000  1
  I  I67  1  0.25624200  0.50000000  0.50000000  1
  I  I68  1  0.00000000  0.11886300  0.26273100  1
  I  I69  1  0.00000000  0.38113700  0.76273100  1
  I  I70  1  0.00000000  0.61886300  0.23726900  1
  I  I71  1  0.00000000  0.88113700  0.73726900  1
  I  I72  1  0.12209600  0.40897400  0.26652900  1
  I  I73  1  0.37790400  0.59102600  0.76652900  1
  I  I74  1  0.37790400  0.40897400  0.23347100  1
  I  I75  1  0.12209600  0.59102600  0.73347100  1
  I  I76  1  0.87790400  0.59102600  0.73347100  1
  I  I77  1  0.62209600  0.40897400  0.23347100  1
  I  I78  1  0.62209600  0.59102600  0.76652900  1
  I  I79  1  0.87790400  0.40897400  0.26652900  1
