# generated using pymatgen
data_Ge7F16
_symmetry_space_group_name_H-M   'P 1'
_cell_length_a   18.42850800
_cell_length_b   7.75848600
_cell_length_c   10.43556338
_cell_angle_alpha   90.00000000
_cell_angle_beta   90.65186043
_cell_angle_gamma   90.00000000
_symmetry_Int_Tables_number   1
_chemical_formula_structural   Ge7F16
_chemical_formula_sum   'Ge28 F64'
_cell_volume   1491.95233450
_cell_formula_units_Z   4
loop_
 _symmetry_equiv_pos_site_id
 _symmetry_equiv_pos_as_xyz
  1  'x, y, z'
loop_
 _atom_site_type_symbol
 _atom_site_label
 _atom_site_symmetry_multiplicity
 _atom_site_fract_x
 _atom_site_fract_y
 _atom_site_fract_z
 _atom_site_occupancy
  Ge  Ge0  1  0.84787250  0.91982050  0.97248300  1
  Ge  Ge1  1  0.84787250  0.08017950  0.47248300  1
  Ge  Ge2  1  0.56436350  0.82855650  0.40989400  1
  Ge  Ge3  1  0.56436350  0.17144350  0.90989400  1
  Ge  Ge4  1  0.91526250  0.64961550  0.59260700  1
  Ge  Ge5  1  0.91526250  0.35038450  0.09260700  1
  Ge  Ge6  1  0.78200600  0.44914600  0.80793000  1
  Ge  Ge7  1  0.78200600  0.55085400  0.30793000  1
  Ge  Ge8  1  0.63428800  0.40133300  0.54265800  1
  Ge  Ge9  1  0.63428800  0.59866700  0.04265800  1
  Ge  Ge10  1  0.70204350  0.93883650  0.69616700  1
  Ge  Ge11  1  0.70204350  0.06116350  0.19616700  1
  Ge  Ge12  1  0.50087050  0.32353250  0.24818100  1
  Ge  Ge13  1  0.50087050  0.67646750  0.74818100  1
  Ge  Ge14  1  0.34787250  0.41982050  0.97248300  1
  Ge  Ge15  1  0.34787250  0.58017950  0.47248300  1
  Ge  Ge16  1  0.06436350  0.32855650  0.40989400  1
  Ge  Ge17  1  0.06436350  0.67144350  0.90989400  1
  Ge  Ge18  1  0.41526250  0.14961550  0.59260700  1
  Ge  Ge19  1  0.41526250  0.85038450  0.09260700  1
  Ge  Ge20  1  0.28200600  0.94914600  0.80793000  1
  Ge  Ge21  1  0.28200600  0.05085400  0.30793000  1
  Ge  Ge22  1  0.13428800  0.90133300  0.54265800  1
  Ge  Ge23  1  0.13428800  0.09866700  0.04265800  1
  Ge  Ge24  1  0.20204350  0.43883650  0.69616700  1
  Ge  Ge25  1  0.20204350  0.56116350  0.19616700  1
  Ge  Ge26  1  0.00087050  0.82353250  0.24818100  1
  Ge  Ge27  1  0.00087050  0.17646750  0.74818100  1
  F  F28  1  0.92230450  0.94950950  0.20011100  1
  F  F29  1  0.92230450  0.05049050  0.70011100  1
  F  F30  1  0.56006750  0.50575650  0.18666200  1
  F  F31  1  0.56006750  0.49424350  0.68666200  1
  F  F32  1  0.94553900  0.64464200  0.30103100  1
  F  F33  1  0.94553900  0.35535800  0.80103100  1
  F  F34  1  0.50187300  0.22796600  0.08161200  1
  F  F35  1  0.50187300  0.77203400  0.58161200  1
  F  F36  1  0.50189900  0.42331300  0.40584700  1
  F  F37  1  0.50189900  0.57668700  0.90584700  1
  F  F38  1  0.58324800  0.20424700  0.28629500  1
  F  F39  1  0.58324800  0.79575300  0.78629500  1
  F  F40  1  0.77399150  0.00863650  0.34781300  1
  F  F41  1  0.77399150  0.99136350  0.84781300  1
  F  F42  1  0.84315750  0.64106350  0.73717200  1
  F  F43  1  0.84315750  0.35893650  0.23717200  1
  F  F44  1  0.84914950  0.82855350  0.51883000  1
  F  F45  1  0.84914950  0.17144650  0.01883000  1
  F  F46  1  0.86136650  0.48485250  0.50762500  1
  F  F47  1  0.86136650  0.51514750  0.00762500  1
  F  F48  1  0.71159300  0.49385000  0.65403800  1
  F  F49  1  0.71159300  0.50615000  0.15403800  1
  F  F50  1  0.61899350  0.97723250  0.51018900  1
  F  F51  1  0.61899350  0.02276750  0.01018900  1
  F  F52  1  0.76883350  0.10723350  0.59539000  1
  F  F53  1  0.76883350  0.89276650  0.09539000  1
  F  F54  1  0.65241100  0.13913300  0.75156200  1
  F  F55  1  0.65241100  0.86086700  0.25156200  1
  F  F56  1  0.72814300  0.61837700  0.89422400  1
  F  F57  1  0.72814300  0.38162300  0.39422400  1
  F  F58  1  0.63085150  0.63830350  0.46621100  1
  F  F59  1  0.63085150  0.36169650  0.96621100  1
  F  F60  1  0.42230450  0.44950950  0.20011100  1
  F  F61  1  0.42230450  0.55049050  0.70011100  1
  F  F62  1  0.06006750  0.00575650  0.18666200  1
  F  F63  1  0.06006750  0.99424350  0.68666200  1
  F  F64  1  0.44553900  0.14464200  0.30103100  1
  F  F65  1  0.44553900  0.85535800  0.80103100  1
  F  F66  1  0.00187300  0.72796600  0.08161200  1
  F  F67  1  0.00187300  0.27203400  0.58161200  1
  F  F68  1  0.00189900  0.92331300  0.40584700  1
  F  F69  1  0.00189900  0.07668700  0.90584700  1
  F  F70  1  0.08324800  0.70424700  0.28629500  1
  F  F71  1  0.08324800  0.29575300  0.78629500  1
  F  F72  1  0.27399150  0.50863650  0.34781300  1
  F  F73  1  0.27399150  0.49136350  0.84781300  1
  F  F74  1  0.34315750  0.14106350  0.73717200  1
  F  F75  1  0.34315750  0.85893650  0.23717200  1
  F  F76  1  0.34914950  0.32855350  0.51883000  1
  F  F77  1  0.34914950  0.67144650  0.01883000  1
  F  F78  1  0.36136650  0.98485250  0.50762500  1
  F  F79  1  0.36136650  0.01514750  0.00762500  1
  F  F80  1  0.21159300  0.99385000  0.65403800  1
  F  F81  1  0.21159300  0.00615000  0.15403800  1
  F  F82  1  0.11899350  0.47723250  0.51018900  1
  F  F83  1  0.11899350  0.52276750  0.01018900  1
  F  F84  1  0.26883350  0.60723350  0.59539000  1
  F  F85  1  0.26883350  0.39276650  0.09539000  1
  F  F86  1  0.15241100  0.63913300  0.75156200  1
  F  F87  1  0.15241100  0.36086700  0.25156200  1
  F  F88  1  0.22814300  0.11837700  0.89422400  1
  F  F89  1  0.22814300  0.88162300  0.39422400  1
  F  F90  1  0.13085150  0.13830350  0.46621100  1
  F  F91  1  0.13085150  0.86169650  0.96621100  1
