# generated using pymatgen
data_Ga3Bi5Cl12
_symmetry_space_group_name_H-M   'P 1'
_cell_length_a   12.08992563
_cell_length_b   12.08992563
_cell_length_c   30.90448116
_cell_angle_alpha   90.00000000
_cell_angle_beta   90.00000000
_cell_angle_gamma   120.00000000
_symmetry_Int_Tables_number   1
_chemical_formula_structural   Ga3Bi5Cl12
_chemical_formula_sum   'Ga18 Bi30 Cl72'
_cell_volume   3912.00451090
_cell_formula_units_Z   6
loop_
 _symmetry_equiv_pos_site_id
 _symmetry_equiv_pos_as_xyz
  1  'x, y, z'
loop_
 _atom_site_type_symbol
 _atom_site_label
 _atom_site_symmetry_multiplicity
 _atom_site_fract_x
 _atom_site_fract_y
 _atom_site_fract_z
 _atom_site_occupancy
  Ga  Ga0  1  0.00000000  0.52098800  0.25000000  1
  Ga  Ga1  1  0.47901200  0.47901200  0.25000000  1
  Ga  Ga2  1  0.52098800  0.00000000  0.25000000  1
  Ga  Ga3  1  0.66666667  0.81234533  0.08333333  1
  Ga  Ga4  1  0.18765467  0.85432133  0.08333333  1
  Ga  Ga5  1  0.14567867  0.33333333  0.08333333  1
  Ga  Ga6  1  0.66666667  0.85432133  0.58333333  1
  Ga  Ga7  1  0.14567867  0.81234533  0.58333333  1
  Ga  Ga8  1  0.18765467  0.33333333  0.58333333  1
  Ga  Ga9  1  0.33333333  0.14567867  0.41666667  1
  Ga  Ga10  1  0.85432133  0.18765467  0.41666667  1
  Ga  Ga11  1  0.81234533  0.66666667  0.41666667  1
  Ga  Ga12  1  0.33333333  0.18765467  0.91666667  1
  Ga  Ga13  1  0.81234533  0.14567867  0.91666667  1
  Ga  Ga14  1  0.85432133  0.66666667  0.91666667  1
  Ga  Ga15  1  0.00000000  0.47901200  0.75000000  1
  Ga  Ga16  1  0.52098800  0.52098800  0.75000000  1
  Ga  Ga17  1  0.47901200  0.00000000  0.75000000  1
  Bi  Bi18  1  0.00000000  0.00000000  0.32792100  1
  Bi  Bi19  1  0.00000000  0.00000000  0.17207900  1
  Bi  Bi20  1  0.66666667  0.33333333  0.00541233  1
  Bi  Bi21  1  0.66666667  0.33333333  0.16125433  1
  Bi  Bi22  1  0.00000000  0.15693200  0.25000000  1
  Bi  Bi23  1  0.84306800  0.84306800  0.25000000  1
  Bi  Bi24  1  0.15693200  0.00000000  0.25000000  1
  Bi  Bi25  1  0.66666667  0.17640133  0.08333333  1
  Bi  Bi26  1  0.82359867  0.49026533  0.08333333  1
  Bi  Bi27  1  0.50973467  0.33333333  0.08333333  1
  Bi  Bi28  1  0.66666667  0.33333333  0.66125433  1
  Bi  Bi29  1  0.66666667  0.33333333  0.50541233  1
  Bi  Bi30  1  0.33333333  0.66666667  0.33874567  1
  Bi  Bi31  1  0.33333333  0.66666667  0.49458767  1
  Bi  Bi32  1  0.66666667  0.49026533  0.58333333  1
  Bi  Bi33  1  0.50973467  0.17640133  0.58333333  1
  Bi  Bi34  1  0.82359867  0.33333333  0.58333333  1
  Bi  Bi35  1  0.33333333  0.50973467  0.41666667  1
  Bi  Bi36  1  0.49026533  0.82359867  0.41666667  1
  Bi  Bi37  1  0.17640133  0.66666667  0.41666667  1
  Bi  Bi38  1  0.33333333  0.66666667  0.99458767  1
  Bi  Bi39  1  0.33333333  0.66666667  0.83874567  1
  Bi  Bi40  1  0.00000000  0.00000000  0.67207900  1
  Bi  Bi41  1  0.00000000  0.00000000  0.82792100  1
  Bi  Bi42  1  0.33333333  0.82359867  0.91666667  1
  Bi  Bi43  1  0.17640133  0.50973467  0.91666667  1
  Bi  Bi44  1  0.49026533  0.66666667  0.91666667  1
  Bi  Bi45  1  0.00000000  0.84306800  0.75000000  1
  Bi  Bi46  1  0.15693200  0.15693200  0.75000000  1
  Bi  Bi47  1  0.84306800  0.00000000  0.75000000  1
  Cl  Cl48  1  0.83314967  0.54788333  0.24051833  1
  Cl  Cl49  1  0.45211667  0.28526633  0.24051833  1
  Cl  Cl50  1  0.71473367  0.16685033  0.24051833  1
  Cl  Cl51  1  0.16685033  0.71473367  0.25948167  1
  Cl  Cl52  1  0.28526633  0.45211667  0.25948167  1
  Cl  Cl53  1  0.54788333  0.83314967  0.25948167  1
  Cl  Cl54  1  0.83351700  0.78545000  0.09281500  1
  Cl  Cl55  1  0.21455000  0.04806700  0.09281500  1
  Cl  Cl56  1  0.95193300  0.16648300  0.09281500  1
  Cl  Cl57  1  0.49981633  0.61859967  0.07385167  1
  Cl  Cl58  1  0.38140033  0.88121667  0.07385167  1
  Cl  Cl59  1  0.11878333  0.50018367  0.07385167  1
  Cl  Cl60  1  0.99421800  0.41187200  0.30768600  1
  Cl  Cl61  1  0.58812800  0.58234600  0.30768600  1
  Cl  Cl62  1  0.41765400  0.00578200  0.30768600  1
  Cl  Cl63  1  0.00578200  0.41765400  0.19231400  1
  Cl  Cl64  1  0.25479467  0.33911533  0.14101933  1
  Cl  Cl65  1  0.08432067  0.74520533  0.14101933  1
  Cl  Cl66  1  0.66088467  0.91567933  0.14101933  1
  Cl  Cl67  1  0.24901267  0.32755133  0.02564733  1
  Cl  Cl68  1  0.07853867  0.75098733  0.02564733  1
  Cl  Cl69  1  0.67244867  0.92146133  0.02564733  1
  Cl  Cl70  1  0.41187200  0.99421800  0.19231400  1
  Cl  Cl71  1  0.58234600  0.58812800  0.19231400  1
  Cl  Cl72  1  0.49981633  0.88121667  0.57385167  1
  Cl  Cl73  1  0.11878333  0.61859967  0.57385167  1
  Cl  Cl74  1  0.38140033  0.50018367  0.57385167  1
  Cl  Cl75  1  0.83351700  0.04806700  0.59281500  1
  Cl  Cl76  1  0.95193300  0.78545000  0.59281500  1
  Cl  Cl77  1  0.21455000  0.16648300  0.59281500  1
  Cl  Cl78  1  0.50018367  0.11878333  0.42614833  1
  Cl  Cl79  1  0.88121667  0.38140033  0.42614833  1
  Cl  Cl80  1  0.61859967  0.49981633  0.42614833  1
  Cl  Cl81  1  0.16648300  0.95193300  0.40718500  1
  Cl  Cl82  1  0.04806700  0.21455000  0.40718500  1
  Cl  Cl83  1  0.78545000  0.83351700  0.40718500  1
  Cl  Cl84  1  0.66088467  0.74520533  0.64101933  1
  Cl  Cl85  1  0.25479467  0.91567933  0.64101933  1
  Cl  Cl86  1  0.08432067  0.33911533  0.64101933  1
  Cl  Cl87  1  0.67244867  0.75098733  0.52564733  1
  Cl  Cl88  1  0.92146133  0.67244867  0.47435267  1
  Cl  Cl89  1  0.75098733  0.07853867  0.47435267  1
  Cl  Cl90  1  0.32755133  0.24901267  0.47435267  1
  Cl  Cl91  1  0.91567933  0.66088467  0.35898067  1
  Cl  Cl92  1  0.74520533  0.08432067  0.35898067  1
  Cl  Cl93  1  0.33911533  0.25479467  0.35898067  1
  Cl  Cl94  1  0.07853867  0.32755133  0.52564733  1
  Cl  Cl95  1  0.24901267  0.92146133  0.52564733  1
  Cl  Cl96  1  0.16648300  0.21455000  0.90718500  1
  Cl  Cl97  1  0.78545000  0.95193300  0.90718500  1
  Cl  Cl98  1  0.04806700  0.83351700  0.90718500  1
  Cl  Cl99  1  0.50018367  0.38140033  0.92614833  1
  Cl  Cl100  1  0.61859967  0.11878333  0.92614833  1
  Cl  Cl101  1  0.88121667  0.49981633  0.92614833  1
  Cl  Cl102  1  0.16685033  0.45211667  0.75948167  1
  Cl  Cl103  1  0.54788333  0.71473367  0.75948167  1
  Cl  Cl104  1  0.28526633  0.83314967  0.75948167  1
  Cl  Cl105  1  0.83314967  0.28526633  0.74051833  1
  Cl  Cl106  1  0.71473367  0.54788333  0.74051833  1
  Cl  Cl107  1  0.45211667  0.16685033  0.74051833  1
  Cl  Cl108  1  0.32755133  0.07853867  0.97435267  1
  Cl  Cl109  1  0.92146133  0.24901267  0.97435267  1
  Cl  Cl110  1  0.75098733  0.67244867  0.97435267  1
  Cl  Cl111  1  0.33911533  0.08432067  0.85898067  1
  Cl  Cl112  1  0.58812800  0.00578200  0.80768600  1
  Cl  Cl113  1  0.41765400  0.41187200  0.80768600  1
  Cl  Cl114  1  0.99421800  0.58234600  0.80768600  1
  Cl  Cl115  1  0.58234600  0.99421800  0.69231400  1
  Cl  Cl116  1  0.41187200  0.41765400  0.69231400  1
  Cl  Cl117  1  0.00578200  0.58812800  0.69231400  1
  Cl  Cl118  1  0.74520533  0.66088467  0.85898067  1
  Cl  Cl119  1  0.91567933  0.25479467  0.85898067  1
