# generated using pymatgen
data_TlH4NCl4
_symmetry_space_group_name_H-M   'P 1'
_cell_length_a   7.20272200
_cell_length_b   7.20272200
_cell_length_c   15.95142800
_cell_angle_alpha   90.00000000
_cell_angle_beta   90.00000000
_cell_angle_gamma   90.00000000
_symmetry_Int_Tables_number   1
_chemical_formula_structural   TlH4NCl4
_chemical_formula_sum   'Tl4 H16 N4 Cl16'
_cell_volume   827.54739064
_cell_formula_units_Z   4
loop_
 _symmetry_equiv_pos_site_id
 _symmetry_equiv_pos_as_xyz
  1  'x, y, z'
loop_
 _atom_site_type_symbol
 _atom_site_label
 _atom_site_symmetry_multiplicity
 _atom_site_fract_x
 _atom_site_fract_y
 _atom_site_fract_z
 _atom_site_occupancy
  Tl  Tl0  1  0.00000000  0.50000000  0.25000000  1
  Tl  Tl1  1  0.00000000  0.00000000  0.00000000  1
  Tl  Tl2  1  0.50000000  0.00000000  0.75000000  1
  Tl  Tl3  1  0.50000000  0.50000000  0.50000000  1
  H  H4  1  0.38717500  0.53021600  0.03761600  1
  H  H5  1  0.53021600  0.11282500  0.28761600  1
  H  H6  1  0.46978400  0.88717500  0.28761600  1
  H  H7  1  0.61282500  0.46978400  0.03761600  1
  H  H8  1  0.61282500  0.96978400  0.21238400  1
  H  H9  1  0.96978400  0.88717500  0.46238400  1
  H  H10  1  0.03021600  0.11282500  0.46238400  1
  H  H11  1  0.38717500  0.03021600  0.21238400  1
  H  H12  1  0.88717500  0.03021600  0.53761600  1
  H  H13  1  0.03021600  0.61282500  0.78761600  1
  H  H14  1  0.96978400  0.38717500  0.78761600  1
  H  H15  1  0.11282500  0.96978400  0.53761600  1
  H  H16  1  0.11282500  0.46978400  0.71238400  1
  H  H17  1  0.46978400  0.38717500  0.96238400  1
  H  H18  1  0.53021600  0.61282500  0.96238400  1
  H  H19  1  0.88717500  0.53021600  0.71238400  1
  N  N20  1  0.50000000  0.50000000  0.00000000  1
  N  N21  1  0.50000000  0.00000000  0.25000000  1
  N  N22  1  0.00000000  0.00000000  0.50000000  1
  N  N23  1  0.00000000  0.50000000  0.75000000  1
  Cl  Cl24  1  0.24143800  0.34520900  0.16375900  1
  Cl  Cl25  1  0.75856200  0.15479100  0.08624100  1
  Cl  Cl26  1  0.24143800  0.84520900  0.08624100  1
  Cl  Cl27  1  0.15479100  0.74143800  0.33624100  1
  Cl  Cl28  1  0.65479100  0.74143800  0.41375900  1
  Cl  Cl29  1  0.34520900  0.25856200  0.41375900  1
  Cl  Cl30  1  0.75856200  0.65479100  0.16375900  1
  Cl  Cl31  1  0.84520900  0.25856200  0.33624100  1
  Cl  Cl32  1  0.74143800  0.84520900  0.66375900  1
  Cl  Cl33  1  0.25856200  0.65479100  0.58624100  1
  Cl  Cl34  1  0.74143800  0.34520900  0.58624100  1
  Cl  Cl35  1  0.65479100  0.24143800  0.83624100  1
  Cl  Cl36  1  0.15479100  0.24143800  0.91375900  1
  Cl  Cl37  1  0.84520900  0.75856200  0.91375900  1
  Cl  Cl38  1  0.25856200  0.15479100  0.66375900  1
  Cl  Cl39  1  0.34520900  0.75856200  0.83624100  1
