# generated using pymatgen
data_Tl(BH)6
_symmetry_space_group_name_H-M   'P 1'
_cell_length_a   10.84995000
_cell_length_b   10.84995000
_cell_length_c   10.84995000
_cell_angle_alpha   90.00000000
_cell_angle_beta   90.00000000
_cell_angle_gamma   90.00000000
_symmetry_Int_Tables_number   1
_chemical_formula_structural   Tl(BH)6
_chemical_formula_sum   'Tl8 B48 H48'
_cell_volume   1277.27146671
_cell_formula_units_Z   8
loop_
 _symmetry_equiv_pos_site_id
 _symmetry_equiv_pos_as_xyz
  1  'x, y, z'
loop_
 _atom_site_type_symbol
 _atom_site_label
 _atom_site_symmetry_multiplicity
 _atom_site_fract_x
 _atom_site_fract_y
 _atom_site_fract_z
 _atom_site_occupancy
  Tl  Tl0  1  0.25000000  0.25000000  0.75000000  1
  Tl  Tl1  1  0.25000000  0.25000000  0.25000000  1
  Tl  Tl2  1  0.25000000  0.75000000  0.25000000  1
  Tl  Tl3  1  0.25000000  0.75000000  0.75000000  1
  Tl  Tl4  1  0.75000000  0.25000000  0.25000000  1
  Tl  Tl5  1  0.75000000  0.25000000  0.75000000  1
  Tl  Tl6  1  0.75000000  0.75000000  0.75000000  1
  Tl  Tl7  1  0.75000000  0.75000000  0.25000000  1
  B  B8  1  0.86716950  0.00000000  0.08173150  1
  B  B9  1  0.13283050  0.00000000  0.08173150  1
  B  B10  1  0.08173150  0.13283050  0.00000000  1
  B  B11  1  0.50000000  0.08173150  0.63283050  1
  B  B12  1  0.41826850  0.36716950  0.00000000  1
  B  B13  1  0.91826850  0.13283050  0.00000000  1
  B  B14  1  0.00000000  0.41826850  0.63283050  1
  B  B15  1  0.00000000  0.41826850  0.36716950  1
  B  B16  1  0.58173150  0.36716950  0.00000000  1
  B  B17  1  0.13283050  0.00000000  0.91826850  1
  B  B18  1  0.86716950  0.00000000  0.91826850  1
  B  B19  1  0.50000000  0.08173150  0.36716950  1
  B  B20  1  0.86716950  0.50000000  0.58173150  1
  B  B21  1  0.13283050  0.50000000  0.58173150  1
  B  B22  1  0.08173150  0.63283050  0.50000000  1
  B  B23  1  0.50000000  0.58173150  0.13283050  1
  B  B24  1  0.41826850  0.86716950  0.50000000  1
  B  B25  1  0.91826850  0.63283050  0.50000000  1
  B  B26  1  0.00000000  0.91826850  0.13283050  1
  B  B27  1  0.00000000  0.91826850  0.86716950  1
  B  B28  1  0.58173150  0.86716950  0.50000000  1
  B  B29  1  0.13283050  0.50000000  0.41826850  1
  B  B30  1  0.86716950  0.50000000  0.41826850  1
  B  B31  1  0.50000000  0.58173150  0.86716950  1
  B  B32  1  0.36716950  0.00000000  0.58173150  1
  B  B33  1  0.63283050  0.00000000  0.58173150  1
  B  B34  1  0.58173150  0.13283050  0.50000000  1
  B  B35  1  0.00000000  0.08173150  0.13283050  1
  B  B36  1  0.91826850  0.36716950  0.50000000  1
  B  B37  1  0.41826850  0.13283050  0.50000000  1
  B  B38  1  0.50000000  0.41826850  0.13283050  1
  B  B39  1  0.50000000  0.41826850  0.86716950  1
  B  B40  1  0.08173150  0.36716950  0.50000000  1
  B  B41  1  0.63283050  0.00000000  0.41826850  1
  B  B42  1  0.36716950  0.00000000  0.41826850  1
  B  B43  1  0.00000000  0.08173150  0.86716950  1
  B  B44  1  0.36716950  0.50000000  0.08173150  1
  B  B45  1  0.63283050  0.50000000  0.08173150  1
  B  B46  1  0.58173150  0.63283050  0.00000000  1
  B  B47  1  0.00000000  0.58173150  0.63283050  1
  B  B48  1  0.91826850  0.86716950  0.00000000  1
  B  B49  1  0.41826850  0.63283050  0.00000000  1
  B  B50  1  0.50000000  0.91826850  0.63283050  1
  B  B51  1  0.50000000  0.91826850  0.36716950  1
  B  B52  1  0.08173150  0.86716950  0.00000000  1
  B  B53  1  0.63283050  0.50000000  0.91826850  1
  B  B54  1  0.36716950  0.50000000  0.91826850  1
  B  B55  1  0.00000000  0.58173150  0.36716950  1
  H  H56  1  0.22766550  0.00000000  0.13977550  1
  H  H57  1  0.77233450  0.00000000  0.13977550  1
  H  H58  1  0.13977550  0.22766550  0.00000000  1
  H  H59  1  0.50000000  0.13977550  0.72766550  1
  H  H60  1  0.36022450  0.27233450  0.00000000  1
  H  H61  1  0.86022450  0.22766550  0.00000000  1
  H  H62  1  0.00000000  0.36022450  0.72766550  1
  H  H63  1  0.00000000  0.36022450  0.27233450  1
  H  H64  1  0.63977550  0.27233450  0.00000000  1
  H  H65  1  0.22766550  0.00000000  0.86022450  1
  H  H66  1  0.77233450  0.00000000  0.86022450  1
  H  H67  1  0.50000000  0.13977550  0.27233450  1
  H  H68  1  0.22766550  0.50000000  0.63977550  1
  H  H69  1  0.77233450  0.50000000  0.63977550  1
  H  H70  1  0.13977550  0.72766550  0.50000000  1
  H  H71  1  0.50000000  0.63977550  0.22766550  1
  H  H72  1  0.36022450  0.77233450  0.50000000  1
  H  H73  1  0.86022450  0.72766550  0.50000000  1
  H  H74  1  0.00000000  0.86022450  0.22766550  1
  H  H75  1  0.00000000  0.86022450  0.77233450  1
  H  H76  1  0.63977550  0.77233450  0.50000000  1
  H  H77  1  0.22766550  0.50000000  0.36022450  1
  H  H78  1  0.77233450  0.50000000  0.36022450  1
  H  H79  1  0.50000000  0.63977550  0.77233450  1
  H  H80  1  0.72766550  0.00000000  0.63977550  1
  H  H81  1  0.27233450  0.00000000  0.63977550  1
  H  H82  1  0.63977550  0.22766550  0.50000000  1
  H  H83  1  0.00000000  0.13977550  0.22766550  1
  H  H84  1  0.86022450  0.27233450  0.50000000  1
  H  H85  1  0.36022450  0.22766550  0.50000000  1
  H  H86  1  0.50000000  0.36022450  0.22766550  1
  H  H87  1  0.50000000  0.36022450  0.77233450  1
  H  H88  1  0.13977550  0.27233450  0.50000000  1
  H  H89  1  0.72766550  0.00000000  0.36022450  1
  H  H90  1  0.27233450  0.00000000  0.36022450  1
  H  H91  1  0.00000000  0.13977550  0.77233450  1
  H  H92  1  0.72766550  0.50000000  0.13977550  1
  H  H93  1  0.27233450  0.50000000  0.13977550  1
  H  H94  1  0.63977550  0.72766550  0.00000000  1
  H  H95  1  0.00000000  0.63977550  0.72766550  1
  H  H96  1  0.86022450  0.77233450  0.00000000  1
  H  H97  1  0.36022450  0.72766550  0.00000000  1
  H  H98  1  0.50000000  0.86022450  0.72766550  1
  H  H99  1  0.50000000  0.86022450  0.27233450  1
  H  H100  1  0.13977550  0.77233450  0.00000000  1
  H  H101  1  0.72766550  0.50000000  0.86022450  1
  H  H102  1  0.27233450  0.50000000  0.86022450  1
  H  H103  1  0.00000000  0.63977550  0.27233450  1
