# generated using pymatgen
data_Na2Mn2S3
_symmetry_space_group_name_H-M   'P 1'
_cell_length_a   14.99672200
_cell_length_b   13.37673200
_cell_length_c   6.94902326
_cell_angle_alpha   90.00000000
_cell_angle_beta   116.98197936
_cell_angle_gamma   90.00000000
_symmetry_Int_Tables_number   1
_chemical_formula_structural   Na2Mn2S3
_chemical_formula_sum   'Na16 Mn16 S24'
_cell_volume   1242.28313020
_cell_formula_units_Z   8
loop_
 _symmetry_equiv_pos_site_id
 _symmetry_equiv_pos_as_xyz
  1  'x, y, z'
loop_
 _atom_site_type_symbol
 _atom_site_label
 _atom_site_symmetry_multiplicity
 _atom_site_fract_x
 _atom_site_fract_y
 _atom_site_fract_z
 _atom_site_occupancy
  Na  Na0  1  0.40138050  0.41341850  0.87495600  1
  Na  Na1  1  0.59861950  0.41341850  0.62504400  1
  Na  Na2  1  0.59861950  0.58658150  0.12504400  1
  Na  Na3  1  0.40138050  0.58658150  0.37495600  1
  Na  Na4  1  0.00000000  0.71831800  0.75000000  1
  Na  Na5  1  0.00000000  0.28168200  0.25000000  1
  Na  Na6  1  0.00000000  0.42868000  0.75000000  1
  Na  Na7  1  0.00000000  0.57132000  0.25000000  1
  Na  Na8  1  0.90138050  0.91341850  0.87495600  1
  Na  Na9  1  0.09861950  0.91341850  0.62504400  1
  Na  Na10  1  0.09861950  0.08658150  0.12504400  1
  Na  Na11  1  0.90138050  0.08658150  0.37495600  1
  Na  Na12  1  0.50000000  0.21831800  0.75000000  1
  Na  Na13  1  0.50000000  0.78168200  0.25000000  1
  Na  Na14  1  0.50000000  0.92868000  0.75000000  1
  Na  Na15  1  0.50000000  0.07132000  0.25000000  1
  Mn  Mn16  1  0.81866750  0.73577250  0.24507100  1
  Mn  Mn17  1  0.18133250  0.26422750  0.75492900  1
  Mn  Mn18  1  0.81866750  0.26422750  0.74507100  1
  Mn  Mn19  1  0.78965350  0.42598850  0.20160200  1
  Mn  Mn20  1  0.21034650  0.42598850  0.29839800  1
  Mn  Mn21  1  0.21034650  0.57401150  0.79839800  1
  Mn  Mn22  1  0.78965350  0.57401150  0.70160200  1
  Mn  Mn23  1  0.18133250  0.73577250  0.25492900  1
  Mn  Mn24  1  0.31866750  0.23577250  0.24507100  1
  Mn  Mn25  1  0.68133250  0.76422750  0.75492900  1
  Mn  Mn26  1  0.31866750  0.76422750  0.74507100  1
  Mn  Mn27  1  0.28965350  0.92598850  0.20160200  1
  Mn  Mn28  1  0.71034650  0.92598850  0.29839800  1
  Mn  Mn29  1  0.71034650  0.07401150  0.79839800  1
  Mn  Mn30  1  0.28965350  0.07401150  0.70160200  1
  Mn  Mn31  1  0.68133250  0.23577250  0.25492900  1
  S  S32  1  0.61501850  0.38520650  0.04802500  1
  S  S33  1  0.61501850  0.61479350  0.54802500  1
  S  S34  1  0.38498150  0.61479350  0.95197500  1
  S  S35  1  0.86147800  0.28249600  0.44517500  1
  S  S36  1  0.13852200  0.28249600  0.05482500  1
  S  S37  1  0.13852200  0.71750400  0.55482500  1
  S  S38  1  0.38498150  0.38520650  0.45197500  1
  S  S39  1  0.86147800  0.71750400  0.94517500  1
  S  S40  1  0.85428900  0.42483000  0.93347200  1
  S  S41  1  0.14571100  0.42483000  0.56652800  1
  S  S42  1  0.14571100  0.57517000  0.06652800  1
  S  S43  1  0.85428900  0.57517000  0.43347200  1
  S  S44  1  0.11501850  0.88520650  0.04802500  1
  S  S45  1  0.11501850  0.11479350  0.54802500  1
  S  S46  1  0.88498150  0.11479350  0.95197500  1
  S  S47  1  0.36147800  0.78249600  0.44517500  1
  S  S48  1  0.63852200  0.78249600  0.05482500  1
  S  S49  1  0.63852200  0.21750400  0.55482500  1
  S  S50  1  0.88498150  0.88520650  0.45197500  1
  S  S51  1  0.36147800  0.21750400  0.94517500  1
  S  S52  1  0.35428900  0.92483000  0.93347200  1
  S  S53  1  0.64571100  0.92483000  0.56652800  1
  S  S54  1  0.64571100  0.07517000  0.06652800  1
  S  S55  1  0.35428900  0.07517000  0.43347200  1
