# generated using pymatgen
data_Pr5C2Br9
_symmetry_space_group_name_H-M   'P 1'
_cell_length_a   10.36139000
_cell_length_b   19.46911500
_cell_length_c   12.20761817
_cell_angle_alpha   90.00000000
_cell_angle_beta   124.32906096
_cell_angle_gamma   90.00000000
_symmetry_Int_Tables_number   1
_chemical_formula_structural   Pr5C2Br9
_chemical_formula_sum   'Pr20 C8 Br36'
_cell_volume   2033.65157814
_cell_formula_units_Z   4
loop_
 _symmetry_equiv_pos_site_id
 _symmetry_equiv_pos_as_xyz
  1  'x, y, z'
loop_
 _atom_site_type_symbol
 _atom_site_label
 _atom_site_symmetry_multiplicity
 _atom_site_fract_x
 _atom_site_fract_y
 _atom_site_fract_z
 _atom_site_occupancy
  Pr  Pr0  1  0.17740200  0.58382400  0.48023400  1
  Pr  Pr1  1  0.82259800  0.08382400  0.01976600  1
  Pr  Pr2  1  0.82259800  0.41617600  0.51976600  1
  Pr  Pr3  1  0.17740200  0.91617600  0.98023400  1
  Pr  Pr4  1  0.16340500  0.76734700  0.59227300  1
  Pr  Pr5  1  0.83659500  0.26734700  0.90772700  1
  Pr  Pr6  1  0.83659500  0.23265300  0.40772700  1
  Pr  Pr7  1  0.16340500  0.73265300  0.09227300  1
  Pr  Pr8  1  0.59430700  0.72298900  0.72695800  1
  Pr  Pr9  1  0.40569300  0.22298900  0.77304200  1
  Pr  Pr10  1  0.40569300  0.27701100  0.27304200  1
  Pr  Pr11  1  0.59430700  0.77701100  0.22695800  1
  Pr  Pr12  1  0.61078500  0.52589700  0.73529600  1
  Pr  Pr13  1  0.38921500  0.02589700  0.76470400  1
  Pr  Pr14  1  0.38921500  0.47410300  0.26470400  1
  Pr  Pr15  1  0.61078500  0.97410300  0.23529600  1
  Pr  Pr16  1  0.38291200  0.61776000  0.86033700  1
  Pr  Pr17  1  0.61708800  0.11776000  0.63966300  1
  Pr  Pr18  1  0.61708800  0.38224000  0.13966300  1
  Pr  Pr19  1  0.38291200  0.88224000  0.36033700  1
  C  C20  1  0.43738000  0.61768600  0.68308400  1
  C  C21  1  0.56262000  0.11768600  0.81691600  1
  C  C22  1  0.56262000  0.38231400  0.31691600  1
  C  C23  1  0.43738000  0.88231400  0.18308400  1
  C  C24  1  0.33196400  0.67445600  0.65050600  1
  C  C25  1  0.66803600  0.17445600  0.84949400  1
  C  C26  1  0.66803600  0.32554400  0.34949400  1
  C  C27  1  0.33196400  0.82554400  0.15050600  1
  Br  Br28  1  0.10567200  0.53066400  0.66899000  1
  Br  Br29  1  0.89432800  0.03066400  0.83101000  1
  Br  Br30  1  0.89432800  0.46933600  0.33101000  1
  Br  Br31  1  0.10567200  0.96933600  0.16899000  1
  Br  Br32  1  0.66819000  0.97271200  0.50040600  1
  Br  Br33  1  0.33181000  0.47271200  0.99959400  1
  Br  Br34  1  0.33181000  0.02728800  0.49959400  1
  Br  Br35  1  0.66819000  0.52728800  0.00040600  1
  Br  Br36  1  0.34578400  0.45057900  0.50127200  1
  Br  Br37  1  0.65421600  0.95057900  0.99872800  1
  Br  Br38  1  0.65421600  0.54942100  0.49872800  1
  Br  Br39  1  0.34578400  0.04942100  0.00127200  1
  Br  Br40  1  0.86630000  0.62789500  0.84553900  1
  Br  Br41  1  0.13370000  0.12789500  0.65446100  1
  Br  Br42  1  0.13370000  0.37210500  0.15446100  1
  Br  Br43  1  0.86630000  0.87210500  0.34553900  1
  Br  Br44  1  0.14127000  0.58915300  0.21960400  1
  Br  Br45  1  0.85873000  0.08915300  0.28039600  1
  Br  Br46  1  0.85873000  0.41084700  0.78039600  1
  Br  Br47  1  0.14127000  0.91084700  0.71960400  1
  Br  Br48  1  0.43276100  0.86006200  0.64984200  1
  Br  Br49  1  0.56723900  0.36006200  0.85015800  1
  Br  Br50  1  0.56723900  0.13993800  0.35015800  1
  Br  Br51  1  0.43276100  0.63993800  0.14984200  1
  Br  Br52  1  0.89850100  0.82248300  0.90163700  1
  Br  Br53  1  0.10149900  0.32248300  0.59836300  1
  Br  Br54  1  0.10149900  0.17751700  0.09836300  1
  Br  Br55  1  0.89850100  0.67751700  0.40163700  1
  Br  Br56  1  0.15341700  0.77327600  0.32239000  1
  Br  Br57  1  0.84658300  0.27327600  0.17761000  1
  Br  Br58  1  0.84658300  0.22672400  0.67761000  1
  Br  Br59  1  0.15341700  0.72672400  0.82239000  1
  Br  Br60  1  0.62386000  0.76500500  0.49401500  1
  Br  Br61  1  0.37614000  0.26500500  0.00598500  1
  Br  Br62  1  0.37614000  0.23499500  0.50598500  1
  Br  Br63  1  0.62386000  0.73499500  0.99401500  1
