# generated using pymatgen
data_Ag2HgI4
_symmetry_space_group_name_H-M   'P 1'
_cell_length_a   6.53609400
_cell_length_b   6.53609400
_cell_length_c   13.16287000
_cell_angle_alpha   90.00000000
_cell_angle_beta   90.00000000
_cell_angle_gamma   90.00000000
_symmetry_Int_Tables_number   1
_chemical_formula_structural   Ag2HgI4
_chemical_formula_sum   'Ag4 Hg2 I8'
_cell_volume   562.32471397
_cell_formula_units_Z   2
loop_
 _symmetry_equiv_pos_site_id
 _symmetry_equiv_pos_as_xyz
  1  'x, y, z'
loop_
 _atom_site_type_symbol
 _atom_site_label
 _atom_site_symmetry_multiplicity
 _atom_site_fract_x
 _atom_site_fract_y
 _atom_site_fract_z
 _atom_site_occupancy
  Ag  Ag0  1  0.50000000  0.00000000  0.25000000  1
  Ag  Ag1  1  0.50000000  0.50000000  0.00000000  1
  Ag  Ag2  1  0.00000000  0.50000000  0.75000000  1
  Ag  Ag3  1  0.00000000  0.00000000  0.50000000  1
  Hg  Hg4  1  0.00000000  0.00000000  0.00000000  1
  Hg  Hg5  1  0.50000000  0.50000000  0.50000000  1
  I  I6  1  0.75997100  0.25961100  0.37001200  1
  I  I7  1  0.75961100  0.74002900  0.12998800  1
  I  I8  1  0.24002900  0.74038900  0.37001200  1
  I  I9  1  0.24038900  0.25997100  0.12998800  1
  I  I10  1  0.25997100  0.75961100  0.87001200  1
  I  I11  1  0.25961100  0.24002900  0.62998800  1
  I  I12  1  0.74002900  0.24038900  0.87001200  1
  I  I13  1  0.74038900  0.75997100  0.62998800  1
