# generated using pymatgen
data_Ba2BiSbO6
_symmetry_space_group_name_H-M   'P 1'
_cell_length_a   10.58010400
_cell_length_b   6.10870000
_cell_length_c   6.15658155
_cell_angle_alpha   90.00000000
_cell_angle_beta   125.24732851
_cell_angle_gamma   90.00000000
_symmetry_Int_Tables_number   1
_chemical_formula_structural   Ba2BiSbO6
_chemical_formula_sum   'Ba4 Bi2 Sb2 O12'
_cell_volume   324.95569770
_cell_formula_units_Z   2
loop_
 _symmetry_equiv_pos_site_id
 _symmetry_equiv_pos_as_xyz
  1  'x, y, z'
loop_
 _atom_site_type_symbol
 _atom_site_label
 _atom_site_symmetry_multiplicity
 _atom_site_fract_x
 _atom_site_fract_y
 _atom_site_fract_z
 _atom_site_occupancy
  Ba  Ba0  1  0.25085000  0.50000000  0.25484500  1
  Ba  Ba1  1  0.24915000  0.00000000  0.74515500  1
  Ba  Ba2  1  0.75085000  0.00000000  0.25484500  1
  Ba  Ba3  1  0.74915000  0.50000000  0.74515500  1
  Bi  Bi4  1  0.00000000  0.00000000  0.00000000  1
  Bi  Bi5  1  0.50000000  0.50000000  0.00000000  1
  Sb  Sb6  1  0.50000000  0.00000000  0.50000000  1
  Sb  Sb7  1  0.00000000  0.50000000  0.50000000  1
  O  O8  1  0.97039000  0.73403000  0.70089400  1
  O  O9  1  0.02961000  0.73403000  0.29910600  1
  O  O10  1  0.52961000  0.76597000  0.29910600  1
  O  O11  1  0.47039000  0.76597000  0.70089400  1
  O  O12  1  0.76857900  0.50000000  0.21381600  1
  O  O13  1  0.73142100  0.00000000  0.78618400  1
  O  O14  1  0.47039000  0.23403000  0.70089400  1
  O  O15  1  0.52961000  0.23403000  0.29910600  1
  O  O16  1  0.02961000  0.26597000  0.29910600  1
  O  O17  1  0.97039000  0.26597000  0.70089400  1
  O  O18  1  0.26857900  0.00000000  0.21381600  1
  O  O19  1  0.23142100  0.50000000  0.78618400  1
