# generated using pymatgen
data_Na2Te2O5
_symmetry_space_group_name_H-M   'P 1'
_cell_length_a   23.90847800
_cell_length_b   4.97636000
_cell_length_c   9.97121012
_cell_angle_alpha   90.00000000
_cell_angle_beta   102.85807416
_cell_angle_gamma   90.00000000
_symmetry_Int_Tables_number   1
_chemical_formula_structural   Na2Te2O5
_chemical_formula_sum   'Na16 Te16 O40'
_cell_volume   1156.59811980
_cell_formula_units_Z   8
loop_
 _symmetry_equiv_pos_site_id
 _symmetry_equiv_pos_as_xyz
  1  'x, y, z'
loop_
 _atom_site_type_symbol
 _atom_site_label
 _atom_site_symmetry_multiplicity
 _atom_site_fract_x
 _atom_site_fract_y
 _atom_site_fract_z
 _atom_site_occupancy
  Na  Na0  1  0.32877900  0.48980600  0.79435300  1
  Na  Na1  1  0.17122100  0.98980600  0.70564700  1
  Na  Na2  1  0.17122100  0.01019400  0.20564700  1
  Na  Na3  1  0.32877900  0.51019400  0.29435300  1
  Na  Na4  1  0.44843050  0.51205650  0.58817700  1
  Na  Na5  1  0.05156950  0.01205650  0.91182300  1
  Na  Na6  1  0.05156950  0.98794350  0.41182300  1
  Na  Na7  1  0.44843050  0.48794350  0.08817700  1
  Na  Na8  1  0.82877900  0.98980600  0.79435300  1
  Na  Na9  1  0.67122100  0.48980600  0.70564700  1
  Na  Na10  1  0.67122100  0.51019400  0.20564700  1
  Na  Na11  1  0.82877900  0.01019400  0.29435300  1
  Na  Na12  1  0.94843050  0.01205650  0.58817700  1
  Na  Na13  1  0.55156950  0.51205650  0.91182300  1
  Na  Na14  1  0.55156950  0.48794350  0.41182300  1
  Na  Na15  1  0.94843050  0.98794350  0.08817700  1
  Te  Te16  1  0.44086850  0.98896050  0.81954000  1
  Te  Te17  1  0.05913150  0.48896050  0.68046000  1
  Te  Te18  1  0.05913150  0.51103950  0.18046000  1
  Te  Te19  1  0.44086850  0.01103950  0.31954000  1
  Te  Te20  1  0.31076950  0.90462650  0.54726600  1
  Te  Te21  1  0.18923050  0.40462650  0.95273400  1
  Te  Te22  1  0.18923050  0.59537350  0.45273400  1
  Te  Te23  1  0.31076950  0.09537350  0.04726600  1
  Te  Te24  1  0.94086850  0.48896050  0.81954000  1
  Te  Te25  1  0.55913150  0.98896050  0.68046000  1
  Te  Te26  1  0.55913150  0.01103950  0.18046000  1
  Te  Te27  1  0.94086850  0.51103950  0.31954000  1
  Te  Te28  1  0.81076950  0.40462650  0.54726600  1
  Te  Te29  1  0.68923050  0.90462650  0.95273400  1
  Te  Te30  1  0.68923050  0.09537350  0.45273400  1
  Te  Te31  1  0.81076950  0.59537350  0.04726600  1
  O  O32  1  0.25364050  0.74824250  0.63424700  1
  O  O33  1  0.24635950  0.24824250  0.86575300  1
  O  O34  1  0.24635950  0.75175750  0.36575300  1
  O  O35  1  0.25364050  0.25175750  0.13424700  1
  O  O36  1  0.35488900  0.99260800  0.74995400  1
  O  O37  1  0.14511100  0.49260800  0.75004600  1
  O  O38  1  0.14511100  0.50739200  0.25004600  1
  O  O39  1  0.35488900  0.00739200  0.24995400  1
  O  O40  1  0.45519200  0.02227300  0.63803100  1
  O  O41  1  0.04480800  0.52227300  0.86196900  1
  O  O42  1  0.04480800  0.47772700  0.36196900  1
  O  O43  1  0.45519200  0.97772700  0.13803100  1
  O  O44  1  0.44784700  0.61494900  0.84496300  1
  O  O45  1  0.05215300  0.11494900  0.65503700  1
  O  O46  1  0.05215300  0.88505100  0.15503700  1
  O  O47  1  0.44784700  0.38505100  0.34496300  1
  O  O48  1  0.35198500  0.40784300  0.03658500  1
  O  O49  1  0.14801500  0.90784300  0.46341500  1
  O  O50  1  0.14801500  0.09215700  0.96341500  1
  O  O51  1  0.35198500  0.59215700  0.53658500  1
  O  O52  1  0.75364050  0.24824250  0.63424700  1
  O  O53  1  0.74635950  0.74824250  0.86575300  1
  O  O54  1  0.74635950  0.25175750  0.36575300  1
  O  O55  1  0.75364050  0.75175750  0.13424700  1
  O  O56  1  0.85488900  0.49260800  0.74995400  1
  O  O57  1  0.64511100  0.99260800  0.75004600  1
  O  O58  1  0.64511100  0.00739200  0.25004600  1
  O  O59  1  0.85488900  0.50739200  0.24995400  1
  O  O60  1  0.95519200  0.52227300  0.63803100  1
  O  O61  1  0.54480800  0.02227300  0.86196900  1
  O  O62  1  0.54480800  0.97772700  0.36196900  1
  O  O63  1  0.95519200  0.47772700  0.13803100  1
  O  O64  1  0.94784700  0.11494900  0.84496300  1
  O  O65  1  0.55215300  0.61494900  0.65503700  1
  O  O66  1  0.55215300  0.38505100  0.15503700  1
  O  O67  1  0.94784700  0.88505100  0.34496300  1
  O  O68  1  0.85198500  0.90784300  0.03658500  1
  O  O69  1  0.64801500  0.40784300  0.46341500  1
  O  O70  1  0.64801500  0.59215700  0.96341500  1
  O  O71  1  0.85198500  0.09215700  0.53658500  1
