# generated using pymatgen
data_Be(BH4)2
_symmetry_space_group_name_H-M   'P 1'
_cell_length_a   13.69169600
_cell_length_b   13.69169600
_cell_length_c   9.10307200
_cell_angle_alpha   90.00000000
_cell_angle_beta   90.00000000
_cell_angle_gamma   90.00000000
_symmetry_Int_Tables_number   1
_chemical_formula_structural   Be(BH4)2
_chemical_formula_sum   'Be16 B32 H128'
_cell_volume   1706.48499306
_cell_formula_units_Z   16
loop_
 _symmetry_equiv_pos_site_id
 _symmetry_equiv_pos_as_xyz
  1  'x, y, z'
loop_
 _atom_site_type_symbol
 _atom_site_label
 _atom_site_symmetry_multiplicity
 _atom_site_fract_x
 _atom_site_fract_y
 _atom_site_fract_z
 _atom_site_occupancy
  Be  Be0  1  0.58961850  0.79921050  0.99919450  1
  Be  Be1  1  0.41038150  0.20078950  0.99919450  1
  Be  Be2  1  0.79921050  0.91038150  0.74919450  1
  Be  Be3  1  0.20078950  0.08961850  0.74919450  1
  Be  Be4  1  0.41038150  0.79921050  0.49919450  1
  Be  Be5  1  0.79921050  0.08961850  0.24919450  1
  Be  Be6  1  0.20078950  0.91038150  0.24919450  1
  Be  Be7  1  0.58961850  0.20078950  0.49919450  1
  Be  Be8  1  0.08961850  0.29921050  0.49919450  1
  Be  Be9  1  0.91038150  0.70078950  0.49919450  1
  Be  Be10  1  0.29921050  0.41038150  0.24919450  1
  Be  Be11  1  0.70078950  0.58961850  0.24919450  1
  Be  Be12  1  0.91038150  0.29921050  0.99919450  1
  Be  Be13  1  0.29921050  0.58961850  0.74919450  1
  Be  Be14  1  0.70078950  0.41038150  0.74919450  1
  Be  Be15  1  0.08961850  0.70078950  0.99919450  1
  B  B16  1  0.69372250  0.86001950  0.87806150  1
  B  B17  1  0.30627750  0.13998050  0.87806150  1
  B  B18  1  0.36001950  0.30627750  0.12806150  1
  B  B19  1  0.63998050  0.69372250  0.12806150  1
  B  B20  1  0.30627750  0.86001950  0.37806150  1
  B  B21  1  0.36001950  0.69372250  0.62806150  1
  B  B22  1  0.63998050  0.30627750  0.62806150  1
  B  B23  1  0.69372250  0.13998050  0.37806150  1
  B  B24  1  0.45484050  0.83529550  0.99134850  1
  B  B25  1  0.54515950  0.16470450  0.99134850  1
  B  B26  1  0.83529550  0.04515950  0.74134850  1
  B  B27  1  0.16470450  0.95484050  0.74134850  1
  B  B28  1  0.54515950  0.83529550  0.49134850  1
  B  B29  1  0.83529550  0.95484050  0.24134850  1
  B  B30  1  0.16470450  0.04515950  0.24134850  1
  B  B31  1  0.45484050  0.16470450  0.49134850  1
  B  B32  1  0.19372250  0.36001950  0.37806150  1
  B  B33  1  0.80627750  0.63998050  0.37806150  1
  B  B34  1  0.86001950  0.80627750  0.62806150  1
  B  B35  1  0.13998050  0.19372250  0.62806150  1
  B  B36  1  0.80627750  0.36001950  0.87806150  1
  B  B37  1  0.86001950  0.19372250  0.12806150  1
  B  B38  1  0.13998050  0.80627750  0.12806150  1
  B  B39  1  0.19372250  0.63998050  0.87806150  1
  B  B40  1  0.95484050  0.33529550  0.49134850  1
  B  B41  1  0.04515950  0.66470450  0.49134850  1
  B  B42  1  0.33529550  0.54515950  0.24134850  1
  B  B43  1  0.66470450  0.45484050  0.24134850  1
  B  B44  1  0.04515950  0.33529550  0.99134850  1
  B  B45  1  0.33529550  0.45484050  0.74134850  1
  B  B46  1  0.66470450  0.54515950  0.74134850  1
  B  B47  1  0.95484050  0.66470450  0.99134850  1
  H  H48  1  0.67707900  0.91045000  0.76942300  1
  H  H49  1  0.32292100  0.08955000  0.76942300  1
  H  H50  1  0.41045000  0.32292100  0.01942300  1
  H  H51  1  0.58955000  0.67707900  0.01942300  1
  H  H52  1  0.32292100  0.91045000  0.26942300  1
  H  H53  1  0.41045000  0.67707900  0.51942300  1
  H  H54  1  0.58955000  0.32292100  0.51942300  1
  H  H55  1  0.67707900  0.08955000  0.26942300  1
  H  H56  1  0.78046700  0.84929300  0.90787600  1
  H  H57  1  0.21953300  0.15070700  0.90787600  1
  H  H58  1  0.34929300  0.21953300  0.15787600  1
  H  H59  1  0.65070700  0.78046700  0.15787600  1
  H  H60  1  0.21953300  0.84929300  0.40787600  1
  H  H61  1  0.34929300  0.78046700  0.65787600  1
  H  H62  1  0.65070700  0.21953300  0.65787600  1
  H  H63  1  0.78046700  0.15070700  0.40787600  1
  H  H64  1  0.66071150  0.77848850  0.85242950  1
  H  H65  1  0.33928850  0.22151150  0.85242950  1
  H  H66  1  0.77848850  0.83928850  0.60242950  1
  H  H67  1  0.22151150  0.16071150  0.60242950  1
  H  H68  1  0.33928850  0.77848850  0.35242950  1
  H  H69  1  0.65614800  0.90282300  0.98220300  1
  H  H70  1  0.77848850  0.16071150  0.10242950  1
  H  H71  1  0.66071150  0.22151150  0.35242950  1
  H  H72  1  0.42590500  0.09030700  0.43591200  1
  H  H73  1  0.09030700  0.07409500  0.18591200  1
  H  H74  1  0.90969300  0.92590500  0.18591200  1
  H  H75  1  0.57409500  0.90969300  0.43591200  1
  H  H76  1  0.09030700  0.92590500  0.68591200  1
  H  H77  1  0.90969300  0.07409500  0.68591200  1
  H  H78  1  0.57409500  0.09030700  0.93591200  1
  H  H79  1  0.42590500  0.90969300  0.93591200  1
  H  H80  1  0.39588950  0.21982350  0.54396150  1
  H  H81  1  0.21982350  0.10411050  0.29396150  1
  H  H82  1  0.78017650  0.89588950  0.29396150  1
  H  H83  1  0.60411050  0.78017650  0.54396150  1
  H  H84  1  0.21982350  0.89588950  0.79396150  1
  H  H85  1  0.78017650  0.10411050  0.79396150  1
  H  H86  1  0.60411050  0.21982350  0.04396150  1
  H  H87  1  0.39588950  0.78017650  0.04396150  1
  H  H88  1  0.50121300  0.21099800  0.39410200  1
  H  H89  1  0.21099800  0.99878700  0.14410200  1
  H  H90  1  0.78900200  0.00121300  0.14410200  1
  H  H91  1  0.49878700  0.78900200  0.39410200  1
  H  H92  1  0.21099800  0.00121300  0.64410200  1
  H  H93  1  0.78900200  0.99878700  0.64410200  1
  H  H94  1  0.49878700  0.21099800  0.89410200  1
  H  H95  1  0.50121300  0.78900200  0.89410200  1
  H  H96  1  0.51455800  0.14144100  0.59078800  1
  H  H97  1  0.14144100  0.98544200  0.34078800  1
  H  H98  1  0.85855900  0.01455800  0.34078800  1
  H  H99  1  0.48544200  0.85855900  0.59078800  1
  H  H100  1  0.14144100  0.01455800  0.84078800  1
  H  H101  1  0.85855900  0.98544200  0.84078800  1
  H  H102  1  0.48544200  0.14144100  0.09078800  1
  H  H103  1  0.51455800  0.85855900  0.09078800  1
  H  H104  1  0.65614800  0.09717700  0.48220300  1
  H  H105  1  0.59717700  0.34385200  0.73220300  1
  H  H106  1  0.40282300  0.65614800  0.73220300  1
  H  H107  1  0.34385200  0.90282300  0.48220300  1
  H  H108  1  0.59717700  0.65614800  0.23220300  1
  H  H109  1  0.40282300  0.34385200  0.23220300  1
  H  H110  1  0.34385200  0.09717700  0.98220300  1
  H  H111  1  0.22151150  0.83928850  0.10242950  1
  H  H112  1  0.17707900  0.41045000  0.26942300  1
  H  H113  1  0.82292100  0.58955000  0.26942300  1
  H  H114  1  0.91045000  0.82292100  0.51942300  1
  H  H115  1  0.08955000  0.17707900  0.51942300  1
  H  H116  1  0.82292100  0.41045000  0.76942300  1
  H  H117  1  0.91045000  0.17707900  0.01942300  1
  H  H118  1  0.08955000  0.82292100  0.01942300  1
  H  H119  1  0.17707900  0.58955000  0.76942300  1
  H  H120  1  0.28046700  0.34929300  0.40787600  1
  H  H121  1  0.71953300  0.65070700  0.40787600  1
  H  H122  1  0.84929300  0.71953300  0.65787600  1
  H  H123  1  0.15070700  0.28046700  0.65787600  1
  H  H124  1  0.71953300  0.34929300  0.90787600  1
  H  H125  1  0.84929300  0.28046700  0.15787600  1
  H  H126  1  0.15070700  0.71953300  0.15787600  1
  H  H127  1  0.28046700  0.65070700  0.90787600  1
  H  H128  1  0.16071150  0.27848850  0.35242950  1
  H  H129  1  0.83928850  0.72151150  0.35242950  1
  H  H130  1  0.27848850  0.33928850  0.10242950  1
  H  H131  1  0.72151150  0.66071150  0.10242950  1
  H  H132  1  0.83928850  0.27848850  0.85242950  1
  H  H133  1  0.15614800  0.40282300  0.48220300  1
  H  H134  1  0.27848850  0.66071150  0.60242950  1
  H  H135  1  0.16071150  0.72151150  0.85242950  1
  H  H136  1  0.92590500  0.59030700  0.93591200  1
  H  H137  1  0.59030700  0.57409500  0.68591200  1
  H  H138  1  0.40969300  0.42590500  0.68591200  1
  H  H139  1  0.07409500  0.40969300  0.93591200  1
  H  H140  1  0.59030700  0.42590500  0.18591200  1
  H  H141  1  0.40969300  0.57409500  0.18591200  1
  H  H142  1  0.07409500  0.59030700  0.43591200  1
  H  H143  1  0.92590500  0.40969300  0.43591200  1
  H  H144  1  0.89588950  0.71982350  0.04396150  1
  H  H145  1  0.71982350  0.60411050  0.79396150  1
  H  H146  1  0.28017650  0.39588950  0.79396150  1
  H  H147  1  0.10411050  0.28017650  0.04396150  1
  H  H148  1  0.71982350  0.39588950  0.29396150  1
  H  H149  1  0.28017650  0.60411050  0.29396150  1
  H  H150  1  0.10411050  0.71982350  0.54396150  1
  H  H151  1  0.89588950  0.28017650  0.54396150  1
  H  H152  1  0.00121300  0.71099800  0.89410200  1
  H  H153  1  0.71099800  0.49878700  0.64410200  1
  H  H154  1  0.28900200  0.50121300  0.64410200  1
  H  H155  1  0.99878700  0.28900200  0.89410200  1
  H  H156  1  0.71099800  0.50121300  0.14410200  1
  H  H157  1  0.28900200  0.49878700  0.14410200  1
  H  H158  1  0.99878700  0.71099800  0.39410200  1
  H  H159  1  0.00121300  0.28900200  0.39410200  1
  H  H160  1  0.01455800  0.64144100  0.09078800  1
  H  H161  1  0.64144100  0.48544200  0.84078800  1
  H  H162  1  0.35855900  0.51455800  0.84078800  1
  H  H163  1  0.98544200  0.35855900  0.09078800  1
  H  H164  1  0.64144100  0.51455800  0.34078800  1
  H  H165  1  0.35855900  0.48544200  0.34078800  1
  H  H166  1  0.98544200  0.64144100  0.59078800  1
  H  H167  1  0.01455800  0.35855900  0.59078800  1
  H  H168  1  0.15614800  0.59717700  0.98220300  1
  H  H169  1  0.09717700  0.84385200  0.23220300  1
  H  H170  1  0.90282300  0.15614800  0.23220300  1
  H  H171  1  0.84385200  0.40282300  0.98220300  1
  H  H172  1  0.09717700  0.15614800  0.73220300  1
  H  H173  1  0.90282300  0.84385200  0.73220300  1
  H  H174  1  0.84385200  0.59717700  0.48220300  1
  H  H175  1  0.72151150  0.33928850  0.60242950  1
