# generated using pymatgen
data_Cs2MnSnTe4
_symmetry_space_group_name_H-M   'P 1'
_cell_length_a   6.80935200
_cell_length_b   15.69058600
_cell_length_c   26.26884000
_cell_angle_alpha   90.00000000
_cell_angle_beta   90.00000000
_cell_angle_gamma   90.00000000
_symmetry_Int_Tables_number   1
_chemical_formula_structural   Cs2MnSnTe4
_chemical_formula_sum   'Cs16 Mn8 Sn8 Te32'
_cell_volume   2806.63439986
_cell_formula_units_Z   8
loop_
 _symmetry_equiv_pos_site_id
 _symmetry_equiv_pos_as_xyz
  1  'x, y, z'
loop_
 _atom_site_type_symbol
 _atom_site_label
 _atom_site_symmetry_multiplicity
 _atom_site_fract_x
 _atom_site_fract_y
 _atom_site_fract_z
 _atom_site_occupancy
  Cs  Cs0  1  0.00000000  0.00000000  0.81572900  1
  Cs  Cs1  1  0.50000000  0.00000000  0.68427100  1
  Cs  Cs2  1  0.25000000  0.75000000  0.93427100  1
  Cs  Cs3  1  0.25000000  0.75000000  0.56572900  1
  Cs  Cs4  1  0.00000000  0.50000000  0.31572900  1
  Cs  Cs5  1  0.50000000  0.50000000  0.18427100  1
  Cs  Cs6  1  0.25000000  0.25000000  0.43427100  1
  Cs  Cs7  1  0.25000000  0.25000000  0.06572900  1
  Cs  Cs8  1  0.50000000  0.00000000  0.31572900  1
  Cs  Cs9  1  0.00000000  0.00000000  0.18427100  1
  Cs  Cs10  1  0.75000000  0.75000000  0.43427100  1
  Cs  Cs11  1  0.75000000  0.75000000  0.06572900  1
  Cs  Cs12  1  0.50000000  0.50000000  0.81572900  1
  Cs  Cs13  1  0.00000000  0.50000000  0.68427100  1
  Cs  Cs14  1  0.75000000  0.25000000  0.93427100  1
  Cs  Cs15  1  0.75000000  0.25000000  0.56572900  1
  Mn  Mn16  1  0.75000000  0.75000000  0.75000000  1
  Mn  Mn17  1  0.50000000  0.00000000  0.00000000  1
  Mn  Mn18  1  0.75000000  0.25000000  0.25000000  1
  Mn  Mn19  1  0.50000000  0.50000000  0.50000000  1
  Mn  Mn20  1  0.25000000  0.75000000  0.25000000  1
  Mn  Mn21  1  0.00000000  0.00000000  0.50000000  1
  Mn  Mn22  1  0.25000000  0.25000000  0.75000000  1
  Mn  Mn23  1  0.00000000  0.50000000  0.00000000  1
  Sn  Sn24  1  0.25000000  0.75000000  0.75000000  1
  Sn  Sn25  1  0.00000000  0.00000000  0.00000000  1
  Sn  Sn26  1  0.25000000  0.25000000  0.25000000  1
  Sn  Sn27  1  0.00000000  0.50000000  0.50000000  1
  Sn  Sn28  1  0.75000000  0.75000000  0.25000000  1
  Sn  Sn29  1  0.50000000  0.00000000  0.50000000  1
  Sn  Sn30  1  0.75000000  0.25000000  0.75000000  1
  Sn  Sn31  1  0.50000000  0.50000000  0.00000000  1
  Te  Te32  1  0.74755600  0.59784850  0.55999950  1
  Te  Te33  1  0.74755600  0.90215150  0.94000050  1
  Te  Te34  1  0.75244400  0.59784850  0.94000050  1
  Te  Te35  1  0.75244400  0.90215150  0.55999950  1
  Te  Te36  1  0.50244400  0.65215150  0.69000050  1
  Te  Te37  1  0.50244400  0.84784850  0.80999950  1
  Te  Te38  1  0.99755600  0.65215150  0.80999950  1
  Te  Te39  1  0.99755600  0.84784850  0.69000050  1
  Te  Te40  1  0.74755600  0.09784850  0.05999950  1
  Te  Te41  1  0.74755600  0.40215150  0.44000050  1
  Te  Te42  1  0.75244400  0.09784850  0.44000050  1
  Te  Te43  1  0.75244400  0.40215150  0.05999950  1
  Te  Te44  1  0.50244400  0.15215150  0.19000050  1
  Te  Te45  1  0.50244400  0.34784850  0.30999950  1
  Te  Te46  1  0.99755600  0.15215150  0.30999950  1
  Te  Te47  1  0.99755600  0.34784850  0.19000050  1
  Te  Te48  1  0.24755600  0.59784850  0.05999950  1
  Te  Te49  1  0.24755600  0.90215150  0.44000050  1
  Te  Te50  1  0.25244400  0.59784850  0.44000050  1
  Te  Te51  1  0.25244400  0.90215150  0.05999950  1
  Te  Te52  1  0.00244400  0.65215150  0.19000050  1
  Te  Te53  1  0.00244400  0.84784850  0.30999950  1
  Te  Te54  1  0.49755600  0.65215150  0.30999950  1
  Te  Te55  1  0.49755600  0.84784850  0.19000050  1
  Te  Te56  1  0.24755600  0.09784850  0.55999950  1
  Te  Te57  1  0.24755600  0.40215150  0.94000050  1
  Te  Te58  1  0.25244400  0.09784850  0.94000050  1
  Te  Te59  1  0.25244400  0.40215150  0.55999950  1
  Te  Te60  1  0.00244400  0.15215150  0.69000050  1
  Te  Te61  1  0.00244400  0.34784850  0.80999950  1
  Te  Te62  1  0.49755600  0.15215150  0.80999950  1
  Te  Te63  1  0.49755600  0.34784850  0.69000050  1
