# generated using pymatgen
data_LiBi(PO3)4
_symmetry_space_group_name_H-M   'P 1'
_cell_length_a   17.70441400
_cell_length_b   12.11804200
_cell_length_c   5.30673978
_cell_angle_alpha   90.00000000
_cell_angle_beta   105.16204473
_cell_angle_gamma   90.00000000
_symmetry_Int_Tables_number   1
_chemical_formula_structural   LiBi(PO3)4
_chemical_formula_sum   'Li4 Bi4 P16 O48'
_cell_volume   1098.89096226
_cell_formula_units_Z   4
loop_
 _symmetry_equiv_pos_site_id
 _symmetry_equiv_pos_as_xyz
  1  'x, y, z'
loop_
 _atom_site_type_symbol
 _atom_site_label
 _atom_site_symmetry_multiplicity
 _atom_site_fract_x
 _atom_site_fract_y
 _atom_site_fract_z
 _atom_site_occupancy
  Li  Li0  1  0.25000000  0.25000000  0.00000000  1
  Li  Li1  1  0.25000000  0.75000000  0.00000000  1
  Li  Li2  1  0.75000000  0.75000000  0.00000000  1
  Li  Li3  1  0.75000000  0.25000000  0.00000000  1
  Bi  Bi4  1  0.64855200  0.00000000  0.68997000  1
  Bi  Bi5  1  0.35144800  0.00000000  0.31003000  1
  Bi  Bi6  1  0.14855200  0.50000000  0.68997000  1
  Bi  Bi7  1  0.85144800  0.50000000  0.31003000  1
  P  P8  1  0.18300850  0.88163950  0.46240700  1
  P  P9  1  0.41586900  0.80789400  0.83553500  1
  P  P10  1  0.58413100  0.19210600  0.16446500  1
  P  P11  1  0.58413100  0.80789400  0.16446500  1
  P  P12  1  0.81699150  0.11836050  0.53759300  1
  P  P13  1  0.41586900  0.19210600  0.83553500  1
  P  P14  1  0.18300850  0.11836050  0.46240700  1
  P  P15  1  0.81699150  0.88163950  0.53759300  1
  P  P16  1  0.68300850  0.38163950  0.46240700  1
  P  P17  1  0.91586900  0.30789400  0.83553500  1
  P  P18  1  0.08413100  0.69210600  0.16446500  1
  P  P19  1  0.08413100  0.30789400  0.16446500  1
  P  P20  1  0.31699150  0.61836050  0.53759300  1
  P  P21  1  0.91586900  0.69210600  0.83553500  1
  P  P22  1  0.68300850  0.61836050  0.46240700  1
  P  P23  1  0.31699150  0.38163950  0.53759300  1
  O  O24  1  0.25412150  0.12407050  0.34850300  1
  O  O25  1  0.19461450  0.85594350  0.74249200  1
  O  O26  1  0.50000000  0.23325300  0.00000000  1
  O  O27  1  0.50000000  0.76674700  0.00000000  1
  O  O28  1  0.80538550  0.14405650  0.25750800  1
  O  O29  1  0.80538550  0.85594350  0.25750800  1
  O  O30  1  0.36759750  0.15008850  0.01066500  1
  O  O31  1  0.36759750  0.84991150  0.01066500  1
  O  O32  1  0.61499950  0.31010650  0.27604800  1
  O  O33  1  0.61499950  0.68989350  0.27604800  1
  O  O34  1  0.57294300  0.11614000  0.37732300  1
  O  O35  1  0.57294300  0.88386000  0.37732300  1
  O  O36  1  0.85833800  0.00000000  0.61127500  1
  O  O37  1  0.74587850  0.12407050  0.65149700  1
  O  O38  1  0.63240250  0.84991150  0.98933500  1
  O  O39  1  0.25412150  0.87592950  0.34850300  1
  O  O40  1  0.74587850  0.87592950  0.65149700  1
  O  O41  1  0.14166200  0.00000000  0.38872500  1
  O  O42  1  0.42705700  0.11614000  0.62267700  1
  O  O43  1  0.42705700  0.88386000  0.62267700  1
  O  O44  1  0.38500050  0.31010650  0.72395200  1
  O  O45  1  0.38500050  0.68989350  0.72395200  1
  O  O46  1  0.63240250  0.15008850  0.98933500  1
  O  O47  1  0.19461450  0.14405650  0.74249200  1
  O  O48  1  0.75412150  0.62407050  0.34850300  1
  O  O49  1  0.69461450  0.35594350  0.74249200  1
  O  O50  1  0.00000000  0.73325300  0.00000000  1
  O  O51  1  0.00000000  0.26674700  0.00000000  1
  O  O52  1  0.30538550  0.64405650  0.25750800  1
  O  O53  1  0.30538550  0.35594350  0.25750800  1
  O  O54  1  0.86759750  0.65008850  0.01066500  1
  O  O55  1  0.86759750  0.34991150  0.01066500  1
  O  O56  1  0.11499950  0.81010650  0.27604800  1
  O  O57  1  0.11499950  0.18989350  0.27604800  1
  O  O58  1  0.07294300  0.61614000  0.37732300  1
  O  O59  1  0.07294300  0.38386000  0.37732300  1
  O  O60  1  0.35833800  0.50000000  0.61127500  1
  O  O61  1  0.24587850  0.62407050  0.65149700  1
  O  O62  1  0.13240250  0.34991150  0.98933500  1
  O  O63  1  0.75412150  0.37592950  0.34850300  1
  O  O64  1  0.24587850  0.37592950  0.65149700  1
  O  O65  1  0.64166200  0.50000000  0.38872500  1
  O  O66  1  0.92705700  0.61614000  0.62267700  1
  O  O67  1  0.92705700  0.38386000  0.62267700  1
  O  O68  1  0.88500050  0.81010650  0.72395200  1
  O  O69  1  0.88500050  0.18989350  0.72395200  1
  O  O70  1  0.13240250  0.65008850  0.98933500  1
  O  O71  1  0.69461450  0.64405650  0.74249200  1
