# generated using pymatgen
data_LiP7
_symmetry_space_group_name_H-M   'P 1'
_cell_length_a   13.62978000
_cell_length_b   13.62978000
_cell_length_c   14.83234800
_cell_angle_alpha   90.00000000
_cell_angle_beta   90.00000000
_cell_angle_gamma   90.00000000
_symmetry_Int_Tables_number   1
_chemical_formula_structural   LiP7
_chemical_formula_sum   'Li16 P112'
_cell_volume   2755.41867932
_cell_formula_units_Z   16
loop_
 _symmetry_equiv_pos_site_id
 _symmetry_equiv_pos_as_xyz
  1  'x, y, z'
loop_
 _atom_site_type_symbol
 _atom_site_label
 _atom_site_symmetry_multiplicity
 _atom_site_fract_x
 _atom_site_fract_y
 _atom_site_fract_z
 _atom_site_occupancy
  Li  Li0  1  0.36875700  0.36875700  0.75000000  1
  Li  Li1  1  0.13124300  0.36875700  0.50000000  1
  Li  Li2  1  0.36875700  0.13124300  0.00000000  1
  Li  Li3  1  0.13124300  0.13124300  0.25000000  1
  Li  Li4  1  0.13124300  0.63124300  0.00000000  1
  Li  Li5  1  0.86875700  0.13124300  0.75000000  1
  Li  Li6  1  0.13124300  0.86875700  0.75000000  1
  Li  Li7  1  0.36875700  0.86875700  0.50000000  1
  Li  Li8  1  0.86875700  0.86875700  0.25000000  1
  Li  Li9  1  0.63124300  0.86875700  0.00000000  1
  Li  Li10  1  0.86875700  0.63124300  0.50000000  1
  Li  Li11  1  0.63124300  0.63124300  0.75000000  1
  Li  Li12  1  0.63124300  0.13124300  0.50000000  1
  Li  Li13  1  0.36875700  0.63124300  0.25000000  1
  Li  Li14  1  0.63124300  0.36875700  0.25000000  1
  Li  Li15  1  0.86875700  0.36875700  0.00000000  1
  P  P16  1  0.17829750  0.20449250  0.58943650  1
  P  P17  1  0.29550750  0.17829750  0.33943650  1
  P  P18  1  0.20449250  0.32170250  0.83943650  1
  P  P19  1  0.32170250  0.20449250  0.66056350  1
  P  P20  1  0.17829750  0.29550750  0.16056350  1
  P  P21  1  0.32170250  0.29550750  0.08943650  1
  P  P22  1  0.29550750  0.32170250  0.41056350  1
  P  P23  1  0.20449250  0.17829750  0.91056350  1
  P  P24  1  0.82170250  0.29550750  0.66056350  1
  P  P25  1  0.20449250  0.82170250  0.41056350  1
  P  P26  1  0.29550750  0.67829750  0.91056350  1
  P  P27  1  0.17829750  0.79550750  0.08943650  1
  P  P28  1  0.32170250  0.70449250  0.58943650  1
  P  P29  1  0.67829750  0.20449250  0.16056350  1
  P  P30  1  0.70449250  0.17829750  0.83943650  1
  P  P31  1  0.79550750  0.32170250  0.33943650  1
  P  P32  1  0.18670900  0.05971900  0.52322200  1
  P  P33  1  0.44028100  0.18670900  0.27322200  1
  P  P34  1  0.55971900  0.81329100  0.27322200  1
  P  P35  1  0.81329100  0.55971900  0.22677800  1
  P  P36  1  0.18670900  0.44028100  0.22677800  1
  P  P37  1  0.31329100  0.44028100  0.02322200  1
  P  P38  1  0.44028100  0.31329100  0.47677800  1
  P  P39  1  0.05971900  0.18670900  0.97677800  1
  P  P40  1  0.31329100  0.94028100  0.22677800  1
  P  P41  1  0.55971900  0.31329100  0.97677800  1
  P  P42  1  0.94028100  0.18670900  0.47677800  1
  P  P43  1  0.68670900  0.44028100  0.52322200  1
  P  P44  1  0.81329100  0.05971900  0.02322200  1
  P  P45  1  0.68670900  0.05971900  0.22677800  1
  P  P46  1  0.05971900  0.68670900  0.27322200  1
  P  P47  1  0.94028100  0.31329100  0.27322200  1
  P  P48  1  0.42364600  0.17052300  0.54696800  1
  P  P49  1  0.32947700  0.42364600  0.29696800  1
  P  P50  1  0.17052300  0.07635400  0.79696800  1
  P  P51  1  0.07635400  0.17052300  0.70303200  1
  P  P52  1  0.42364600  0.32947700  0.20303200  1
  P  P53  1  0.07635400  0.32947700  0.04696800  1
  P  P54  1  0.32947700  0.07635400  0.45303200  1
  P  P55  1  0.17052300  0.42364600  0.95303200  1
  P  P56  1  0.57635400  0.32947700  0.70303200  1
  P  P57  1  0.67052300  0.07635400  0.95303200  1
  P  P58  1  0.82947700  0.42364600  0.45303200  1
  P  P59  1  0.92364600  0.32947700  0.54696800  1
  P  P60  1  0.57635400  0.17052300  0.04696800  1
  P  P61  1  0.92364600  0.17052300  0.20303200  1
  P  P62  1  0.17052300  0.92364600  0.29696800  1
  P  P63  1  0.32947700  0.57635400  0.79696800  1
  P  P64  1  0.54012950  0.25000000  0.37500000  1
  P  P65  1  0.25000000  0.54012950  0.12500000  1
  P  P66  1  0.25000000  0.95987050  0.62500000  1
  P  P67  1  0.45987050  0.75000000  0.37500000  1
  P  P68  1  0.45987050  0.25000000  0.87500000  1
  P  P69  1  0.75000000  0.95987050  0.12500000  1
  P  P70  1  0.25000000  0.04012950  0.12500000  1
  P  P71  1  0.04012950  0.25000000  0.37500000  1
  P  P72  1  0.67829750  0.70449250  0.08943650  1
  P  P73  1  0.79550750  0.67829750  0.83943650  1
  P  P74  1  0.70449250  0.82170250  0.33943650  1
  P  P75  1  0.82170250  0.70449250  0.16056350  1
  P  P76  1  0.67829750  0.79550750  0.66056350  1
  P  P77  1  0.82170250  0.79550750  0.58943650  1
  P  P78  1  0.79550750  0.82170250  0.91056350  1
  P  P79  1  0.70449250  0.67829750  0.41056350  1
  P  P80  1  0.32170250  0.79550750  0.16056350  1
  P  P81  1  0.70449250  0.32170250  0.91056350  1
  P  P82  1  0.79550750  0.17829750  0.41056350  1
  P  P83  1  0.67829750  0.29550750  0.58943650  1
  P  P84  1  0.82170250  0.20449250  0.08943650  1
  P  P85  1  0.17829750  0.70449250  0.66056350  1
  P  P86  1  0.20449250  0.67829750  0.33943650  1
  P  P87  1  0.29550750  0.82170250  0.83943650  1
  P  P88  1  0.68670900  0.55971900  0.02322200  1
  P  P89  1  0.94028100  0.68670900  0.77322200  1
  P  P90  1  0.05971900  0.31329100  0.77322200  1
  P  P91  1  0.31329100  0.05971900  0.72677800  1
  P  P92  1  0.68670900  0.94028100  0.72677800  1
  P  P93  1  0.81329100  0.94028100  0.52322200  1
  P  P94  1  0.94028100  0.81329100  0.97677800  1
  P  P95  1  0.55971900  0.68670900  0.47677800  1
  P  P96  1  0.81329100  0.44028100  0.72677800  1
  P  P97  1  0.05971900  0.81329100  0.47677800  1
  P  P98  1  0.44028100  0.68670900  0.97677800  1
  P  P99  1  0.18670900  0.94028100  0.02322200  1
  P  P100  1  0.31329100  0.55971900  0.52322200  1
  P  P101  1  0.18670900  0.55971900  0.72677800  1
  P  P102  1  0.55971900  0.18670900  0.77322200  1
  P  P103  1  0.44028100  0.81329100  0.77322200  1
  P  P104  1  0.92364600  0.67052300  0.04696800  1
  P  P105  1  0.82947700  0.92364600  0.79696800  1
  P  P106  1  0.67052300  0.57635400  0.29696800  1
  P  P107  1  0.57635400  0.67052300  0.20303200  1
  P  P108  1  0.92364600  0.82947700  0.70303200  1
  P  P109  1  0.57635400  0.82947700  0.54696800  1
  P  P110  1  0.82947700  0.57635400  0.95303200  1
  P  P111  1  0.67052300  0.92364600  0.45303200  1
  P  P112  1  0.07635400  0.82947700  0.20303200  1
  P  P113  1  0.17052300  0.57635400  0.45303200  1
  P  P114  1  0.32947700  0.92364600  0.95303200  1
  P  P115  1  0.42364600  0.82947700  0.04696800  1
  P  P116  1  0.07635400  0.67052300  0.54696800  1
  P  P117  1  0.42364600  0.67052300  0.70303200  1
  P  P118  1  0.67052300  0.42364600  0.79696800  1
  P  P119  1  0.82947700  0.07635400  0.29696800  1
  P  P120  1  0.04012950  0.75000000  0.87500000  1
  P  P121  1  0.75000000  0.04012950  0.62500000  1
  P  P122  1  0.75000000  0.45987050  0.12500000  1
  P  P123  1  0.95987050  0.25000000  0.87500000  1
  P  P124  1  0.95987050  0.75000000  0.37500000  1
  P  P125  1  0.25000000  0.45987050  0.62500000  1
  P  P126  1  0.75000000  0.54012950  0.62500000  1
  P  P127  1  0.54012950  0.75000000  0.87500000  1
