# generated using pymatgen
data_Cs2PbO3
_symmetry_space_group_name_H-M   'P 1'
_cell_length_a   7.92283400
_cell_length_b   11.56118000
_cell_length_c   6.20148200
_cell_angle_alpha   90.00000000
_cell_angle_beta   90.00000000
_cell_angle_gamma   90.00000000
_symmetry_Int_Tables_number   1
_chemical_formula_structural   Cs2PbO3
_chemical_formula_sum   'Cs8 Pb4 O12'
_cell_volume   568.03906911
_cell_formula_units_Z   4
loop_
 _symmetry_equiv_pos_site_id
 _symmetry_equiv_pos_as_xyz
  1  'x, y, z'
loop_
 _atom_site_type_symbol
 _atom_site_label
 _atom_site_symmetry_multiplicity
 _atom_site_fract_x
 _atom_site_fract_y
 _atom_site_fract_z
 _atom_site_occupancy
  Cs  Cs0  1  0.64585550  0.16281950  0.25000000  1
  Cs  Cs1  1  0.64585550  0.83718050  0.25000000  1
  Cs  Cs2  1  0.35414450  0.83718050  0.75000000  1
  Cs  Cs3  1  0.35414450  0.16281950  0.75000000  1
  Cs  Cs4  1  0.14585550  0.66281950  0.25000000  1
  Cs  Cs5  1  0.14585550  0.33718050  0.25000000  1
  Cs  Cs6  1  0.85414450  0.33718050  0.75000000  1
  Cs  Cs7  1  0.85414450  0.66281950  0.75000000  1
  Pb  Pb8  1  0.91165800  0.00000000  0.75000000  1
  Pb  Pb9  1  0.08834200  0.00000000  0.25000000  1
  Pb  Pb10  1  0.41165800  0.50000000  0.75000000  1
  Pb  Pb11  1  0.58834200  0.50000000  0.25000000  1
  O  O12  1  0.65013000  0.00000000  0.75000000  1
  O  O13  1  0.34987000  0.00000000  0.25000000  1
  O  O14  1  0.50000000  0.37544200  0.50000000  1
  O  O15  1  0.50000000  0.62455800  0.00000000  1
  O  O16  1  0.50000000  0.37544200  0.00000000  1
  O  O17  1  0.50000000  0.62455800  0.50000000  1
  O  O18  1  0.15013000  0.50000000  0.75000000  1
  O  O19  1  0.84987000  0.50000000  0.25000000  1
  O  O20  1  0.00000000  0.87544200  0.50000000  1
  O  O21  1  0.00000000  0.12455800  0.00000000  1
  O  O22  1  0.00000000  0.87544200  0.00000000  1
  O  O23  1  0.00000000  0.12455800  0.50000000  1
