# generated using pymatgen
data_Pt3I8
_symmetry_space_group_name_H-M   'P 1'
_cell_length_a   12.00844380
_cell_length_b   12.00844380
_cell_length_c   11.09447105
_cell_angle_alpha   90.00000000
_cell_angle_beta   90.00000000
_cell_angle_gamma   90.00000000
_symmetry_Int_Tables_number   1
_chemical_formula_structural   Pt3I8
_chemical_formula_sum   'Pt12 I32'
_cell_volume   1599.85293008
_cell_formula_units_Z   4
loop_
 _symmetry_equiv_pos_site_id
 _symmetry_equiv_pos_as_xyz
  1  'x, y, z'
loop_
 _atom_site_type_symbol
 _atom_site_label
 _atom_site_symmetry_multiplicity
 _atom_site_fract_x
 _atom_site_fract_y
 _atom_site_fract_z
 _atom_site_occupancy
  Pt  Pt0  1  0.62102638  0.12979539  0.51207236  1
  Pt  Pt1  1  0.37897362  0.87020461  0.01207236  1
  Pt  Pt2  1  0.37020461  0.12102638  0.26207236  1
  Pt  Pt3  1  0.62979539  0.87897362  0.76207236  1
  Pt  Pt4  1  0.12979539  0.62102638  0.48792764  1
  Pt  Pt5  1  0.12102638  0.37020461  0.73792764  1
  Pt  Pt6  1  0.87897362  0.62979539  0.23792764  1
  Pt  Pt7  1  0.87020461  0.37897362  0.98792764  1
  Pt  Pt8  1  0.12554355  0.12554355  0.50000000  1
  Pt  Pt9  1  0.62554355  0.37445645  0.75000000  1
  Pt  Pt10  1  0.37445645  0.62554355  0.25000000  1
  Pt  Pt11  1  0.87445645  0.87445645  0.00000000  1
  I  I12  1  0.35461621  0.12989962  0.49782335  1
  I  I13  1  0.64538379  0.87010038  0.99782335  1
  I  I14  1  0.37010038  0.85461621  0.24782335  1
  I  I15  1  0.62989962  0.14538379  0.74782335  1
  I  I16  1  0.12989962  0.35461621  0.50217665  1
  I  I17  1  0.85461621  0.37010038  0.75217665  1
  I  I18  1  0.14538379  0.62989962  0.25217665  1
  I  I19  1  0.87010038  0.64538379  0.00217665  1
  I  I20  1  0.89820052  0.12581146  0.47653637  1
  I  I21  1  0.10179948  0.87418854  0.97653637  1
  I  I22  1  0.37418854  0.39820052  0.22653637  1
  I  I23  1  0.62581146  0.60179948  0.72653637  1
  I  I24  1  0.09161044  0.37667539  0.97510584  1
  I  I25  1  0.87667539  0.40838956  0.22510584  1
  I  I26  1  0.12332461  0.59161044  0.72510584  1
  I  I27  1  0.90838956  0.62332461  0.47510584  1
  I  I28  1  0.40838956  0.87667539  0.77489416  1
  I  I29  1  0.59161044  0.12332461  0.27489416  1
  I  I30  1  0.37667539  0.09161044  0.02489416  1
  I  I31  1  0.62332461  0.90838956  0.52489416  1
  I  I32  1  0.64976820  0.38284852  0.98968873  1
  I  I33  1  0.88284852  0.85023180  0.23968873  1
  I  I34  1  0.11715148  0.14976820  0.73968873  1
  I  I35  1  0.35023180  0.61715148  0.48968873  1
  I  I36  1  0.85023180  0.88284852  0.76031127  1
  I  I37  1  0.14976820  0.11715148  0.26031127  1
  I  I38  1  0.38284852  0.64976820  0.01031127  1
  I  I39  1  0.61715148  0.35023180  0.51031127  1
  I  I40  1  0.87418854  0.10179948  0.02346363  1
  I  I41  1  0.60179948  0.62581146  0.27346363  1
  I  I42  1  0.39820052  0.37418854  0.77346363  1
  I  I43  1  0.12581146  0.89820052  0.52346363  1
