# generated using pymatgen
data_Ti(SiO3)2
_symmetry_space_group_name_H-M   'P 1'
_cell_length_a   9.75643800
_cell_length_b   8.83673600
_cell_length_c   5.36559774
_cell_angle_alpha   90.00000000
_cell_angle_beta   110.14491380
_cell_angle_gamma   90.00000000
_symmetry_Int_Tables_number   1
_chemical_formula_structural   Ti(SiO3)2
_chemical_formula_sum   'Ti4 Si8 O24'
_cell_volume   434.29589836
_cell_formula_units_Z   4
loop_
 _symmetry_equiv_pos_site_id
 _symmetry_equiv_pos_as_xyz
  1  'x, y, z'
loop_
 _atom_site_type_symbol
 _atom_site_label
 _atom_site_symmetry_multiplicity
 _atom_site_fract_x
 _atom_site_fract_y
 _atom_site_fract_z
 _atom_site_occupancy
  Ti  Ti0  1  0.00000000  0.11043000  0.25000000  1
  Ti  Ti1  1  0.00000000  0.88957000  0.75000000  1
  Ti  Ti2  1  0.50000000  0.61043000  0.25000000  1
  Ti  Ti3  1  0.50000000  0.38957000  0.75000000  1
  Si  Si4  1  0.20260250  0.41731750  0.25037000  1
  Si  Si5  1  0.20260250  0.58268250  0.75037000  1
  Si  Si6  1  0.79739750  0.41731750  0.24963000  1
  Si  Si7  1  0.79739750  0.58268250  0.74963000  1
  Si  Si8  1  0.70260250  0.91731750  0.25037000  1
  Si  Si9  1  0.70260250  0.08268250  0.75037000  1
  Si  Si10  1  0.29739750  0.91731750  0.24963000  1
  Si  Si11  1  0.29739750  0.08268250  0.74963000  1
  O  O12  1  0.38340400  0.43112400  0.36827300  1
  O  O13  1  0.38340400  0.56887600  0.86827300  1
  O  O14  1  0.13850950  0.24435350  0.22471200  1
  O  O15  1  0.14273250  0.50974250  0.45477300  1
  O  O16  1  0.13850950  0.75564650  0.72471200  1
  O  O17  1  0.14273250  0.49025750  0.95477300  1
  O  O18  1  0.85726750  0.50974250  0.04522700  1
  O  O19  1  0.86149050  0.24435350  0.27528800  1
  O  O20  1  0.85726750  0.49025750  0.54522700  1
  O  O21  1  0.86149050  0.75564650  0.77528800  1
  O  O22  1  0.61659600  0.43112400  0.13172700  1
  O  O23  1  0.61659600  0.56887600  0.63172700  1
  O  O24  1  0.88340400  0.93112400  0.36827300  1
  O  O25  1  0.88340400  0.06887600  0.86827300  1
  O  O26  1  0.63850950  0.74435350  0.22471200  1
  O  O27  1  0.64273250  0.00974250  0.45477300  1
  O  O28  1  0.63850950  0.25564650  0.72471200  1
  O  O29  1  0.64273250  0.99025750  0.95477300  1
  O  O30  1  0.35726750  0.00974250  0.04522700  1
  O  O31  1  0.36149050  0.74435350  0.27528800  1
  O  O32  1  0.35726750  0.99025750  0.54522700  1
  O  O33  1  0.36149050  0.25564650  0.77528800  1
  O  O34  1  0.11659600  0.93112400  0.13172700  1
  O  O35  1  0.11659600  0.06887600  0.63172700  1
