# generated using pymatgen
data_K2NaInP2
_symmetry_space_group_name_H-M   'P 1'
_cell_length_a   6.68226800
_cell_length_b   6.69293000
_cell_length_c   15.04334400
_cell_angle_alpha   90.00000000
_cell_angle_beta   90.00000000
_cell_angle_gamma   90.00000000
_symmetry_Int_Tables_number   1
_chemical_formula_structural   K2NaInP2
_chemical_formula_sum   'K8 Na4 In4 P8'
_cell_volume   672.79779445
_cell_formula_units_Z   4
loop_
 _symmetry_equiv_pos_site_id
 _symmetry_equiv_pos_as_xyz
  1  'x, y, z'
loop_
 _atom_site_type_symbol
 _atom_site_label
 _atom_site_symmetry_multiplicity
 _atom_site_fract_x
 _atom_site_fract_y
 _atom_site_fract_z
 _atom_site_occupancy
  K  K0  1  0.73824200  0.50000000  0.32269100  1
  K  K1  1  0.76175800  0.00000000  0.17730900  1
  K  K2  1  0.23824200  0.50000000  0.17730900  1
  K  K3  1  0.26175800  0.00000000  0.32269100  1
  K  K4  1  0.23824200  0.00000000  0.82269100  1
  K  K5  1  0.26175800  0.50000000  0.67730900  1
  K  K6  1  0.73824200  0.00000000  0.67730900  1
  K  K7  1  0.76175800  0.50000000  0.82269100  1
  Na  Na8  1  0.00000000  0.25000000  0.00000000  1
  Na  Na9  1  0.00000000  0.75000000  0.00000000  1
  Na  Na10  1  0.50000000  0.75000000  0.50000000  1
  Na  Na11  1  0.50000000  0.25000000  0.50000000  1
  In  In12  1  0.50000000  0.75000000  0.00000000  1
  In  In13  1  0.50000000  0.25000000  0.00000000  1
  In  In14  1  0.00000000  0.25000000  0.50000000  1
  In  In15  1  0.00000000  0.75000000  0.50000000  1
  P  P16  1  0.71520200  0.50000000  0.09922500  1
  P  P17  1  0.78479800  0.00000000  0.40077500  1
  P  P18  1  0.21520200  0.50000000  0.40077500  1
  P  P19  1  0.28479800  0.00000000  0.09922500  1
  P  P20  1  0.21520200  0.00000000  0.59922500  1
  P  P21  1  0.28479800  0.50000000  0.90077500  1
  P  P22  1  0.71520200  0.00000000  0.90077500  1
  P  P23  1  0.78479800  0.50000000  0.59922500  1
