# generated using pymatgen
data_KNa(BH4)2
_symmetry_space_group_name_H-M   'P 1'
_cell_length_a   4.59876755
_cell_length_b   4.59876755
_cell_length_c   20.96866221
_cell_angle_alpha   90.00000000
_cell_angle_beta   90.00000000
_cell_angle_gamma   120.00000000
_symmetry_Int_Tables_number   1
_chemical_formula_structural   KNa(BH4)2
_chemical_formula_sum   'K3 Na3 B6 H24'
_cell_volume   384.04690674
_cell_formula_units_Z   3
loop_
 _symmetry_equiv_pos_site_id
 _symmetry_equiv_pos_as_xyz
  1  'x, y, z'
loop_
 _atom_site_type_symbol
 _atom_site_label
 _atom_site_symmetry_multiplicity
 _atom_site_fract_x
 _atom_site_fract_y
 _atom_site_fract_z
 _atom_site_occupancy
  K  K0  1  0.33333333  0.66666667  0.16666667  1
  K  K1  1  1.00000000  1.00000000  0.50000000  1
  K  K2  1  0.66666667  0.33333333  0.83333333  1
  Na  Na3  1  0.00000000  0.00000000  0.00000000  1
  Na  Na4  1  0.66666667  0.33333333  0.33333333  1
  Na  Na5  1  0.33333333  0.66666667  0.66666667  1
  B  B6  1  0.66666667  0.33333333  0.07198533  1
  B  B7  1  0.00000000  0.00000000  0.26134800  1
  B  B8  1  0.33333333  0.66666667  0.40531867  1
  B  B9  1  0.66666667  0.33333333  0.59468133  1
  B  B10  1  0.00000000  0.00000000  0.73865200  1
  B  B11  1  0.33333333  0.66666667  0.92801467  1
  H  H12  1  0.66666667  0.33333333  0.01364933  1
  H  H13  1  0.00000000  0.00000000  0.31968400  1
  H  H14  1  0.37616333  0.18808167  0.09204767  1
  H  H15  1  0.81191833  0.62383667  0.09204767  1
  H  H16  1  0.81191833  0.18808167  0.09204767  1
  H  H17  1  0.85474833  0.70949667  0.24128567  1
  H  H18  1  0.85474833  0.14525167  0.24128567  1
  H  H19  1  0.29050333  0.14525167  0.24128567  1
  H  H20  1  0.33333333  0.66666667  0.34698267  1
  H  H21  1  0.66666667  0.33333333  0.65301733  1
  H  H22  1  0.04283000  0.52141500  0.42538100  1
  H  H23  1  0.47858500  0.95717000  0.42538100  1
  H  H24  1  0.47858500  0.52141500  0.42538100  1
  H  H25  1  0.52141500  0.04283000  0.57461900  1
  H  H26  1  0.52141500  0.47858500  0.57461900  1
  H  H27  1  0.95717000  0.47858500  0.57461900  1
  H  H28  1  0.00000000  0.00000000  0.68031600  1
  H  H29  1  0.33333333  0.66666667  0.98635067  1
  H  H30  1  0.70949667  0.85474833  0.75871433  1
  H  H31  1  0.14525167  0.29050333  0.75871433  1
  H  H32  1  0.14525167  0.85474833  0.75871433  1
  H  H33  1  0.18808167  0.37616333  0.90795233  1
  H  H34  1  0.18808167  0.81191833  0.90795233  1
  H  H35  1  0.62383667  0.81191833  0.90795233  1
