# generated using pymatgen
data_K4MnBr6
_symmetry_space_group_name_H-M   'P 1'
_cell_length_a   12.84412438
_cell_length_b   12.84412438
_cell_length_c   15.80160170
_cell_angle_alpha   90.00000000
_cell_angle_beta   90.00000000
_cell_angle_gamma   120.00000000
_symmetry_Int_Tables_number   1
_chemical_formula_structural   K4MnBr6
_chemical_formula_sum   'K24 Mn6 Br36'
_cell_volume   2257.56751623
_cell_formula_units_Z   6
loop_
 _symmetry_equiv_pos_site_id
 _symmetry_equiv_pos_as_xyz
  1  'x, y, z'
loop_
 _atom_site_type_symbol
 _atom_site_label
 _atom_site_symmetry_multiplicity
 _atom_site_fract_x
 _atom_site_fract_y
 _atom_site_fract_z
 _atom_site_occupancy
  K  K0  1  0.33333333  0.66666667  0.91666667  1
  K  K1  1  0.33333333  0.66666667  0.41666667  1
  K  K2  1  0.37821500  0.37821500  0.25000000  1
  K  K3  1  0.00000000  0.62178500  0.25000000  1
  K  K4  1  0.62178500  0.00000000  0.25000000  1
  K  K5  1  0.28845167  0.95511833  0.08333333  1
  K  K6  1  0.66666667  0.71154833  0.08333333  1
  K  K7  1  0.04488167  0.33333333  0.08333333  1
  K  K8  1  0.00000000  0.00000000  0.25000000  1
  K  K9  1  0.00000000  0.00000000  0.75000000  1
  K  K10  1  0.04488167  0.71154833  0.58333333  1
  K  K11  1  0.66666667  0.95511833  0.58333333  1
  K  K12  1  0.28845167  0.33333333  0.58333333  1
  K  K13  1  0.95511833  0.28845167  0.41666667  1
  K  K14  1  0.33333333  0.04488167  0.41666667  1
  K  K15  1  0.71154833  0.66666667  0.41666667  1
  K  K16  1  0.66666667  0.33333333  0.58333333  1
  K  K17  1  0.66666667  0.33333333  0.08333333  1
  K  K18  1  0.71154833  0.04488167  0.91666667  1
  K  K19  1  0.33333333  0.28845167  0.91666667  1
  K  K20  1  0.95511833  0.66666667  0.91666667  1
  K  K21  1  0.62178500  0.62178500  0.75000000  1
  K  K22  1  0.00000000  0.37821500  0.75000000  1
  K  K23  1  0.37821500  0.00000000  0.75000000  1
  Mn  Mn24  1  0.00000000  0.00000000  0.00000000  1
  Mn  Mn25  1  0.33333333  0.66666667  0.16666667  1
  Mn  Mn26  1  0.66666667  0.33333333  0.33333333  1
  Mn  Mn27  1  0.00000000  0.00000000  0.50000000  1
  Mn  Mn28  1  0.33333333  0.66666667  0.66666667  1
  Mn  Mn29  1  0.66666667  0.33333333  0.83333333  1
  Br  Br30  1  0.18740567  0.15628433  0.09956333  1
  Br  Br31  1  0.96887867  0.81259433  0.09956333  1
  Br  Br32  1  0.84371567  0.03112133  0.09956333  1
  Br  Br33  1  0.48961767  0.85407233  0.06710333  1
  Br  Br34  1  0.36445467  0.51038233  0.06710333  1
  Br  Br35  1  0.14592767  0.63554533  0.06710333  1
  Br  Br36  1  0.47926100  0.17704900  0.23377000  1
  Br  Br37  1  0.69778800  0.52073900  0.23377000  1
  Br  Br38  1  0.82295100  0.30221200  0.23377000  1
  Br  Br39  1  0.17704900  0.47926100  0.26623000  1
  Br  Br40  1  0.30221200  0.82295100  0.26623000  1
  Br  Br41  1  0.52073900  0.69778800  0.26623000  1
  Br  Br42  1  0.85407233  0.48961767  0.43289667  1
  Br  Br43  1  0.63554533  0.14592767  0.43289667  1
  Br  Br44  1  0.51038233  0.36445467  0.43289667  1
  Br  Br45  1  0.15628433  0.18740567  0.40043667  1
  Br  Br46  1  0.03112133  0.84371567  0.40043667  1
  Br  Br47  1  0.81259433  0.96887867  0.40043667  1
  Br  Br48  1  0.14592767  0.51038233  0.56710333  1
  Br  Br49  1  0.36445467  0.85407233  0.56710333  1
  Br  Br50  1  0.48961767  0.63554533  0.56710333  1
  Br  Br51  1  0.84371567  0.81259433  0.59956333  1
  Br  Br52  1  0.96887867  0.15628433  0.59956333  1
  Br  Br53  1  0.18740567  0.03112133  0.59956333  1
  Br  Br54  1  0.52073900  0.82295100  0.76623000  1
  Br  Br55  1  0.30221200  0.47926100  0.76623000  1
  Br  Br56  1  0.17704900  0.69778800  0.76623000  1
  Br  Br57  1  0.82295100  0.52073900  0.73377000  1
  Br  Br58  1  0.69778800  0.17704900  0.73377000  1
  Br  Br59  1  0.47926100  0.30221200  0.73377000  1
  Br  Br60  1  0.81259433  0.84371567  0.90043667  1
  Br  Br61  1  0.03112133  0.18740567  0.90043667  1
  Br  Br62  1  0.15628433  0.96887867  0.90043667  1
  Br  Br63  1  0.51038233  0.14592767  0.93289667  1
  Br  Br64  1  0.63554533  0.48961767  0.93289667  1
  Br  Br65  1  0.85407233  0.36445467  0.93289667  1
