# generated using pymatgen
data_La(AuF4)3
_symmetry_space_group_name_H-M   'P 1'
_cell_length_a   10.76381207
_cell_length_b   10.76381207
_cell_length_c   16.77119546
_cell_angle_alpha   90.00000000
_cell_angle_beta   90.00000000
_cell_angle_gamma   120.00000000
_symmetry_Int_Tables_number   1
_chemical_formula_structural   La(AuF4)3
_chemical_formula_sum   'La6 Au18 F72'
_cell_volume   1682.77815530
_cell_formula_units_Z   6
loop_
 _symmetry_equiv_pos_site_id
 _symmetry_equiv_pos_as_xyz
  1  'x, y, z'
loop_
 _atom_site_type_symbol
 _atom_site_label
 _atom_site_symmetry_multiplicity
 _atom_site_fract_x
 _atom_site_fract_y
 _atom_site_fract_z
 _atom_site_occupancy
  La  La0  1  0.33333333  0.66666667  0.91666667  1
  La  La1  1  0.33333333  0.66666667  0.41666667  1
  La  La2  1  0.00000000  0.00000000  0.25000000  1
  La  La3  1  0.00000000  0.00000000  0.75000000  1
  La  La4  1  0.66666667  0.33333333  0.58333333  1
  La  La5  1  0.66666667  0.33333333  0.08333333  1
  Au  Au6  1  0.25571767  0.92238433  0.08333333  1
  Au  Au7  1  0.58905100  0.00000000  0.25000000  1
  Au  Au8  1  0.00000000  0.58905100  0.25000000  1
  Au  Au9  1  0.41094900  0.41094900  0.25000000  1
  Au  Au10  1  0.66666667  0.74428233  0.08333333  1
  Au  Au11  1  0.07761567  0.33333333  0.08333333  1
  Au  Au12  1  0.92238433  0.25571767  0.41666667  1
  Au  Au13  1  0.25571767  0.33333333  0.58333333  1
  Au  Au14  1  0.66666667  0.92238433  0.58333333  1
  Au  Au15  1  0.07761567  0.74428233  0.58333333  1
  Au  Au16  1  0.33333333  0.07761567  0.41666667  1
  Au  Au17  1  0.74428233  0.66666667  0.41666667  1
  Au  Au18  1  0.58905100  0.58905100  0.75000000  1
  Au  Au19  1  0.92238433  0.66666667  0.91666667  1
  Au  Au20  1  0.33333333  0.25571767  0.91666667  1
  Au  Au21  1  0.74428233  0.07761567  0.91666667  1
  Au  Au22  1  0.00000000  0.41094900  0.75000000  1
  Au  Au23  1  0.41094900  0.00000000  0.75000000  1
  F  F24  1  0.16976567  0.51674933  0.02548633  1
  F  F25  1  0.48325067  0.65301633  0.02548633  1
  F  F26  1  0.34698367  0.83023433  0.02548633  1
  F  F27  1  0.98634967  0.14991733  0.14118033  1
  F  F28  1  0.85008267  0.83643233  0.14118033  1
  F  F29  1  0.16356767  0.01365033  0.14118033  1
  F  F30  1  0.49690100  0.81658400  0.30784700  1
  F  F31  1  0.18341600  0.68031700  0.30784700  1
  F  F32  1  0.55949833  0.89283167  0.91666667  1
  F  F33  1  0.33333333  0.44050167  0.91666667  1
  F  F34  1  0.10716833  0.66666667  0.91666667  1
  F  F35  1  0.10716833  0.44050167  0.41666667  1
  F  F36  1  0.33333333  0.89283167  0.41666667  1
  F  F37  1  0.55949833  0.66666667  0.41666667  1
  F  F38  1  0.59081700  0.59081700  0.25000000  1
  F  F39  1  0.00000000  0.40918300  0.25000000  1
  F  F40  1  0.40918300  0.00000000  0.25000000  1
  F  F41  1  0.07584967  0.74251633  0.08333333  1
  F  F42  1  0.66666667  0.92415033  0.08333333  1
  F  F43  1  0.25748367  0.33333333  0.08333333  1
  F  F44  1  0.50309900  0.31968300  0.19215300  1
  F  F45  1  0.81658400  0.49690100  0.19215300  1
  F  F46  1  0.68031700  0.18341600  0.19215300  1
  F  F47  1  0.31968300  0.50309900  0.30784700  1
  F  F48  1  0.83643233  0.85008267  0.35881967  1
  F  F49  1  0.14991733  0.98634967  0.35881967  1
  F  F50  1  0.01365033  0.16356767  0.35881967  1
  F  F51  1  0.65301633  0.48325067  0.47451367  1
  F  F52  1  0.51674933  0.16976567  0.47451367  1
  F  F53  1  0.83023433  0.34698367  0.47451367  1
  F  F54  1  0.16356767  0.14991733  0.64118033  1
  F  F55  1  0.85008267  0.01365033  0.64118033  1
  F  F56  1  0.22616500  0.22616500  0.25000000  1
  F  F57  1  0.00000000  0.77383500  0.25000000  1
  F  F58  1  0.77383500  0.00000000  0.25000000  1
  F  F59  1  0.77383500  0.77383500  0.75000000  1
  F  F60  1  0.00000000  0.22616500  0.75000000  1
  F  F61  1  0.22616500  0.00000000  0.75000000  1
  F  F62  1  0.25748367  0.92415033  0.58333333  1
  F  F63  1  0.66666667  0.74251633  0.58333333  1
  F  F64  1  0.07584967  0.33333333  0.58333333  1
  F  F65  1  0.74251633  0.07584967  0.41666667  1
  F  F66  1  0.33333333  0.25748367  0.41666667  1
  F  F67  1  0.92415033  0.66666667  0.41666667  1
  F  F68  1  0.16976567  0.65301633  0.52548633  1
  F  F69  1  0.48325067  0.83023433  0.52548633  1
  F  F70  1  0.34698367  0.51674933  0.52548633  1
  F  F71  1  0.98634967  0.83643233  0.64118033  1
  F  F72  1  0.50309900  0.18341600  0.69215300  1
  F  F73  1  0.81658400  0.31968300  0.69215300  1
  F  F74  1  0.68031700  0.49690100  0.69215300  1
  F  F75  1  0.31968300  0.81658400  0.80784700  1
  F  F76  1  0.18341600  0.50309900  0.80784700  1
  F  F77  1  0.49690100  0.68031700  0.80784700  1
  F  F78  1  0.83023433  0.48325067  0.97451367  1
  F  F79  1  0.51674933  0.34698367  0.97451367  1
  F  F80  1  0.89283167  0.55949833  0.58333333  1
  F  F81  1  0.66666667  0.10716833  0.58333333  1
  F  F82  1  0.44050167  0.33333333  0.58333333  1
  F  F83  1  0.44050167  0.10716833  0.08333333  1
  F  F84  1  0.66666667  0.55949833  0.08333333  1
  F  F85  1  0.89283167  0.33333333  0.08333333  1
  F  F86  1  0.92415033  0.25748367  0.91666667  1
  F  F87  1  0.33333333  0.07584967  0.91666667  1
  F  F88  1  0.74251633  0.66666667  0.91666667  1
  F  F89  1  0.40918300  0.40918300  0.75000000  1
  F  F90  1  0.00000000  0.59081700  0.75000000  1
  F  F91  1  0.59081700  0.00000000  0.75000000  1
  F  F92  1  0.83643233  0.98634967  0.85881967  1
  F  F93  1  0.14991733  0.16356767  0.85881967  1
  F  F94  1  0.01365033  0.85008267  0.85881967  1
  F  F95  1  0.65301633  0.16976567  0.97451367  1
