# generated using pymatgen
data_Hg5(ClO2)2
_symmetry_space_group_name_H-M   'P 1'
_cell_length_a   6.23982000
_cell_length_b   11.93792800
_cell_length_c   12.00220200
_cell_angle_alpha   90.00000000
_cell_angle_beta   90.00000000
_cell_angle_gamma   90.00000000
_symmetry_Int_Tables_number   1
_chemical_formula_structural   Hg5(ClO2)2
_chemical_formula_sum   'Hg20 Cl8 O16'
_cell_volume   894.05029084
_cell_formula_units_Z   4
loop_
 _symmetry_equiv_pos_site_id
 _symmetry_equiv_pos_as_xyz
  1  'x, y, z'
loop_
 _atom_site_type_symbol
 _atom_site_label
 _atom_site_symmetry_multiplicity
 _atom_site_fract_x
 _atom_site_fract_y
 _atom_site_fract_z
 _atom_site_occupancy
  Hg  Hg0  1  0.28470200  0.36097300  0.50000000  1
  Hg  Hg1  1  0.78470200  0.13902700  0.50000000  1
  Hg  Hg2  1  0.21529800  0.86097300  0.50000000  1
  Hg  Hg3  1  0.71529800  0.63902700  0.50000000  1
  Hg  Hg4  1  0.50000000  0.84090100  0.75000000  1
  Hg  Hg5  1  0.50000000  0.15909900  0.75000000  1
  Hg  Hg6  1  0.50000000  0.15909900  0.25000000  1
  Hg  Hg7  1  0.50000000  0.84090100  0.25000000  1
  Hg  Hg8  1  0.00000000  0.00000000  0.25000000  1
  Hg  Hg9  1  0.00000000  0.00000000  0.75000000  1
  Hg  Hg10  1  0.78470200  0.86097300  0.00000000  1
  Hg  Hg11  1  0.28470200  0.63902700  0.00000000  1
  Hg  Hg12  1  0.71529800  0.36097300  0.00000000  1
  Hg  Hg13  1  0.21529800  0.13902700  0.00000000  1
  Hg  Hg14  1  0.00000000  0.34090100  0.25000000  1
  Hg  Hg15  1  0.00000000  0.65909900  0.25000000  1
  Hg  Hg16  1  0.00000000  0.65909900  0.75000000  1
  Hg  Hg17  1  0.00000000  0.34090100  0.75000000  1
  Hg  Hg18  1  0.50000000  0.50000000  0.75000000  1
  Hg  Hg19  1  0.50000000  0.50000000  0.25000000  1
  Cl  Cl20  1  0.72992400  0.89114000  0.50000000  1
  Cl  Cl21  1  0.22992400  0.60886000  0.50000000  1
  Cl  Cl22  1  0.77007600  0.39114000  0.50000000  1
  Cl  Cl23  1  0.27007600  0.10886000  0.50000000  1
  Cl  Cl24  1  0.22992400  0.39114000  0.00000000  1
  Cl  Cl25  1  0.72992400  0.10886000  0.00000000  1
  Cl  Cl26  1  0.27007600  0.89114000  0.00000000  1
  Cl  Cl27  1  0.77007600  0.60886000  0.00000000  1
  O  O28  1  0.19936100  0.85408200  0.32420700  1
  O  O29  1  0.19936100  0.14591800  0.17579300  1
  O  O30  1  0.80063900  0.14591800  0.32420700  1
  O  O31  1  0.80063900  0.85408200  0.17579300  1
  O  O32  1  0.19936100  0.14591800  0.82420700  1
  O  O33  1  0.19936100  0.85408200  0.67579300  1
  O  O34  1  0.80063900  0.14591800  0.67579300  1
  O  O35  1  0.80063900  0.85408200  0.82420700  1
  O  O36  1  0.69936100  0.35408200  0.82420700  1
  O  O37  1  0.69936100  0.64591800  0.67579300  1
  O  O38  1  0.30063900  0.64591800  0.82420700  1
  O  O39  1  0.30063900  0.35408200  0.67579300  1
  O  O40  1  0.69936100  0.64591800  0.32420700  1
  O  O41  1  0.69936100  0.35408200  0.17579300  1
  O  O42  1  0.30063900  0.64591800  0.17579300  1
  O  O43  1  0.30063900  0.35408200  0.32420700  1
