# generated using pymatgen
data_Ba2CuGe2O7
_symmetry_space_group_name_H-M   'P 1'
_cell_length_a   8.60686200
_cell_length_b   8.60686200
_cell_length_c   5.50933100
_cell_angle_alpha   90.00000000
_cell_angle_beta   90.00000000
_cell_angle_gamma   90.00000000
_symmetry_Int_Tables_number   1
_chemical_formula_structural   Ba2CuGe2O7
_chemical_formula_sum   'Ba4 Cu2 Ge4 O14'
_cell_volume   408.12062668
_cell_formula_units_Z   2
loop_
 _symmetry_equiv_pos_site_id
 _symmetry_equiv_pos_as_xyz
  1  'x, y, z'
loop_
 _atom_site_type_symbol
 _atom_site_label
 _atom_site_symmetry_multiplicity
 _atom_site_fract_x
 _atom_site_fract_y
 _atom_site_fract_z
 _atom_site_occupancy
  Ba  Ba0  1  0.16597500  0.66597500  0.99083500  1
  Ba  Ba1  1  0.66597500  0.83402500  0.00916500  1
  Ba  Ba2  1  0.33402500  0.16597500  0.00916500  1
  Ba  Ba3  1  0.83402500  0.33402500  0.99083500  1
  Cu  Cu4  1  0.00000000  0.00000000  0.50000000  1
  Cu  Cu5  1  0.50000000  0.50000000  0.50000000  1
  Ge  Ge6  1  0.36114100  0.86114100  0.52370300  1
  Ge  Ge7  1  0.63885900  0.13885900  0.52370300  1
  Ge  Ge8  1  0.86114100  0.63885900  0.47629700  1
  Ge  Ge9  1  0.13885900  0.36114100  0.47629700  1
  O  O10  1  0.41788500  0.68523700  0.66692100  1
  O  O11  1  0.58211500  0.31476300  0.66692100  1
  O  O12  1  0.31476300  0.41788500  0.33307900  1
  O  O13  1  0.68523700  0.58211500  0.33307900  1
  O  O14  1  0.18523700  0.91788500  0.66692100  1
  O  O15  1  0.91788500  0.81476300  0.33307900  1
  O  O16  1  0.08211500  0.18523700  0.33307900  1
  O  O17  1  0.81476300  0.08211500  0.66692100  1
  O  O18  1  0.36554300  0.86554300  0.20761600  1
  O  O19  1  0.86554300  0.63445700  0.79238400  1
  O  O20  1  0.50000000  0.00000000  0.65288500  1
  O  O21  1  0.00000000  0.50000000  0.34711500  1
  O  O22  1  0.63445700  0.13445700  0.20761600  1
  O  O23  1  0.13445700  0.36554300  0.79238400  1
