# generated using pymatgen
data_PAuCl8
_symmetry_space_group_name_H-M   'P 1'
_cell_length_a   12.15681200
_cell_length_b   13.08040200
_cell_length_c   16.07804600
_cell_angle_alpha   90.00000000
_cell_angle_beta   90.00000000
_cell_angle_gamma   90.00000000
_symmetry_Int_Tables_number   1
_chemical_formula_structural   PAuCl8
_chemical_formula_sum   'P8 Au8 Cl64'
_cell_volume   2556.66636977
_cell_formula_units_Z   8
loop_
 _symmetry_equiv_pos_site_id
 _symmetry_equiv_pos_as_xyz
  1  'x, y, z'
loop_
 _atom_site_type_symbol
 _atom_site_label
 _atom_site_symmetry_multiplicity
 _atom_site_fract_x
 _atom_site_fract_y
 _atom_site_fract_z
 _atom_site_occupancy
  P  P0  1  0.25000000  0.25000000  0.00243800  1
  P  P1  1  0.25000000  0.75000000  0.49756200  1
  P  P2  1  0.25000000  0.25000000  0.49756200  1
  P  P3  1  0.75000000  0.25000000  0.50243800  1
  P  P4  1  0.75000000  0.75000000  0.50243800  1
  P  P5  1  0.75000000  0.25000000  0.99756200  1
  P  P6  1  0.75000000  0.75000000  0.99756200  1
  P  P7  1  0.25000000  0.75000000  0.00243800  1
  Au  Au8  1  0.07587400  0.00000000  0.75000000  1
  Au  Au9  1  0.42412600  0.50000000  0.75000000  1
  Au  Au10  1  0.05996600  0.50000000  0.25000000  1
  Au  Au11  1  0.44003400  0.00000000  0.25000000  1
  Au  Au12  1  0.57587400  0.50000000  0.25000000  1
  Au  Au13  1  0.92412600  0.00000000  0.25000000  1
  Au  Au14  1  0.55996600  0.00000000  0.75000000  1
  Au  Au15  1  0.94003400  0.50000000  0.75000000  1
  Cl  Cl16  1  0.66721450  0.34427750  0.57349950  1
  Cl  Cl17  1  0.16721450  0.15572250  0.42650050  1
  Cl  Cl18  1  0.33278550  0.34427750  0.42650050  1
  Cl  Cl19  1  0.33278550  0.65572250  0.07349950  1
  Cl  Cl20  1  0.83278550  0.15572250  0.92650050  1
  Cl  Cl21  1  0.33278550  0.34427750  0.07349950  1
  Cl  Cl22  1  0.16721450  0.15572250  0.07349950  1
  Cl  Cl23  1  0.16721450  0.84427750  0.42650050  1
  Cl  Cl24  1  0.14758750  0.67326250  0.93180050  1
  Cl  Cl25  1  0.14758750  0.32673750  0.56819950  1
  Cl  Cl26  1  0.35241250  0.17326250  0.56819950  1
  Cl  Cl27  1  0.85241250  0.32673750  0.43180050  1
  Cl  Cl28  1  0.35241250  0.82673750  0.56819950  1
  Cl  Cl29  1  0.35241250  0.17326250  0.93180050  1
  Cl  Cl30  1  0.14758750  0.32673750  0.93180050  1
  Cl  Cl31  1  0.64758750  0.17326250  0.06819950  1
  Cl  Cl32  1  0.44126500  0.00000000  0.39430200  1
  Cl  Cl33  1  0.44126500  0.00000000  0.10569800  1
  Cl  Cl34  1  0.05873500  0.50000000  0.10569800  1
  Cl  Cl35  1  0.05873500  0.50000000  0.39430200  1
  Cl  Cl36  1  0.43998750  0.82251050  0.25000000  1
  Cl  Cl37  1  0.43998750  0.17748950  0.25000000  1
  Cl  Cl38  1  0.06001250  0.32251050  0.25000000  1
  Cl  Cl39  1  0.06001250  0.67748950  0.25000000  1
  Cl  Cl40  1  0.42514100  0.50000000  0.89423800  1
  Cl  Cl41  1  0.42514100  0.50000000  0.60576200  1
  Cl  Cl42  1  0.07485900  0.00000000  0.60576200  1
  Cl  Cl43  1  0.07485900  0.00000000  0.89423800  1
  Cl  Cl44  1  0.11564400  0.00000000  0.25000000  1
  Cl  Cl45  1  0.38435600  0.50000000  0.25000000  1
  Cl  Cl46  1  0.73366100  0.00000000  0.25000000  1
  Cl  Cl47  1  0.76633900  0.50000000  0.25000000  1
  Cl  Cl48  1  0.16721450  0.84427750  0.07349950  1
  Cl  Cl49  1  0.66721450  0.65572250  0.92650050  1
  Cl  Cl50  1  0.83278550  0.84427750  0.92650050  1
  Cl  Cl51  1  0.83278550  0.15572250  0.57349950  1
  Cl  Cl52  1  0.33278550  0.65572250  0.42650050  1
  Cl  Cl53  1  0.83278550  0.84427750  0.57349950  1
  Cl  Cl54  1  0.66721450  0.65572250  0.57349950  1
  Cl  Cl55  1  0.66721450  0.34427750  0.92650050  1
  Cl  Cl56  1  0.64758750  0.17326250  0.43180050  1
  Cl  Cl57  1  0.64758750  0.82673750  0.06819950  1
  Cl  Cl58  1  0.85241250  0.67326250  0.06819950  1
  Cl  Cl59  1  0.35241250  0.82673750  0.93180050  1
  Cl  Cl60  1  0.85241250  0.32673750  0.06819950  1
  Cl  Cl61  1  0.85241250  0.67326250  0.43180050  1
  Cl  Cl62  1  0.64758750  0.82673750  0.43180050  1
  Cl  Cl63  1  0.14758750  0.67326250  0.56819950  1
  Cl  Cl64  1  0.94126500  0.50000000  0.89430200  1
  Cl  Cl65  1  0.94126500  0.50000000  0.60569800  1
  Cl  Cl66  1  0.55873500  0.00000000  0.60569800  1
  Cl  Cl67  1  0.55873500  0.00000000  0.89430200  1
  Cl  Cl68  1  0.93998750  0.32251050  0.75000000  1
  Cl  Cl69  1  0.93998750  0.67748950  0.75000000  1
  Cl  Cl70  1  0.56001250  0.82251050  0.75000000  1
  Cl  Cl71  1  0.56001250  0.17748950  0.75000000  1
  Cl  Cl72  1  0.92514100  0.00000000  0.39423800  1
  Cl  Cl73  1  0.92514100  0.00000000  0.10576200  1
  Cl  Cl74  1  0.57485900  0.50000000  0.10576200  1
  Cl  Cl75  1  0.57485900  0.50000000  0.39423800  1
  Cl  Cl76  1  0.61564400  0.50000000  0.75000000  1
  Cl  Cl77  1  0.88435600  0.00000000  0.75000000  1
  Cl  Cl78  1  0.23366100  0.50000000  0.75000000  1
  Cl  Cl79  1  0.26633900  0.00000000  0.75000000  1
