# generated using pymatgen
data_Nd3PO7
_symmetry_space_group_name_H-M   'P 1'
_cell_length_a   13.11115600
_cell_length_b   13.36003000
_cell_length_c   12.40000055
_cell_angle_alpha   90.00000000
_cell_angle_beta   108.41359528
_cell_angle_gamma   90.00000000
_symmetry_Int_Tables_number   1
_chemical_formula_structural   Nd3PO7
_chemical_formula_sum   'Nd36 P12 O84'
_cell_volume   2060.84484429
_cell_formula_units_Z   12
loop_
 _symmetry_equiv_pos_site_id
 _symmetry_equiv_pos_as_xyz
  1  'x, y, z'
loop_
 _atom_site_type_symbol
 _atom_site_label
 _atom_site_symmetry_multiplicity
 _atom_site_fract_x
 _atom_site_fract_y
 _atom_site_fract_z
 _atom_site_occupancy
  Nd  Nd0  1  0.67744750  0.84522050  0.72857900  1
  Nd  Nd1  1  0.67744750  0.15477950  0.72857900  1
  Nd  Nd2  1  0.49315450  0.67283550  0.18852200  1
  Nd  Nd3  1  0.49315450  0.32716450  0.18852200  1
  Nd  Nd4  1  0.50000000  0.69045900  0.50000000  1
  Nd  Nd5  1  0.50000000  0.30954100  0.50000000  1
  Nd  Nd6  1  0.31896150  0.84277650  0.61235400  1
  Nd  Nd7  1  0.31896150  0.15722350  0.61235400  1
  Nd  Nd8  1  0.68103850  0.15722350  0.38764600  1
  Nd  Nd9  1  0.68103850  0.84277650  0.38764600  1
  Nd  Nd10  1  0.65022300  0.17300300  0.05431000  1
  Nd  Nd11  1  0.65022300  0.82699700  0.05431000  1
  Nd  Nd12  1  0.34977700  0.82699700  0.94569000  1
  Nd  Nd13  1  0.34977700  0.17300300  0.94569000  1
  Nd  Nd14  1  0.50684550  0.67283550  0.81147800  1
  Nd  Nd15  1  0.50684550  0.32716450  0.81147800  1
  Nd  Nd16  1  0.32255250  0.84522050  0.27142100  1
  Nd  Nd17  1  0.32255250  0.15477950  0.27142100  1
  Nd  Nd18  1  0.17744750  0.34522050  0.72857900  1
  Nd  Nd19  1  0.17744750  0.65477950  0.72857900  1
  Nd  Nd20  1  0.99315450  0.17283550  0.18852200  1
  Nd  Nd21  1  0.99315450  0.82716450  0.18852200  1
  Nd  Nd22  1  0.00000000  0.19045900  0.50000000  1
  Nd  Nd23  1  0.00000000  0.80954100  0.50000000  1
  Nd  Nd24  1  0.81896150  0.34277650  0.61235400  1
  Nd  Nd25  1  0.81896150  0.65722350  0.61235400  1
  Nd  Nd26  1  0.18103850  0.65722350  0.38764600  1
  Nd  Nd27  1  0.18103850  0.34277650  0.38764600  1
  Nd  Nd28  1  0.15022300  0.67300300  0.05431000  1
  Nd  Nd29  1  0.15022300  0.32699700  0.05431000  1
  Nd  Nd30  1  0.84977700  0.32699700  0.94569000  1
  Nd  Nd31  1  0.84977700  0.67300300  0.94569000  1
  Nd  Nd32  1  0.00684550  0.17283550  0.81147800  1
  Nd  Nd33  1  0.00684550  0.82716450  0.81147800  1
  Nd  Nd34  1  0.82255250  0.34522050  0.27142100  1
  Nd  Nd35  1  0.82255250  0.65477950  0.27142100  1
  P  P36  1  0.16360500  0.00000000  0.38846700  1
  P  P37  1  0.83639500  0.00000000  0.61153300  1
  P  P38  1  0.83196700  0.00000000  0.23366200  1
  P  P39  1  0.50371400  0.00000000  0.81967000  1
  P  P40  1  0.16803300  0.00000000  0.76633800  1
  P  P41  1  0.49628600  0.00000000  0.18033000  1
  P  P42  1  0.66360500  0.50000000  0.38846700  1
  P  P43  1  0.33639500  0.50000000  0.61153300  1
  P  P44  1  0.33196700  0.50000000  0.23366200  1
  P  P45  1  0.00371400  0.50000000  0.81967000  1
  P  P46  1  0.66803300  0.50000000  0.76633800  1
  P  P47  1  0.99628600  0.50000000  0.18033000  1
  O  O48  1  0.79688100  0.00000000  0.71861600  1
  O  O49  1  0.61141400  0.00000000  0.78907300  1
  O  O50  1  0.92736800  0.00000000  0.18093800  1
  O  O51  1  0.83982550  0.09639850  0.30571300  1
  O  O52  1  0.83982550  0.90360150  0.30571300  1
  O  O53  1  0.90352400  0.09543600  0.61253200  1
  O  O54  1  0.90352400  0.90456400  0.61253200  1
  O  O55  1  0.26671600  0.00000000  0.49462900  1
  O  O56  1  0.09647600  0.90456400  0.38746800  1
  O  O57  1  0.09647600  0.09543600  0.38746800  1
  O  O58  1  0.16017450  0.90360150  0.69428700  1
  O  O59  1  0.16017450  0.09639850  0.69428700  1
  O  O60  1  0.50117750  0.78534850  0.66374700  1
  O  O61  1  0.50117750  0.21465150  0.66374700  1
  O  O62  1  0.40663800  0.00000000  0.70850800  1
  O  O63  1  0.49882250  0.21465150  0.33625300  1
  O  O64  1  0.49882250  0.78534850  0.33625300  1
  O  O65  1  0.59336200  0.00000000  0.29149200  1
  O  O66  1  0.73328400  0.00000000  0.50537100  1
  O  O67  1  0.66858750  0.22663250  0.55591500  1
  O  O68  1  0.66858750  0.77336750  0.55591500  1
  O  O69  1  0.67332600  0.24701900  0.88889900  1
  O  O70  1  0.67332600  0.75298100  0.88889900  1
  O  O71  1  0.72598700  0.00000000  0.12887500  1
  O  O72  1  0.33141250  0.22663250  0.44408500  1
  O  O73  1  0.33141250  0.77336750  0.44408500  1
  O  O74  1  0.66105900  0.74409500  0.22262800  1
  O  O75  1  0.66105900  0.25590500  0.22262800  1
  O  O76  1  0.32667400  0.24701900  0.11110100  1
  O  O77  1  0.32667400  0.75298100  0.11110100  1
  O  O78  1  0.38858600  0.00000000  0.21092700  1
  O  O79  1  0.20311900  0.00000000  0.28138400  1
  O  O80  1  0.07263200  0.00000000  0.81906200  1
  O  O81  1  0.33894100  0.25590500  0.77737200  1
  O  O82  1  0.33894100  0.74409500  0.77737200  1
  O  O83  1  0.50000000  0.28621200  0.00000000  1
  O  O84  1  0.50000000  0.71378800  0.00000000  1
  O  O85  1  0.27401300  0.00000000  0.87112500  1
  O  O86  1  0.49597150  0.09590650  0.11179800  1
  O  O87  1  0.49597150  0.90409350  0.11179800  1
  O  O88  1  0.50402850  0.09590650  0.88820200  1
  O  O89  1  0.50402850  0.90409350  0.88820200  1
  O  O90  1  0.29688100  0.50000000  0.71861600  1
  O  O91  1  0.11141400  0.50000000  0.78907300  1
  O  O92  1  0.42736800  0.50000000  0.18093800  1
  O  O93  1  0.33982550  0.59639850  0.30571300  1
  O  O94  1  0.33982550  0.40360150  0.30571300  1
  O  O95  1  0.40352400  0.59543600  0.61253200  1
  O  O96  1  0.40352400  0.40456400  0.61253200  1
  O  O97  1  0.76671600  0.50000000  0.49462900  1
  O  O98  1  0.59647600  0.40456400  0.38746800  1
  O  O99  1  0.59647600  0.59543600  0.38746800  1
  O  O100  1  0.66017450  0.40360150  0.69428700  1
  O  O101  1  0.66017450  0.59639850  0.69428700  1
  O  O102  1  0.00117750  0.28534850  0.66374700  1
  O  O103  1  0.00117750  0.71465150  0.66374700  1
  O  O104  1  0.90663800  0.50000000  0.70850800  1
  O  O105  1  0.99882250  0.71465150  0.33625300  1
  O  O106  1  0.99882250  0.28534850  0.33625300  1
  O  O107  1  0.09336200  0.50000000  0.29149200  1
  O  O108  1  0.23328400  0.50000000  0.50537100  1
  O  O109  1  0.16858750  0.72663250  0.55591500  1
  O  O110  1  0.16858750  0.27336750  0.55591500  1
  O  O111  1  0.17332600  0.74701900  0.88889900  1
  O  O112  1  0.17332600  0.25298100  0.88889900  1
  O  O113  1  0.22598700  0.50000000  0.12887500  1
  O  O114  1  0.83141250  0.72663250  0.44408500  1
  O  O115  1  0.83141250  0.27336750  0.44408500  1
  O  O116  1  0.16105900  0.24409500  0.22262800  1
  O  O117  1  0.16105900  0.75590500  0.22262800  1
  O  O118  1  0.82667400  0.74701900  0.11110100  1
  O  O119  1  0.82667400  0.25298100  0.11110100  1
  O  O120  1  0.88858600  0.50000000  0.21092700  1
  O  O121  1  0.70311900  0.50000000  0.28138400  1
  O  O122  1  0.57263200  0.50000000  0.81906200  1
  O  O123  1  0.83894100  0.75590500  0.77737200  1
  O  O124  1  0.83894100  0.24409500  0.77737200  1
  O  O125  1  0.00000000  0.78621200  0.00000000  1
  O  O126  1  0.00000000  0.21378800  0.00000000  1
  O  O127  1  0.77401300  0.50000000  0.87112500  1
  O  O128  1  0.99597150  0.59590650  0.11179800  1
  O  O129  1  0.99597150  0.40409350  0.11179800  1
  O  O130  1  0.00402850  0.59590650  0.88820200  1
  O  O131  1  0.00402850  0.40409350  0.88820200  1
