# generated using pymatgen
data_Nb2Bi2PbO9
_symmetry_space_group_name_H-M   'P 1'
_cell_length_a   3.96486200
_cell_length_b   3.96486200
_cell_length_c   25.11943200
_cell_angle_alpha   90.00000000
_cell_angle_beta   90.00000000
_cell_angle_gamma   90.00000000
_symmetry_Int_Tables_number   1
_chemical_formula_structural   Nb2Bi2PbO9
_chemical_formula_sum   'Nb4 Bi4 Pb2 O18'
_cell_volume   394.88075362
_cell_formula_units_Z   2
loop_
 _symmetry_equiv_pos_site_id
 _symmetry_equiv_pos_as_xyz
  1  'x, y, z'
loop_
 _atom_site_type_symbol
 _atom_site_label
 _atom_site_symmetry_multiplicity
 _atom_site_fract_x
 _atom_site_fract_y
 _atom_site_fract_z
 _atom_site_occupancy
  Nb  Nb0  1  0.00000000  0.00000000  0.41226600  1
  Nb  Nb1  1  0.50000000  0.50000000  0.08773400  1
  Nb  Nb2  1  0.50000000  0.50000000  0.91226600  1
  Nb  Nb3  1  0.00000000  0.00000000  0.58773400  1
  Bi  Bi4  1  0.00000000  0.00000000  0.20111500  1
  Bi  Bi5  1  0.50000000  0.50000000  0.29888500  1
  Bi  Bi6  1  0.50000000  0.50000000  0.70111500  1
  Bi  Bi7  1  0.00000000  0.00000000  0.79888500  1
  Pb  Pb8  1  0.00000000  0.00000000  0.00000000  1
  Pb  Pb9  1  0.50000000  0.50000000  0.50000000  1
  O  O10  1  0.00000000  0.50000000  0.07986700  1
  O  O11  1  0.00000000  0.50000000  0.42013300  1
  O  O12  1  0.50000000  0.00000000  0.42013300  1
  O  O13  1  0.50000000  0.00000000  0.07986700  1
  O  O14  1  0.00000000  0.50000000  0.25000000  1
  O  O15  1  0.50000000  0.50000000  0.00000000  1
  O  O16  1  0.50000000  0.50000000  0.16338300  1
  O  O17  1  0.00000000  0.00000000  0.33661700  1
  O  O18  1  0.50000000  0.00000000  0.25000000  1
  O  O19  1  0.50000000  0.00000000  0.57986700  1
  O  O20  1  0.50000000  0.00000000  0.92013300  1
  O  O21  1  0.00000000  0.50000000  0.92013300  1
  O  O22  1  0.00000000  0.50000000  0.57986700  1
  O  O23  1  0.50000000  0.00000000  0.75000000  1
  O  O24  1  0.00000000  0.00000000  0.50000000  1
  O  O25  1  0.00000000  0.00000000  0.66338300  1
  O  O26  1  0.50000000  0.50000000  0.83661700  1
  O  O27  1  0.00000000  0.50000000  0.75000000  1
