# generated using pymatgen
data_K2Si2O5
_symmetry_space_group_name_H-M   'P 1'
_cell_length_a   16.67526000
_cell_length_b   11.42154400
_cell_length_c   10.10100476
_cell_angle_alpha   90.00000000
_cell_angle_beta   116.22564580
_cell_angle_gamma   90.00000000
_symmetry_Int_Tables_number   1
_chemical_formula_structural   K2Si2O5
_chemical_formula_sum   'K24 Si24 O60'
_cell_volume   1725.77359022
_cell_formula_units_Z   12
loop_
 _symmetry_equiv_pos_site_id
 _symmetry_equiv_pos_as_xyz
  1  'x, y, z'
loop_
 _atom_site_type_symbol
 _atom_site_label
 _atom_site_symmetry_multiplicity
 _atom_site_fract_x
 _atom_site_fract_y
 _atom_site_fract_z
 _atom_site_occupancy
  K  K0  1  0.85721000  0.24197500  0.07008200  1
  K  K1  1  0.85721000  0.75802500  0.57008200  1
  K  K2  1  0.06041800  0.77419100  0.37608800  1
  K  K3  1  0.06041800  0.22580900  0.87608800  1
  K  K4  1  0.71684300  0.48579100  0.97879300  1
  K  K5  1  0.71684300  0.51420900  0.47879300  1
  K  K6  1  0.19818750  0.76305850  0.21669400  1
  K  K7  1  0.19818750  0.23694150  0.71669400  1
  K  K8  1  0.16083250  0.52289750  0.03356100  1
  K  K9  1  0.16083250  0.47710250  0.53356100  1
  K  K10  1  0.91005150  0.23405450  0.47944000  1
  K  K11  1  0.91005150  0.76594550  0.97944000  1
  K  K12  1  0.35721000  0.74197500  0.07008200  1
  K  K13  1  0.35721000  0.25802500  0.57008200  1
  K  K14  1  0.56041800  0.27419100  0.37608800  1
  K  K15  1  0.56041800  0.72580900  0.87608800  1
  K  K16  1  0.21684300  0.98579100  0.97879300  1
  K  K17  1  0.21684300  0.01420900  0.47879300  1
  K  K18  1  0.69818750  0.26305850  0.21669400  1
  K  K19  1  0.69818750  0.73694150  0.71669400  1
  K  K20  1  0.66083250  0.02289750  0.03356100  1
  K  K21  1  0.66083250  0.97710250  0.53356100  1
  K  K22  1  0.41005150  0.73405450  0.47944000  1
  K  K23  1  0.41005150  0.26594550  0.97944000  1
  Si  Si24  1  0.00039900  0.48639900  0.67404000  1
  Si  Si25  1  0.11533350  0.26956050  0.26309100  1
  Si  Si26  1  0.11533350  0.73043950  0.76309100  1
  Si  Si27  1  0.01961550  0.02564550  0.12514900  1
  Si  Si28  1  0.01961550  0.97435450  0.62514900  1
  Si  Si29  1  0.39206400  0.51776000  0.77892600  1
  Si  Si30  1  0.39206400  0.48224000  0.27892600  1
  Si  Si31  1  0.77405000  0.74802200  0.17583100  1
  Si  Si32  1  0.77405000  0.25197800  0.67583100  1
  Si  Si33  1  0.87879300  0.48194300  0.83293300  1
  Si  Si34  1  0.87879300  0.51805700  0.33293300  1
  Si  Si35  1  0.00039900  0.51360100  0.17404000  1
  Si  Si36  1  0.50039900  0.98639900  0.67404000  1
  Si  Si37  1  0.61533350  0.76956050  0.26309100  1
  Si  Si38  1  0.61533350  0.23043950  0.76309100  1
  Si  Si39  1  0.51961550  0.52564550  0.12514900  1
  Si  Si40  1  0.51961550  0.47435450  0.62514900  1
  Si  Si41  1  0.89206400  0.01776000  0.77892600  1
  Si  Si42  1  0.89206400  0.98224000  0.27892600  1
  Si  Si43  1  0.27405000  0.24802200  0.17583100  1
  Si  Si44  1  0.27405000  0.75197800  0.67583100  1
  Si  Si45  1  0.37879300  0.98194300  0.83293300  1
  Si  Si46  1  0.37879300  0.01805700  0.33293300  1
  Si  Si47  1  0.50039900  0.01360100  0.17404000  1
  O  O48  1  0.17905150  0.29549550  0.17625200  1
  O  O49  1  0.75602800  0.72574800  0.01020800  1
  O  O50  1  0.75602800  0.27425200  0.51020800  1
  O  O51  1  0.80647150  0.37039150  0.78282000  1
  O  O52  1  0.80647150  0.62960850  0.28282000  1
  O  O53  1  0.43092300  0.49250900  0.15290700  1
  O  O54  1  0.43092300  0.50749100  0.65290700  1
  O  O55  1  0.83686850  0.60275250  0.75725100  1
  O  O56  1  0.83686850  0.39724750  0.25725100  1
  O  O57  1  0.17285200  0.24309000  0.43309900  1
  O  O58  1  0.17285200  0.75691000  0.93309900  1
  O  O59  1  0.32151200  0.41679400  0.75364000  1
  O  O60  1  0.04101450  0.83153550  0.66083700  1
  O  O61  1  0.04101450  0.16846450  0.16083700  1
  O  O62  1  0.48216850  0.48341350  0.44225200  1
  O  O63  1  0.48216850  0.51658650  0.94225200  1
  O  O64  1  0.91313350  0.51948050  0.51538700  1
  O  O65  1  0.91313350  0.48051950  0.01538700  1
  O  O66  1  0.96417350  0.55688850  0.29740000  1
  O  O67  1  0.96417350  0.44311150  0.79740000  1
  O  O68  1  0.60052200  0.55915700  0.71379300  1
  O  O69  1  0.60052200  0.44084300  0.21379300  1
  O  O70  1  0.06079750  0.38386950  0.66083100  1
  O  O71  1  0.06079750  0.61613050  0.16083100  1
  O  O72  1  0.05342000  0.61134000  0.73672000  1
  O  O73  1  0.05342000  0.38866000  0.23672000  1
  O  O74  1  0.17905150  0.70450450  0.67625200  1
  O  O75  1  0.85367550  0.15420550  0.76664300  1
  O  O76  1  0.85367550  0.84579450  0.26664300  1
  O  O77  1  0.32151200  0.58320600  0.25364000  1
  O  O78  1  0.67905150  0.79549550  0.17625200  1
  O  O79  1  0.25602800  0.22574800  0.01020800  1
  O  O80  1  0.25602800  0.77425200  0.51020800  1
  O  O81  1  0.30647150  0.87039150  0.78282000  1
  O  O82  1  0.30647150  0.12960850  0.28282000  1
  O  O83  1  0.93092300  0.99250900  0.15290700  1
  O  O84  1  0.93092300  0.00749100  0.65290700  1
  O  O85  1  0.33686850  0.10275250  0.75725100  1
  O  O86  1  0.33686850  0.89724750  0.25725100  1
  O  O87  1  0.67285200  0.74309000  0.43309900  1
  O  O88  1  0.67285200  0.25691000  0.93309900  1
  O  O89  1  0.82151200  0.91679400  0.75364000  1
  O  O90  1  0.54101450  0.33153550  0.66083700  1
  O  O91  1  0.54101450  0.66846450  0.16083700  1
  O  O92  1  0.98216850  0.98341350  0.44225200  1
  O  O93  1  0.98216850  0.01658650  0.94225200  1
  O  O94  1  0.41313350  0.01948050  0.51538700  1
  O  O95  1  0.41313350  0.98051950  0.01538700  1
  O  O96  1  0.46417350  0.05688850  0.29740000  1
  O  O97  1  0.46417350  0.94311150  0.79740000  1
  O  O98  1  0.10052200  0.05915700  0.71379300  1
  O  O99  1  0.10052200  0.94084300  0.21379300  1
  O  O100  1  0.56079750  0.88386950  0.66083100  1
  O  O101  1  0.56079750  0.11613050  0.16083100  1
  O  O102  1  0.55342000  0.11134000  0.73672000  1
  O  O103  1  0.55342000  0.88866000  0.23672000  1
  O  O104  1  0.67905150  0.20450450  0.67625200  1
  O  O105  1  0.35367550  0.65420550  0.76664300  1
  O  O106  1  0.35367550  0.34579450  0.26664300  1
  O  O107  1  0.82151200  0.08320600  0.25364000  1
