# generated using pymatgen
data_Na3InAs2
_symmetry_space_group_name_H-M   'P 1'
_cell_length_a   9.80204200
_cell_length_b   7.60370100
_cell_length_c   15.89126313
_cell_angle_alpha   90.00000000
_cell_angle_beta   92.83324836
_cell_angle_gamma   90.00000000
_symmetry_Int_Tables_number   1
_chemical_formula_structural   Na3InAs2
_chemical_formula_sum   'Na24 In8 As16'
_cell_volume   1182.95660081
_cell_formula_units_Z   8
loop_
 _symmetry_equiv_pos_site_id
 _symmetry_equiv_pos_as_xyz
  1  'x, y, z'
loop_
 _atom_site_type_symbol
 _atom_site_label
 _atom_site_symmetry_multiplicity
 _atom_site_fract_x
 _atom_site_fract_y
 _atom_site_fract_z
 _atom_site_occupancy
  Na  Na0  1  0.87386900  0.34867800  0.79697400  1
  Na  Na1  1  0.12613100  0.84867800  0.70302600  1
  Na  Na2  1  0.12613100  0.65132200  0.20302600  1
  Na  Na3  1  0.87386900  0.15132200  0.29697400  1
  Na  Na4  1  0.56066900  0.01112800  0.39465700  1
  Na  Na5  1  0.43933100  0.51112800  0.10534300  1
  Na  Na6  1  0.43933100  0.98887200  0.60534300  1
  Na  Na7  1  0.56066900  0.48887200  0.89465700  1
  Na  Na8  1  0.18759600  0.53184500  0.85119500  1
  Na  Na9  1  0.81240400  0.03184500  0.64880500  1
  Na  Na10  1  0.81240400  0.46815500  0.14880500  1
  Na  Na11  1  0.18759600  0.96815500  0.35119500  1
  Na  Na12  1  0.38322100  0.65264500  0.45326000  1
  Na  Na13  1  0.61677900  0.15264500  0.04674000  1
  Na  Na14  1  0.61677900  0.34735500  0.54674000  1
  Na  Na15  1  0.38322100  0.84735500  0.95326000  1
  Na  Na16  1  0.93322600  0.52610000  0.60545700  1
  Na  Na17  1  0.06677400  0.02610000  0.89454300  1
  Na  Na18  1  0.06677400  0.47390000  0.39454300  1
  Na  Na19  1  0.93322600  0.97390000  0.10545700  1
  Na  Na20  1  0.32096400  0.49168000  0.63794500  1
  Na  Na21  1  0.67903600  0.99168000  0.86205500  1
  Na  Na22  1  0.67903600  0.50832000  0.36205500  1
  Na  Na23  1  0.32096400  0.00832000  0.13794500  1
  In  In24  1  0.87479100  0.85963900  0.45854600  1
  In  In25  1  0.12520900  0.35963900  0.04145400  1
  In  In26  1  0.12520900  0.14036100  0.54145400  1
  In  In27  1  0.87479100  0.64036100  0.95854600  1
  In  In28  1  0.63784400  0.84621700  0.20951100  1
  In  In29  1  0.36215600  0.34621700  0.29048900  1
  In  In30  1  0.36215600  0.15378300  0.79048900  1
  In  In31  1  0.63784400  0.65378300  0.70951100  1
  As  As32  1  0.87169900  0.27813600  0.97700300  1
  As  As33  1  0.12830100  0.77813600  0.52299700  1
  As  As34  1  0.12830100  0.72186400  0.02299700  1
  As  As35  1  0.87169900  0.22186400  0.47700300  1
  As  As36  1  0.40655600  0.78961500  0.77399100  1
  As  As37  1  0.59344400  0.28961500  0.72600900  1
  As  As38  1  0.59344400  0.21038500  0.22600900  1
  As  As39  1  0.40655600  0.71038500  0.27399100  1
  As  As40  1  0.65122500  0.73703300  0.53988200  1
  As  As41  1  0.34877500  0.23703300  0.96011800  1
  As  As42  1  0.34877500  0.26296700  0.46011800  1
  As  As43  1  0.65122500  0.76296700  0.03988200  1
  As  As44  1  0.87783000  0.74197100  0.79278600  1
  As  As45  1  0.12217000  0.24197100  0.70721400  1
  As  As46  1  0.12217000  0.25802900  0.20721400  1
  As  As47  1  0.87783000  0.75802900  0.29278600  1
