# generated using pymatgen
data_KClO3
_symmetry_space_group_name_H-M   'P 1'
_cell_length_a   4.75118400
_cell_length_b   5.70128900
_cell_length_c   7.22783344
_cell_angle_alpha   90.00000000
_cell_angle_beta   109.08260671
_cell_angle_gamma   90.00000000
_symmetry_Int_Tables_number   1
_chemical_formula_structural   KClO3
_chemical_formula_sum   'K2 Cl2 O6'
_cell_volume   185.02780732
_cell_formula_units_Z   2
loop_
 _symmetry_equiv_pos_site_id
 _symmetry_equiv_pos_as_xyz
  1  'x, y, z'
loop_
 _atom_site_type_symbol
 _atom_site_label
 _atom_site_symmetry_multiplicity
 _atom_site_fract_x
 _atom_site_fract_y
 _atom_site_fract_z
 _atom_site_occupancy
  K  K0  1  0.64189400  0.75000000  0.29028900  1
  K  K1  1  0.35810600  0.25000000  0.70971100  1
  Cl  Cl2  1  0.88028400  0.75000000  0.81907400  1
  Cl  Cl3  1  0.11971600  0.25000000  0.18092600  1
  O  O4  1  0.14388100  0.03769300  0.30942700  1
  O  O5  1  0.85611900  0.53769300  0.69057300  1
  O  O6  1  0.85611900  0.96230700  0.69057300  1
  O  O7  1  0.14388100  0.46230700  0.30942700  1
  O  O8  1  0.39122400  0.25000000  0.11686500  1
  O  O9  1  0.60877600  0.75000000  0.88313500  1
