# generated using pymatgen
data_Sr2In2O5
_symmetry_space_group_name_H-M   'P 1'
_cell_length_a   5.92475600
_cell_length_b   6.14927800
_cell_length_c   15.97600000
_cell_angle_alpha   90.00000000
_cell_angle_beta   90.00000000
_cell_angle_gamma   90.00000000
_symmetry_Int_Tables_number   1
_chemical_formula_structural   Sr2In2O5
_chemical_formula_sum   'Sr8 In8 O20'
_cell_volume   582.05315630
_cell_formula_units_Z   4
loop_
 _symmetry_equiv_pos_site_id
 _symmetry_equiv_pos_as_xyz
  1  'x, y, z'
loop_
 _atom_site_type_symbol
 _atom_site_label
 _atom_site_symmetry_multiplicity
 _atom_site_fract_x
 _atom_site_fract_y
 _atom_site_fract_z
 _atom_site_occupancy
  Sr  Sr0  1  0.98339450  0.52573650  0.60749850  1
  Sr  Sr1  1  0.48339450  0.97426350  0.89250150  1
  Sr  Sr2  1  0.48339450  0.97426350  0.60749850  1
  Sr  Sr3  1  0.98339450  0.52573650  0.89250150  1
  Sr  Sr4  1  0.48339450  0.02573650  0.10749850  1
  Sr  Sr5  1  0.98339450  0.47426350  0.39250150  1
  Sr  Sr6  1  0.98339450  0.47426350  0.10749850  1
  Sr  Sr7  1  0.48339450  0.02573650  0.39250150  1
  In  In8  1  0.99846300  0.00000000  0.00000000  1
  In  In9  1  0.49846300  0.50000000  0.00000000  1
  In  In10  1  0.45798600  0.43619600  0.75000000  1
  In  In11  1  0.95798600  0.06380400  0.75000000  1
  In  In12  1  0.49846300  0.50000000  0.50000000  1
  In  In13  1  0.99846300  0.00000000  0.50000000  1
  In  In14  1  0.95798600  0.93619600  0.25000000  1
  In  In15  1  0.45798600  0.56380400  0.25000000  1
  O  O16  1  0.60075300  0.11734600  0.75000000  1
  O  O17  1  0.10075300  0.38265400  0.75000000  1
  O  O18  1  0.54630850  0.58168050  0.86096850  1
  O  O19  1  0.04630850  0.91831950  0.63903150  1
  O  O20  1  0.04630850  0.91831950  0.86096850  1
  O  O21  1  0.54630850  0.58168050  0.63903150  1
  O  O22  1  0.24469550  0.25632650  0.51749750  1
  O  O23  1  0.74469550  0.24367350  0.98250250  1
  O  O24  1  0.24469550  0.25632650  0.98250250  1
  O  O25  1  0.74469550  0.24367350  0.51749750  1
  O  O26  1  0.10075300  0.61734600  0.25000000  1
  O  O27  1  0.60075300  0.88265400  0.25000000  1
  O  O28  1  0.04630850  0.08168050  0.36096850  1
  O  O29  1  0.54630850  0.41831950  0.13903150  1
  O  O30  1  0.54630850  0.41831950  0.36096850  1
  O  O31  1  0.04630850  0.08168050  0.13903150  1
  O  O32  1  0.74469550  0.75632650  0.01749750  1
  O  O33  1  0.24469550  0.74367350  0.48250250  1
  O  O34  1  0.74469550  0.75632650  0.48250250  1
  O  O35  1  0.24469550  0.74367350  0.01749750  1
