# generated using pymatgen
data_Tl6SeI4
_symmetry_space_group_name_H-M   'P 1'
_cell_length_a   9.49784000
_cell_length_b   9.49784000
_cell_length_c   9.98466700
_cell_angle_alpha   90.00000000
_cell_angle_beta   90.00000000
_cell_angle_gamma   90.00000000
_symmetry_Int_Tables_number   1
_chemical_formula_structural   Tl6SeI4
_chemical_formula_sum   'Tl12 Se2 I8'
_cell_volume   900.70647260
_cell_formula_units_Z   2
loop_
 _symmetry_equiv_pos_site_id
 _symmetry_equiv_pos_as_xyz
  1  'x, y, z'
loop_
 _atom_site_type_symbol
 _atom_site_label
 _atom_site_symmetry_multiplicity
 _atom_site_fract_x
 _atom_site_fract_y
 _atom_site_fract_z
 _atom_site_occupancy
  Tl  Tl0  1  0.69138600  0.89578000  0.50000000  1
  Tl  Tl1  1  0.30861400  0.10422000  0.50000000  1
  Tl  Tl2  1  0.60422000  0.80861400  0.00000000  1
  Tl  Tl3  1  0.10422000  0.69138600  0.50000000  1
  Tl  Tl4  1  0.89578000  0.30861400  0.50000000  1
  Tl  Tl5  1  0.19138600  0.60422000  0.00000000  1
  Tl  Tl6  1  0.80861400  0.39578000  0.00000000  1
  Tl  Tl7  1  0.39578000  0.19138600  0.00000000  1
  Tl  Tl8  1  0.00000000  0.00000000  0.79970500  1
  Tl  Tl9  1  0.50000000  0.50000000  0.70029500  1
  Tl  Tl10  1  0.00000000  0.00000000  0.20029500  1
  Tl  Tl11  1  0.50000000  0.50000000  0.29970500  1
  Se  Se12  1  0.00000000  0.00000000  0.50000000  1
  Se  Se13  1  0.50000000  0.50000000  0.00000000  1
  I  I14  1  0.16757200  0.33242800  0.75000000  1
  I  I15  1  0.66757200  0.16757200  0.75000000  1
  I  I16  1  0.33242800  0.83242800  0.75000000  1
  I  I17  1  0.83242800  0.66757200  0.75000000  1
  I  I18  1  0.83242800  0.66757200  0.25000000  1
  I  I19  1  0.33242800  0.83242800  0.25000000  1
  I  I20  1  0.66757200  0.16757200  0.25000000  1
  I  I21  1  0.16757200  0.33242800  0.25000000  1
