# generated using pymatgen
data_KZnP2H5O9
_symmetry_space_group_name_H-M   'P 1'
_cell_length_a   7.73856100
_cell_length_b   7.91247407
_cell_length_c   8.06759962
_cell_angle_alpha   115.31076914
_cell_angle_beta   84.88374721
_cell_angle_gamma   107.93751697
_symmetry_Int_Tables_number   1
_chemical_formula_structural   KZnP2H5O9
_chemical_formula_sum   'K2 Zn2 P4 H10 O18'
_cell_volume   424.34154169
_cell_formula_units_Z   2
loop_
 _symmetry_equiv_pos_site_id
 _symmetry_equiv_pos_as_xyz
  1  'x, y, z'
loop_
 _atom_site_type_symbol
 _atom_site_label
 _atom_site_symmetry_multiplicity
 _atom_site_fract_x
 _atom_site_fract_y
 _atom_site_fract_z
 _atom_site_occupancy
  K  K0  1  0.86152100  0.77563000  0.77604500  1
  K  K1  1  0.13847900  0.22437000  0.22395500  1
  Zn  Zn2  1  0.73920800  0.23177500  0.96911600  1
  Zn  Zn3  1  0.26079200  0.76822500  0.03088400  1
  P  P4  1  0.37786500  0.95147500  0.74559700  1
  P  P5  1  0.62213500  0.04852500  0.25440300  1
  P  P6  1  0.07961200  0.32080500  0.74022700  1
  P  P7  1  0.92038800  0.67919500  0.25977300  1
  H  H8  1  0.54358800  0.52346300  0.27331100  1
  H  H9  1  0.45641200  0.47653700  0.72668900  1
  H  H10  1  0.44668400  0.66910900  0.27361000  1
  H  H11  1  0.55331600  0.33089100  0.72639000  1
  H  H12  1  0.86063200  0.28079800  0.56319200  1
  H  H13  1  0.13936800  0.71920200  0.43680800  1
  H  H14  1  0.20179800  0.07893700  0.57682900  1
  H  H15  1  0.79820200  0.92106300  0.42317100  1
  H  H16  1  0.46633600  0.70268500  0.53791500  1
  H  H17  1  0.53366400  0.29731500  0.46208500  1
  O  O18  1  0.25731200  0.91792200  0.58613200  1
  O  O19  1  0.47666900  0.78525100  0.67749900  1
  O  O20  1  0.73767600  0.06379700  0.09178400  1
  O  O21  1  0.52333100  0.21474900  0.32250100  1
  O  O22  1  0.76478200  0.50307400  0.14211900  1
  O  O23  1  0.23521800  0.49692600  0.85788100  1
  O  O24  1  0.83949600  0.81291800  0.43472400  1
  O  O25  1  0.16050400  0.18708200  0.56527600  1
  O  O26  1  0.52508900  0.15416500  0.81079300  1
  O  O27  1  0.47491100  0.84583500  0.18920700  1
  O  O28  1  0.96797400  0.20171800  0.84250600  1
  O  O29  1  0.03202600  0.79828200  0.15749400  1
  O  O30  1  0.04534600  0.60271000  0.33997500  1
  O  O31  1  0.95465400  0.39729000  0.66002500  1
  O  O32  1  0.56234900  0.42932400  0.67715500  1
  O  O33  1  0.43765100  0.57067600  0.32284500  1
  O  O34  1  0.26232400  0.93620300  0.90821600  1
  O  O35  1  0.74268800  0.08207800  0.41386800  1
