# generated using pymatgen
data_Si3Cl8
_symmetry_space_group_name_H-M   'P 1'
_cell_length_a   18.28846200
_cell_length_b   18.28846200
_cell_length_c   18.28846200
_cell_angle_alpha   90.00000000
_cell_angle_beta   90.00000000
_cell_angle_gamma   90.00000000
_symmetry_Int_Tables_number   1
_chemical_formula_structural   Si3Cl8
_chemical_formula_sum   'Si48 Cl128'
_cell_volume   6116.90242459
_cell_formula_units_Z   16
loop_
 _symmetry_equiv_pos_site_id
 _symmetry_equiv_pos_as_xyz
  1  'x, y, z'
loop_
 _atom_site_type_symbol
 _atom_site_label
 _atom_site_symmetry_multiplicity
 _atom_site_fract_x
 _atom_site_fract_y
 _atom_site_fract_z
 _atom_site_occupancy
  Si  Si0  1  0.00000000  0.00000000  0.00000000  1
  Si  Si1  1  0.50000000  0.00000000  0.00000000  1
  Si  Si2  1  0.17535000  0.32465000  0.67535000  1
  Si  Si3  1  0.17535000  0.17535000  0.32465000  1
  Si  Si4  1  0.32465000  0.17535000  0.17535000  1
  Si  Si5  1  0.32465000  0.32465000  0.32465000  1
  Si  Si6  1  0.32465000  0.17535000  0.67535000  1
  Si  Si7  1  0.32465000  0.32465000  0.82465000  1
  Si  Si8  1  0.17535000  0.17535000  0.82465000  1
  Si  Si9  1  0.17535000  0.32465000  0.17535000  1
  Si  Si10  1  0.25000000  0.25000000  0.75000000  1
  Si  Si11  1  0.25000000  0.25000000  0.25000000  1
  Si  Si12  1  0.00000000  0.50000000  0.50000000  1
  Si  Si13  1  0.50000000  0.50000000  0.50000000  1
  Si  Si14  1  0.17535000  0.82465000  0.17535000  1
  Si  Si15  1  0.17535000  0.67535000  0.82465000  1
  Si  Si16  1  0.32465000  0.67535000  0.67535000  1
  Si  Si17  1  0.32465000  0.82465000  0.82465000  1
  Si  Si18  1  0.32465000  0.67535000  0.17535000  1
  Si  Si19  1  0.32465000  0.82465000  0.32465000  1
  Si  Si20  1  0.17535000  0.67535000  0.32465000  1
  Si  Si21  1  0.17535000  0.82465000  0.67535000  1
  Si  Si22  1  0.25000000  0.75000000  0.25000000  1
  Si  Si23  1  0.25000000  0.75000000  0.75000000  1
  Si  Si24  1  0.50000000  0.00000000  0.50000000  1
  Si  Si25  1  0.00000000  0.00000000  0.50000000  1
  Si  Si26  1  0.67535000  0.32465000  0.17535000  1
  Si  Si27  1  0.67535000  0.17535000  0.82465000  1
  Si  Si28  1  0.82465000  0.17535000  0.67535000  1
  Si  Si29  1  0.82465000  0.32465000  0.82465000  1
  Si  Si30  1  0.82465000  0.17535000  0.17535000  1
  Si  Si31  1  0.82465000  0.32465000  0.32465000  1
  Si  Si32  1  0.67535000  0.17535000  0.32465000  1
  Si  Si33  1  0.67535000  0.32465000  0.67535000  1
  Si  Si34  1  0.75000000  0.25000000  0.25000000  1
  Si  Si35  1  0.75000000  0.25000000  0.75000000  1
  Si  Si36  1  0.50000000  0.50000000  0.00000000  1
  Si  Si37  1  0.00000000  0.50000000  0.00000000  1
  Si  Si38  1  0.67535000  0.82465000  0.67535000  1
  Si  Si39  1  0.67535000  0.67535000  0.32465000  1
  Si  Si40  1  0.82465000  0.67535000  0.17535000  1
  Si  Si41  1  0.82465000  0.82465000  0.32465000  1
  Si  Si42  1  0.82465000  0.67535000  0.67535000  1
  Si  Si43  1  0.82465000  0.82465000  0.82465000  1
  Si  Si44  1  0.67535000  0.67535000  0.82465000  1
  Si  Si45  1  0.67535000  0.82465000  0.17535000  1
  Si  Si46  1  0.75000000  0.75000000  0.75000000  1
  Si  Si47  1  0.75000000  0.75000000  0.25000000  1
  Cl  Cl48  1  0.43579500  0.06420500  0.43579500  1
  Cl  Cl49  1  0.93579500  0.43579500  0.06420500  1
  Cl  Cl50  1  0.06420500  0.43579500  0.93579500  1
  Cl  Cl51  1  0.56420500  0.06420500  0.06420500  1
  Cl  Cl52  1  0.06420500  0.43579500  0.43579500  1
  Cl  Cl53  1  0.06420500  0.06420500  0.06420500  1
  Cl  Cl54  1  0.43579500  0.43579500  0.06420500  1
  Cl  Cl55  1  0.43579500  0.06420500  0.93579500  1
  Cl  Cl56  1  0.08733700  0.36215200  0.73366900  1
  Cl  Cl57  1  0.73366900  0.13784800  0.91266300  1
  Cl  Cl58  1  0.26633100  0.13784800  0.08733700  1
  Cl  Cl59  1  0.86215200  0.41266300  0.76633100  1
  Cl  Cl60  1  0.63784800  0.08733700  0.76633100  1
  Cl  Cl61  1  0.91266300  0.26633100  0.86215200  1
  Cl  Cl62  1  0.41266300  0.23366900  0.13784800  1
  Cl  Cl63  1  0.63784800  0.26633100  0.08733700  1
  Cl  Cl64  1  0.73366900  0.41266300  0.13784800  1
  Cl  Cl65  1  0.76633100  0.08733700  0.13784800  1
  Cl  Cl66  1  0.36215200  0.26633100  0.91266300  1
  Cl  Cl67  1  0.86215200  0.23366900  0.08733700  1
  Cl  Cl68  1  0.23366900  0.08733700  0.86215200  1
  Cl  Cl69  1  0.13784800  0.23366900  0.91266300  1
  Cl  Cl70  1  0.26633100  0.41266300  0.86215200  1
  Cl  Cl71  1  0.91266300  0.36215200  0.26633100  1
  Cl  Cl72  1  0.41266300  0.13784800  0.73366900  1
  Cl  Cl73  1  0.58733700  0.13784800  0.26633100  1
  Cl  Cl74  1  0.36215200  0.08733700  0.23366900  1
  Cl  Cl75  1  0.76633100  0.36215200  0.91266300  1
  Cl  Cl76  1  0.58733700  0.23366900  0.86215200  1
  Cl  Cl77  1  0.08733700  0.26633100  0.13784800  1
  Cl  Cl78  1  0.23366900  0.36215200  0.08733700  1
  Cl  Cl79  1  0.13784800  0.41266300  0.23366900  1
  Cl  Cl80  1  0.43579500  0.56420500  0.93579500  1
  Cl  Cl81  1  0.93579500  0.93579500  0.56420500  1
  Cl  Cl82  1  0.06420500  0.93579500  0.43579500  1
  Cl  Cl83  1  0.56420500  0.56420500  0.56420500  1
  Cl  Cl84  1  0.06420500  0.93579500  0.93579500  1
  Cl  Cl85  1  0.06420500  0.56420500  0.56420500  1
  Cl  Cl86  1  0.43579500  0.93579500  0.56420500  1
  Cl  Cl87  1  0.43579500  0.56420500  0.43579500  1
  Cl  Cl88  1  0.08733700  0.86215200  0.23366900  1
  Cl  Cl89  1  0.73366900  0.63784800  0.41266300  1
  Cl  Cl90  1  0.26633100  0.63784800  0.58733700  1
  Cl  Cl91  1  0.86215200  0.91266300  0.26633100  1
  Cl  Cl92  1  0.63784800  0.58733700  0.26633100  1
  Cl  Cl93  1  0.91266300  0.76633100  0.36215200  1
  Cl  Cl94  1  0.41266300  0.73366900  0.63784800  1
  Cl  Cl95  1  0.63784800  0.76633100  0.58733700  1
  Cl  Cl96  1  0.73366900  0.91266300  0.63784800  1
  Cl  Cl97  1  0.76633100  0.58733700  0.63784800  1
  Cl  Cl98  1  0.36215200  0.76633100  0.41266300  1
  Cl  Cl99  1  0.86215200  0.73366900  0.58733700  1
  Cl  Cl100  1  0.23366900  0.58733700  0.36215200  1
  Cl  Cl101  1  0.13784800  0.73366900  0.41266300  1
  Cl  Cl102  1  0.26633100  0.91266300  0.36215200  1
  Cl  Cl103  1  0.91266300  0.86215200  0.76633100  1
  Cl  Cl104  1  0.41266300  0.63784800  0.23366900  1
  Cl  Cl105  1  0.58733700  0.63784800  0.76633100  1
  Cl  Cl106  1  0.36215200  0.58733700  0.73366900  1
  Cl  Cl107  1  0.76633100  0.86215200  0.41266300  1
  Cl  Cl108  1  0.58733700  0.73366900  0.36215200  1
  Cl  Cl109  1  0.08733700  0.76633100  0.63784800  1
  Cl  Cl110  1  0.23366900  0.86215200  0.58733700  1
  Cl  Cl111  1  0.13784800  0.91266300  0.73366900  1
  Cl  Cl112  1  0.93579500  0.06420500  0.93579500  1
  Cl  Cl113  1  0.43579500  0.43579500  0.56420500  1
  Cl  Cl114  1  0.56420500  0.43579500  0.43579500  1
  Cl  Cl115  1  0.06420500  0.06420500  0.56420500  1
  Cl  Cl116  1  0.56420500  0.43579500  0.93579500  1
  Cl  Cl117  1  0.56420500  0.06420500  0.56420500  1
  Cl  Cl118  1  0.93579500  0.43579500  0.56420500  1
  Cl  Cl119  1  0.93579500  0.06420500  0.43579500  1
  Cl  Cl120  1  0.58733700  0.36215200  0.23366900  1
  Cl  Cl121  1  0.23366900  0.13784800  0.41266300  1
  Cl  Cl122  1  0.76633100  0.13784800  0.58733700  1
  Cl  Cl123  1  0.36215200  0.41266300  0.26633100  1
  Cl  Cl124  1  0.13784800  0.08733700  0.26633100  1
  Cl  Cl125  1  0.41266300  0.26633100  0.36215200  1
  Cl  Cl126  1  0.91266300  0.23366900  0.63784800  1
  Cl  Cl127  1  0.13784800  0.26633100  0.58733700  1
  Cl  Cl128  1  0.23366900  0.41266300  0.63784800  1
  Cl  Cl129  1  0.26633100  0.08733700  0.63784800  1
  Cl  Cl130  1  0.86215200  0.26633100  0.41266300  1
  Cl  Cl131  1  0.36215200  0.23366900  0.58733700  1
  Cl  Cl132  1  0.73366900  0.08733700  0.36215200  1
  Cl  Cl133  1  0.63784800  0.23366900  0.41266300  1
  Cl  Cl134  1  0.76633100  0.41266300  0.36215200  1
  Cl  Cl135  1  0.41266300  0.36215200  0.76633100  1
  Cl  Cl136  1  0.91266300  0.13784800  0.23366900  1
  Cl  Cl137  1  0.08733700  0.13784800  0.76633100  1
  Cl  Cl138  1  0.86215200  0.08733700  0.73366900  1
  Cl  Cl139  1  0.26633100  0.36215200  0.41266300  1
  Cl  Cl140  1  0.08733700  0.23366900  0.36215200  1
  Cl  Cl141  1  0.58733700  0.26633100  0.63784800  1
  Cl  Cl142  1  0.73366900  0.36215200  0.58733700  1
  Cl  Cl143  1  0.63784800  0.41266300  0.73366900  1
  Cl  Cl144  1  0.93579500  0.56420500  0.43579500  1
  Cl  Cl145  1  0.43579500  0.93579500  0.06420500  1
  Cl  Cl146  1  0.56420500  0.93579500  0.93579500  1
  Cl  Cl147  1  0.06420500  0.56420500  0.06420500  1
  Cl  Cl148  1  0.56420500  0.93579500  0.43579500  1
  Cl  Cl149  1  0.56420500  0.56420500  0.06420500  1
  Cl  Cl150  1  0.93579500  0.93579500  0.06420500  1
  Cl  Cl151  1  0.93579500  0.56420500  0.93579500  1
  Cl  Cl152  1  0.58733700  0.86215200  0.73366900  1
  Cl  Cl153  1  0.23366900  0.63784800  0.91266300  1
  Cl  Cl154  1  0.76633100  0.63784800  0.08733700  1
  Cl  Cl155  1  0.36215200  0.91266300  0.76633100  1
  Cl  Cl156  1  0.13784800  0.58733700  0.76633100  1
  Cl  Cl157  1  0.41266300  0.76633100  0.86215200  1
  Cl  Cl158  1  0.91266300  0.73366900  0.13784800  1
  Cl  Cl159  1  0.13784800  0.76633100  0.08733700  1
  Cl  Cl160  1  0.23366900  0.91266300  0.13784800  1
  Cl  Cl161  1  0.26633100  0.58733700  0.13784800  1
  Cl  Cl162  1  0.86215200  0.76633100  0.91266300  1
  Cl  Cl163  1  0.36215200  0.73366900  0.08733700  1
  Cl  Cl164  1  0.73366900  0.58733700  0.86215200  1
  Cl  Cl165  1  0.63784800  0.73366900  0.91266300  1
  Cl  Cl166  1  0.76633100  0.91266300  0.86215200  1
  Cl  Cl167  1  0.41266300  0.86215200  0.26633100  1
  Cl  Cl168  1  0.91266300  0.63784800  0.73366900  1
  Cl  Cl169  1  0.08733700  0.63784800  0.26633100  1
  Cl  Cl170  1  0.86215200  0.58733700  0.23366900  1
  Cl  Cl171  1  0.26633100  0.86215200  0.91266300  1
  Cl  Cl172  1  0.08733700  0.73366900  0.86215200  1
  Cl  Cl173  1  0.58733700  0.76633100  0.13784800  1
  Cl  Cl174  1  0.73366900  0.86215200  0.08733700  1
  Cl  Cl175  1  0.63784800  0.91266300  0.23366900  1
