# generated using pymatgen
data_Ca3Ga4O9
_symmetry_space_group_name_H-M   'P 1'
_cell_length_a   14.51292800
_cell_length_b   16.99380800
_cell_length_c   5.37284300
_cell_angle_alpha   90.00000000
_cell_angle_beta   90.00000000
_cell_angle_gamma   90.00000000
_symmetry_Int_Tables_number   1
_chemical_formula_structural   Ca3Ga4O9
_chemical_formula_sum   'Ca18 Ga24 O54'
_cell_volume   1325.10379601
_cell_formula_units_Z   6
loop_
 _symmetry_equiv_pos_site_id
 _symmetry_equiv_pos_as_xyz
  1  'x, y, z'
loop_
 _atom_site_type_symbol
 _atom_site_label
 _atom_site_symmetry_multiplicity
 _atom_site_fract_x
 _atom_site_fract_y
 _atom_site_fract_z
 _atom_site_occupancy
  Ca  Ca0  1  0.00000000  0.00000000  0.00218700  1
  Ca  Ca1  1  0.50000000  0.09764600  0.90818300  1
  Ca  Ca2  1  0.50000000  0.90235400  0.90818300  1
  Ca  Ca3  1  0.37050650  0.29084050  0.96794100  1
  Ca  Ca4  1  0.62949350  0.70915950  0.96794100  1
  Ca  Ca5  1  0.62949350  0.29084050  0.96794100  1
  Ca  Ca6  1  0.37050650  0.70915950  0.96794100  1
  Ca  Ca7  1  0.75968500  0.00000000  0.95392800  1
  Ca  Ca8  1  0.24031500  0.00000000  0.95392800  1
  Ca  Ca9  1  0.50000000  0.50000000  0.00218700  1
  Ca  Ca10  1  0.00000000  0.59764600  0.90818300  1
  Ca  Ca11  1  0.00000000  0.40235400  0.90818300  1
  Ca  Ca12  1  0.87050650  0.79084050  0.96794100  1
  Ca  Ca13  1  0.12949350  0.20915950  0.96794100  1
  Ca  Ca14  1  0.12949350  0.79084050  0.96794100  1
  Ca  Ca15  1  0.87050650  0.20915950  0.96794100  1
  Ca  Ca16  1  0.25968500  0.50000000  0.95392800  1
  Ca  Ca17  1  0.74031500  0.50000000  0.95392800  1
  Ga  Ga18  1  0.10912300  0.90624000  0.48706400  1
  Ga  Ga19  1  0.10912300  0.09376000  0.48706400  1
  Ga  Ga20  1  0.89087700  0.90624000  0.48706400  1
  Ga  Ga21  1  0.89087700  0.09376000  0.48706400  1
  Ga  Ga22  1  0.29954800  0.16541400  0.44070200  1
  Ga  Ga23  1  0.70045200  0.83458600  0.44070200  1
  Ga  Ga24  1  0.70045200  0.16541400  0.44070200  1
  Ga  Ga25  1  0.29954800  0.83458600  0.44070200  1
  Ga  Ga26  1  0.61185200  0.00000000  0.39348900  1
  Ga  Ga27  1  0.38814800  0.00000000  0.39348900  1
  Ga  Ga28  1  0.50000000  0.23769500  0.47184800  1
  Ga  Ga29  1  0.50000000  0.76230500  0.47184800  1
  Ga  Ga30  1  0.60912300  0.40624000  0.48706400  1
  Ga  Ga31  1  0.60912300  0.59376000  0.48706400  1
  Ga  Ga32  1  0.39087700  0.40624000  0.48706400  1
  Ga  Ga33  1  0.39087700  0.59376000  0.48706400  1
  Ga  Ga34  1  0.79954800  0.66541400  0.44070200  1
  Ga  Ga35  1  0.20045200  0.33458600  0.44070200  1
  Ga  Ga36  1  0.20045200  0.66541400  0.44070200  1
  Ga  Ga37  1  0.79954800  0.33458600  0.44070200  1
  Ga  Ga38  1  0.11185200  0.50000000  0.39348900  1
  Ga  Ga39  1  0.88814800  0.50000000  0.39348900  1
  Ga  Ga40  1  0.00000000  0.73769500  0.47184800  1
  Ga  Ga41  1  0.00000000  0.26230500  0.47184800  1
  O  O42  1  0.25000000  0.75000000  0.24240300  1
  O  O43  1  0.25000000  0.25000000  0.24240300  1
  O  O44  1  0.33012050  0.91498950  0.22758800  1
  O  O45  1  0.66987950  0.08501050  0.22758800  1
  O  O46  1  0.66987950  0.91498950  0.22758800  1
  O  O47  1  0.33012050  0.08501050  0.22758800  1
  O  O48  1  0.50000000  0.77139400  0.13508400  1
  O  O49  1  0.50000000  0.22860600  0.13508400  1
  O  O50  1  0.88657950  0.08946450  0.15193100  1
  O  O51  1  0.11342050  0.91053550  0.15193100  1
  O  O52  1  0.11342050  0.08946450  0.15193100  1
  O  O53  1  0.88657950  0.91053550  0.15193100  1
  O  O54  1  0.50000000  0.00000000  0.22198200  1
  O  O55  1  0.20655000  0.86045100  0.66326100  1
  O  O56  1  0.79345000  0.13954900  0.66326100  1
  O  O57  1  0.79345000  0.86045100  0.66326100  1
  O  O58  1  0.20655000  0.13954900  0.66326100  1
  O  O59  1  0.50000000  0.65385200  0.59803500  1
  O  O60  1  0.50000000  0.34614800  0.59803500  1
  O  O61  1  0.39942700  0.80440000  0.64151100  1
  O  O62  1  0.60057300  0.19560000  0.64151100  1
  O  O63  1  0.60809000  0.00000000  0.73228300  1
  O  O64  1  0.39191000  0.00000000  0.73228300  1
  O  O65  1  0.89716000  0.00000000  0.66112700  1
  O  O66  1  0.10284000  0.00000000  0.66112700  1
  O  O67  1  0.39942700  0.19560000  0.64151100  1
  O  O68  1  0.60057300  0.80440000  0.64151100  1
  O  O69  1  0.75000000  0.25000000  0.24240300  1
  O  O70  1  0.75000000  0.75000000  0.24240300  1
  O  O71  1  0.83012050  0.41498950  0.22758800  1
  O  O72  1  0.16987950  0.58501050  0.22758800  1
  O  O73  1  0.16987950  0.41498950  0.22758800  1
  O  O74  1  0.83012050  0.58501050  0.22758800  1
  O  O75  1  0.00000000  0.27139400  0.13508400  1
  O  O76  1  0.00000000  0.72860600  0.13508400  1
  O  O77  1  0.38657950  0.58946450  0.15193100  1
  O  O78  1  0.61342050  0.41053550  0.15193100  1
  O  O79  1  0.61342050  0.58946450  0.15193100  1
  O  O80  1  0.38657950  0.41053550  0.15193100  1
  O  O81  1  0.00000000  0.50000000  0.22198200  1
  O  O82  1  0.70655000  0.36045100  0.66326100  1
  O  O83  1  0.29345000  0.63954900  0.66326100  1
  O  O84  1  0.29345000  0.36045100  0.66326100  1
  O  O85  1  0.70655000  0.63954900  0.66326100  1
  O  O86  1  0.00000000  0.15385200  0.59803500  1
  O  O87  1  0.00000000  0.84614800  0.59803500  1
  O  O88  1  0.89942700  0.30440000  0.64151100  1
  O  O89  1  0.10057300  0.69560000  0.64151100  1
  O  O90  1  0.10809000  0.50000000  0.73228300  1
  O  O91  1  0.89191000  0.50000000  0.73228300  1
  O  O92  1  0.39716000  0.50000000  0.66112700  1
  O  O93  1  0.60284000  0.50000000  0.66112700  1
  O  O94  1  0.89942700  0.69560000  0.64151100  1
  O  O95  1  0.10057300  0.30440000  0.64151100  1
