# generated using pymatgen
data_Li3Bi2(PO4)3
_symmetry_space_group_name_H-M   'P 1'
_cell_length_a   8.92818967
_cell_length_b   8.92818967
_cell_length_c   24.85037273
_cell_angle_alpha   90.00000000
_cell_angle_beta   90.00000000
_cell_angle_gamma   120.00000000
_symmetry_Int_Tables_number   1
_chemical_formula_structural   Li3Bi2(PO4)3
_chemical_formula_sum   'Li18 Bi12 P18 O72'
_cell_volume   1715.49854520
_cell_formula_units_Z   6
loop_
 _symmetry_equiv_pos_site_id
 _symmetry_equiv_pos_as_xyz
  1  'x, y, z'
loop_
 _atom_site_type_symbol
 _atom_site_label
 _atom_site_symmetry_multiplicity
 _atom_site_fract_x
 _atom_site_fract_y
 _atom_site_fract_z
 _atom_site_occupancy
  Li  Li0  1  0.28818700  0.30791700  0.04507200  1
  Li  Li1  1  0.37847967  0.02541633  0.28826133  1
  Li  Li2  1  0.97458367  0.35306333  0.28826133  1
  Li  Li3  1  0.64693667  0.62152033  0.28826133  1
  Li  Li4  1  0.01973000  0.71181300  0.04507200  1
  Li  Li5  1  0.69208300  0.98027000  0.04507200  1
  Li  Li6  1  0.95485367  0.64125033  0.37840533  1
  Li  Li7  1  0.04514633  0.35874967  0.62159467  1
  Li  Li8  1  0.64125033  0.68639667  0.62159467  1
  Li  Li9  1  0.31360333  0.95485367  0.62159467  1
  Li  Li10  1  0.68639667  0.04514633  0.37840533  1
  Li  Li11  1  0.35874967  0.31360333  0.37840533  1
  Li  Li12  1  0.62152033  0.97458367  0.71173867  1
  Li  Li13  1  0.71181300  0.69208300  0.95492800  1
  Li  Li14  1  0.30791700  0.01973000  0.95492800  1
  Li  Li15  1  0.98027000  0.28818700  0.95492800  1
  Li  Li16  1  0.35306333  0.37847967  0.71173867  1
  Li  Li17  1  0.02541633  0.64693667  0.71173867  1
  Bi  Bi18  1  0.33333333  0.66666667  0.32206767  1
  Bi  Bi19  1  0.00000000  0.00000000  0.15233800  1
  Bi  Bi20  1  0.66666667  0.33333333  0.18099533  1
  Bi  Bi21  1  0.33333333  0.66666667  0.01126567  1
  Bi  Bi22  1  0.00000000  0.00000000  0.65540100  1
  Bi  Bi23  1  0.66666667  0.33333333  0.48567133  1
  Bi  Bi24  1  0.33333333  0.66666667  0.51432867  1
  Bi  Bi25  1  0.00000000  0.00000000  0.34459900  1
  Bi  Bi26  1  0.66666667  0.33333333  0.98873433  1
  Bi  Bi27  1  0.33333333  0.66666667  0.81900467  1
  Bi  Bi28  1  0.00000000  0.00000000  0.84766200  1
  Bi  Bi29  1  0.66666667  0.33333333  0.67793233  1
  P  P30  1  0.69525967  0.00277833  0.25476033  1
  P  P31  1  0.35914800  0.02859300  0.07857300  1
  P  P32  1  0.30751867  0.30474033  0.25476033  1
  P  P33  1  0.97140700  0.33055500  0.07857300  1
  P  P34  1  0.66944500  0.64085200  0.07857300  1
  P  P35  1  0.99722167  0.69248133  0.25476033  1
  P  P36  1  0.36192633  0.33611167  0.58809367  1
  P  P37  1  0.02581467  0.36192633  0.41190633  1
  P  P38  1  0.97418533  0.63807367  0.58809367  1
  P  P39  1  0.63807367  0.66388833  0.41190633  1
  P  P40  1  0.33611167  0.97418533  0.41190633  1
  P  P41  1  0.66388833  0.02581467  0.58809367  1
  P  P42  1  0.02859300  0.66944500  0.92142700  1
  P  P43  1  0.69248133  0.69525967  0.74523967  1
  P  P44  1  0.64085200  0.97140700  0.92142700  1
  P  P45  1  0.30474033  0.99722167  0.74523967  1
  P  P46  1  0.00277833  0.30751867  0.74523967  1
  P  P47  1  0.33055500  0.35914800  0.92142700  1
  O  O48  1  0.58471700  0.80808900  0.27183300  1
  O  O49  1  0.19191100  0.77662800  0.27183300  1
  O  O50  1  0.91646967  0.49643933  0.24428733  1
  O  O51  1  0.89621800  0.71449200  0.30385200  1
  O  O52  1  0.77044867  0.61884133  0.02948133  1
  O  O53  1  0.75019700  0.83689400  0.08904600  1
  O  O54  1  0.47475567  0.55670533  0.06150033  1
  O  O55  1  0.84839267  0.22955133  0.02948133  1
  O  O56  1  0.80519533  0.02043067  0.20542767  1
  O  O57  1  0.38115867  0.15160733  0.02948133  1
  O  O58  1  0.68709733  0.54856867  0.12790567  1
  O  O59  1  0.86147133  0.31290267  0.12790567  1
  O  O60  1  0.44329467  0.91805033  0.06150033  1
  O  O61  1  0.16310600  0.91330300  0.08904600  1
  O  O62  1  0.08669700  0.24980300  0.08904600  1
  O  O63  1  0.45143133  0.13852867  0.12790567  1
  O  O64  1  0.21523533  0.19480467  0.20542767  1
  O  O65  1  0.08194967  0.52524433  0.06150033  1
  O  O66  1  0.50356067  0.42003033  0.24428733  1
  O  O67  1  0.22337200  0.41528300  0.27183300  1
  O  O68  1  0.57996967  0.08353033  0.24428733  1
  O  O69  1  0.97956933  0.78476467  0.20542767  1
  O  O70  1  0.28550800  0.18172600  0.30385200  1
  O  O71  1  0.81827400  0.10378200  0.30385200  1
  O  O72  1  0.25138367  0.14142233  0.60516633  1
  O  O73  1  0.85857767  0.10996133  0.60516633  1
  O  O74  1  0.58313633  0.82977267  0.57762067  1
  O  O75  1  0.56288467  0.04782533  0.63718533  1
  O  O76  1  0.43711533  0.95217467  0.36281467  1
  O  O77  1  0.41686367  0.17022733  0.42237933  1
  O  O78  1  0.14142233  0.89003867  0.39483367  1
  O  O79  1  0.51505933  0.56288467  0.36281467  1
  O  O80  1  0.47186200  0.35376400  0.53876100  1
  O  O81  1  0.04782533  0.48494067  0.36281467  1
  O  O82  1  0.35376400  0.88190200  0.46123900  1
  O  O83  1  0.52813800  0.64623600  0.46123900  1
  O  O84  1  0.10996133  0.25138367  0.39483367  1
  O  O85  1  0.82977267  0.24663633  0.42237933  1
  O  O86  1  0.75336367  0.58313633  0.42237933  1
  O  O87  1  0.11809800  0.47186200  0.46123900  1
  O  O88  1  0.88190200  0.52813800  0.53876100  1
  O  O89  1  0.74861633  0.85857767  0.39483367  1
  O  O90  1  0.17022733  0.75336367  0.57762067  1
  O  O91  1  0.89003867  0.74861633  0.60516633  1
  O  O92  1  0.24663633  0.41686367  0.57762067  1
  O  O93  1  0.64623600  0.11809800  0.53876100  1
  O  O94  1  0.95217467  0.51505933  0.63718533  1
  O  O95  1  0.48494067  0.43711533  0.63718533  1
  O  O96  1  0.91805033  0.47475567  0.93849967  1
  O  O97  1  0.52524433  0.44329467  0.93849967  1
  O  O98  1  0.24980300  0.16310600  0.91095400  1
  O  O99  1  0.22955133  0.38115867  0.97051867  1
  O  O100  1  0.10378200  0.28550800  0.69614800  1
  O  O101  1  0.08353033  0.50356067  0.75571267  1
  O  O102  1  0.80808900  0.22337200  0.72816700  1
  O  O103  1  0.18172600  0.89621800  0.69614800  1
  O  O104  1  0.13852867  0.68709733  0.87209433  1
  O  O105  1  0.71449200  0.81827400  0.69614800  1
  O  O106  1  0.02043067  0.21523533  0.79457233  1
  O  O107  1  0.19480467  0.97956933  0.79457233  1
  O  O108  1  0.77662800  0.58471700  0.72816700  1
  O  O109  1  0.49643933  0.57996967  0.75571267  1
  O  O110  1  0.42003033  0.91646967  0.75571267  1
  O  O111  1  0.78476467  0.80519533  0.79457233  1
  O  O112  1  0.54856867  0.86147133  0.87209433  1
  O  O113  1  0.41528300  0.19191100  0.72816700  1
  O  O114  1  0.83689400  0.08669700  0.91095400  1
  O  O115  1  0.55670533  0.08194967  0.93849967  1
  O  O116  1  0.91330300  0.75019700  0.91095400  1
  O  O117  1  0.31290267  0.45143133  0.87209433  1
  O  O118  1  0.61884133  0.84839267  0.97051867  1
  O  O119  1  0.15160733  0.77044867  0.97051867  1
