# generated using pymatgen
data_BiPS4
_symmetry_space_group_name_H-M   'P 1'
_cell_length_a   10.80448400
_cell_length_b   11.28062000
_cell_length_c   19.88048400
_cell_angle_alpha   90.00000000
_cell_angle_beta   90.00000000
_cell_angle_gamma   90.00000000
_symmetry_Int_Tables_number   1
_chemical_formula_structural   BiPS4
_chemical_formula_sum   'Bi16 P16 S64'
_cell_volume   2423.05880314
_cell_formula_units_Z   16
loop_
 _symmetry_equiv_pos_site_id
 _symmetry_equiv_pos_as_xyz
  1  'x, y, z'
loop_
 _atom_site_type_symbol
 _atom_site_label
 _atom_site_symmetry_multiplicity
 _atom_site_fract_x
 _atom_site_fract_y
 _atom_site_fract_z
 _atom_site_occupancy
  Bi  Bi0  1  0.50000000  0.25000000  0.89124500  1
  Bi  Bi1  1  0.50000000  0.75000000  0.60875500  1
  Bi  Bi2  1  0.00000000  0.25000000  0.60875500  1
  Bi  Bi3  1  0.00000000  0.75000000  0.89124500  1
  Bi  Bi4  1  0.00000000  0.75000000  0.64789100  1
  Bi  Bi5  1  0.00000000  0.25000000  0.85210900  1
  Bi  Bi6  1  0.50000000  0.75000000  0.85210900  1
  Bi  Bi7  1  0.50000000  0.25000000  0.64789100  1
  Bi  Bi8  1  0.00000000  0.75000000  0.39124500  1
  Bi  Bi9  1  0.00000000  0.25000000  0.10875500  1
  Bi  Bi10  1  0.50000000  0.75000000  0.10875500  1
  Bi  Bi11  1  0.50000000  0.25000000  0.39124500  1
  Bi  Bi12  1  0.50000000  0.25000000  0.14789100  1
  Bi  Bi13  1  0.50000000  0.75000000  0.35210900  1
  Bi  Bi14  1  0.00000000  0.25000000  0.35210900  1
  Bi  Bi15  1  0.00000000  0.75000000  0.14789100  1
  P  P16  1  0.03038500  0.00000000  0.75000000  1
  P  P17  1  0.25000000  0.28634100  0.00000000  1
  P  P18  1  0.75000000  0.21365900  0.00000000  1
  P  P19  1  0.75000000  0.71365900  0.00000000  1
  P  P20  1  0.25000000  0.78634100  0.00000000  1
  P  P21  1  0.53038500  0.00000000  0.75000000  1
  P  P22  1  0.46961500  0.50000000  0.75000000  1
  P  P23  1  0.96961500  0.50000000  0.75000000  1
  P  P24  1  0.53038500  0.50000000  0.25000000  1
  P  P25  1  0.75000000  0.78634100  0.50000000  1
  P  P26  1  0.25000000  0.71365900  0.50000000  1
  P  P27  1  0.25000000  0.21365900  0.50000000  1
  P  P28  1  0.75000000  0.28634100  0.50000000  1
  P  P29  1  0.03038500  0.50000000  0.25000000  1
  P  P30  1  0.96961500  0.00000000  0.25000000  1
  P  P31  1  0.46961500  0.00000000  0.25000000  1
  S  S32  1  0.59278050  0.88857250  0.50701550  1
  S  S33  1  0.09278050  0.88857250  0.99298450  1
  S  S34  1  0.90721950  0.38857250  0.50701550  1
  S  S35  1  0.09278050  0.11142750  0.50701550  1
  S  S36  1  0.90721950  0.61142750  0.99298450  1
  S  S37  1  0.40721950  0.61142750  0.50701550  1
  S  S38  1  0.59278050  0.11142750  0.99298450  1
  S  S39  1  0.40721950  0.38857250  0.99298450  1
  S  S40  1  0.13600550  0.84713050  0.75363350  1
  S  S41  1  0.86399450  0.34713050  0.74636650  1
  S  S42  1  0.13600550  0.15286950  0.74636650  1
  S  S43  1  0.86399450  0.65286950  0.75363350  1
  S  S44  1  0.36399450  0.65286950  0.74636650  1
  S  S45  1  0.63600550  0.15286950  0.75363350  1
  S  S46  1  0.36399450  0.34713050  0.75363350  1
  S  S47  1  0.63600550  0.84713050  0.74636650  1
  S  S48  1  0.92636800  0.01050700  0.83595200  1
  S  S49  1  0.07363200  0.51050700  0.66404800  1
  S  S50  1  0.92636800  0.98949300  0.66404800  1
  S  S51  1  0.07363200  0.48949300  0.83595200  1
  S  S52  1  0.57363200  0.48949300  0.66404800  1
  S  S53  1  0.42636800  0.98949300  0.83595200  1
  S  S54  1  0.57363200  0.51050700  0.83595200  1
  S  S55  1  0.42636800  0.01050700  0.66404800  1
  S  S56  1  0.74702000  0.81735300  0.91482100  1
  S  S57  1  0.25298000  0.31735300  0.58517900  1
  S  S58  1  0.74702000  0.18264700  0.58517900  1
  S  S59  1  0.25298000  0.68264700  0.91482100  1
  S  S60  1  0.75298000  0.68264700  0.58517900  1
  S  S61  1  0.24702000  0.18264700  0.91482100  1
  S  S62  1  0.75298000  0.31735300  0.91482100  1
  S  S63  1  0.24702000  0.81735300  0.58517900  1
  S  S64  1  0.09278050  0.38857250  0.00701550  1
  S  S65  1  0.59278050  0.38857250  0.49298450  1
  S  S66  1  0.40721950  0.88857250  0.00701550  1
  S  S67  1  0.59278050  0.61142750  0.00701550  1
  S  S68  1  0.40721950  0.11142750  0.49298450  1
  S  S69  1  0.90721950  0.11142750  0.00701550  1
  S  S70  1  0.09278050  0.61142750  0.49298450  1
  S  S71  1  0.90721950  0.88857250  0.49298450  1
  S  S72  1  0.63600550  0.34713050  0.25363350  1
  S  S73  1  0.36399450  0.84713050  0.24636650  1
  S  S74  1  0.63600550  0.65286950  0.24636650  1
  S  S75  1  0.36399450  0.15286950  0.25363350  1
  S  S76  1  0.86399450  0.15286950  0.24636650  1
  S  S77  1  0.13600550  0.65286950  0.25363350  1
  S  S78  1  0.86399450  0.84713050  0.25363350  1
  S  S79  1  0.13600550  0.34713050  0.24636650  1
  S  S80  1  0.42636800  0.51050700  0.33595200  1
  S  S81  1  0.57363200  0.01050700  0.16404800  1
  S  S82  1  0.42636800  0.48949300  0.16404800  1
  S  S83  1  0.57363200  0.98949300  0.33595200  1
  S  S84  1  0.07363200  0.98949300  0.16404800  1
  S  S85  1  0.92636800  0.48949300  0.33595200  1
  S  S86  1  0.07363200  0.01050700  0.33595200  1
  S  S87  1  0.92636800  0.51050700  0.16404800  1
  S  S88  1  0.24702000  0.31735300  0.41482100  1
  S  S89  1  0.75298000  0.81735300  0.08517900  1
  S  S90  1  0.24702000  0.68264700  0.08517900  1
  S  S91  1  0.75298000  0.18264700  0.41482100  1
  S  S92  1  0.25298000  0.18264700  0.08517900  1
  S  S93  1  0.74702000  0.68264700  0.41482100  1
  S  S94  1  0.25298000  0.81735300  0.41482100  1
  S  S95  1  0.74702000  0.31735300  0.08517900  1
