# generated using pymatgen
data_Ag4P2S7
_symmetry_space_group_name_H-M   'P 1'
_cell_length_a   10.95191600
_cell_length_b   6.65558400
_cell_length_c   16.53335431
_cell_angle_alpha   90.00000000
_cell_angle_beta   106.11481633
_cell_angle_gamma   90.00000000
_symmetry_Int_Tables_number   1
_chemical_formula_structural   Ag4P2S7
_chemical_formula_sum   'Ag16 P8 S28'
_cell_volume   1157.78624719
_cell_formula_units_Z   4
loop_
 _symmetry_equiv_pos_site_id
 _symmetry_equiv_pos_as_xyz
  1  'x, y, z'
loop_
 _atom_site_type_symbol
 _atom_site_label
 _atom_site_symmetry_multiplicity
 _atom_site_fract_x
 _atom_site_fract_y
 _atom_site_fract_z
 _atom_site_occupancy
  Ag  Ag0  1  0.54150750  0.71956050  0.55495200  1
  Ag  Ag1  1  0.95849250  0.21956050  0.94504800  1
  Ag  Ag2  1  0.95849250  0.78043950  0.44504800  1
  Ag  Ag3  1  0.54150750  0.28043950  0.05495200  1
  Ag  Ag4  1  0.75820700  0.79633700  0.83705200  1
  Ag  Ag5  1  0.74179300  0.29633700  0.66294800  1
  Ag  Ag6  1  0.74179300  0.70366300  0.16294800  1
  Ag  Ag7  1  0.75820700  0.20366300  0.33705200  1
  Ag  Ag8  1  0.04150750  0.21956050  0.55495200  1
  Ag  Ag9  1  0.45849250  0.71956050  0.94504800  1
  Ag  Ag10  1  0.45849250  0.28043950  0.44504800  1
  Ag  Ag11  1  0.04150750  0.78043950  0.05495200  1
  Ag  Ag12  1  0.25820700  0.29633700  0.83705200  1
  Ag  Ag13  1  0.24179300  0.79633700  0.66294800  1
  Ag  Ag14  1  0.24179300  0.20366300  0.16294800  1
  Ag  Ag15  1  0.25820700  0.70366300  0.33705200  1
  P  P16  1  0.39192750  0.67495050  0.14356800  1
  P  P17  1  0.89192750  0.82504950  0.64356800  1
  P  P18  1  0.10807250  0.82504950  0.85643200  1
  P  P19  1  0.60807250  0.67495050  0.35643200  1
  P  P20  1  0.89192750  0.17495050  0.14356800  1
  P  P21  1  0.39192750  0.32504950  0.64356800  1
  P  P22  1  0.60807250  0.32504950  0.85643200  1
  P  P23  1  0.10807250  0.17495050  0.35643200  1
  S  S24  1  0.49478900  0.85717200  0.40257600  1
  S  S25  1  0.50521100  0.85717200  0.09742400  1
  S  S26  1  0.74392050  0.68075350  0.67624100  1
  S  S27  1  0.25607950  0.68075350  0.82375900  1
  S  S28  1  0.00000000  0.99475400  0.75000000  1
  S  S29  1  0.99478900  0.64282800  0.90257600  1
  S  S30  1  0.00521100  0.64282800  0.59742400  1
  S  S31  1  0.50000000  0.50524600  0.25000000  1
  S  S32  1  0.66978300  0.43045900  0.43194800  1
  S  S33  1  0.83021700  0.93045900  0.06805200  1
  S  S34  1  0.83021700  0.06954100  0.56805200  1
  S  S35  1  0.66978300  0.56954100  0.93194800  1
  S  S36  1  0.24392050  0.81924650  0.17624100  1
  S  S37  1  0.75607950  0.81924650  0.32375900  1
  S  S38  1  0.99478900  0.35717200  0.40257600  1
  S  S39  1  0.00521100  0.35717200  0.09742400  1
  S  S40  1  0.24392050  0.18075350  0.67624100  1
  S  S41  1  0.75607950  0.18075350  0.82375900  1
  S  S42  1  0.50000000  0.49475400  0.75000000  1
  S  S43  1  0.49478900  0.14282800  0.90257600  1
  S  S44  1  0.50521100  0.14282800  0.59742400  1
  S  S45  1  0.00000000  0.00524600  0.25000000  1
  S  S46  1  0.16978300  0.93045900  0.43194800  1
  S  S47  1  0.33021700  0.43045900  0.06805200  1
  S  S48  1  0.33021700  0.56954100  0.56805200  1
  S  S49  1  0.16978300  0.06954100  0.93194800  1
  S  S50  1  0.74392050  0.31924650  0.17624100  1
  S  S51  1  0.25607950  0.31924650  0.32375900  1
