# generated using pymatgen
data_CsPbF3
_symmetry_space_group_name_H-M   'P 1'
_cell_length_a   6.96100425
_cell_length_b   6.96100425
_cell_length_c   16.59623386
_cell_angle_alpha   90.00000000
_cell_angle_beta   90.00000000
_cell_angle_gamma   120.00000000
_symmetry_Int_Tables_number   1
_chemical_formula_structural   CsPbF3
_chemical_formula_sum   'Cs6 Pb6 F18'
_cell_volume   696.44042982
_cell_formula_units_Z   6
loop_
 _symmetry_equiv_pos_site_id
 _symmetry_equiv_pos_as_xyz
  1  'x, y, z'
loop_
 _atom_site_type_symbol
 _atom_site_label
 _atom_site_symmetry_multiplicity
 _atom_site_fract_x
 _atom_site_fract_y
 _atom_site_fract_z
 _atom_site_occupancy
  Cs  Cs0  1  0.33333333  0.66666667  0.42612567  1
  Cs  Cs1  1  0.33333333  0.66666667  0.92612567  1
  Cs  Cs2  1  0.00000000  0.00000000  0.75945900  1
  Cs  Cs3  1  0.00000000  0.00000000  0.25945900  1
  Cs  Cs4  1  0.66666667  0.33333333  0.09279233  1
  Cs  Cs5  1  0.66666667  0.33333333  0.59279233  1
  Pb  Pb6  1  0.33333333  0.66666667  0.67217167  1
  Pb  Pb7  1  0.33333333  0.66666667  0.17217167  1
  Pb  Pb8  1  0.00000000  0.00000000  0.00550500  1
  Pb  Pb9  1  0.00000000  0.00000000  0.50550500  1
  Pb  Pb10  1  0.66666667  0.33333333  0.33883833  1
  Pb  Pb11  1  0.66666667  0.33333333  0.83883833  1
  F  F12  1  0.45918367  0.43557633  0.24994533  1
  F  F13  1  0.97639267  0.54081633  0.24994533  1
  F  F14  1  0.56442367  0.02360733  0.24994533  1
  F  F15  1  0.23109033  0.87414967  0.08327867  1
  F  F16  1  0.12585033  0.35694067  0.08327867  1
  F  F17  1  0.64305933  0.76890967  0.08327867  1
  F  F18  1  0.12585033  0.76890967  0.58327867  1
  F  F19  1  0.64305933  0.87414967  0.58327867  1
  F  F20  1  0.23109033  0.35694067  0.58327867  1
  F  F21  1  0.89775700  0.20748300  0.41661200  1
  F  F22  1  0.79251700  0.69027400  0.41661200  1
  F  F23  1  0.30972600  0.10224300  0.41661200  1
  F  F24  1  0.79251700  0.10224300  0.91661200  1
  F  F25  1  0.30972600  0.20748300  0.91661200  1
  F  F26  1  0.89775700  0.69027400  0.91661200  1
  F  F27  1  0.56442367  0.54081633  0.74994533  1
  F  F28  1  0.45918367  0.02360733  0.74994533  1
  F  F29  1  0.97639267  0.43557633  0.74994533  1
