# generated using pymatgen
data_NaInTe2
_symmetry_space_group_name_H-M   'P 1'
_cell_length_a   8.42139800
_cell_length_b   8.42139800
_cell_length_c   7.28156000
_cell_angle_alpha   90.00000000
_cell_angle_beta   90.00000000
_cell_angle_gamma   90.00000000
_symmetry_Int_Tables_number   1
_chemical_formula_structural   NaInTe2
_chemical_formula_sum   'Na4 In4 Te8'
_cell_volume   516.40782943
_cell_formula_units_Z   4
loop_
 _symmetry_equiv_pos_site_id
 _symmetry_equiv_pos_as_xyz
  1  'x, y, z'
loop_
 _atom_site_type_symbol
 _atom_site_label
 _atom_site_symmetry_multiplicity
 _atom_site_fract_x
 _atom_site_fract_y
 _atom_site_fract_z
 _atom_site_occupancy
  Na  Na0  1  0.00000000  0.00000000  0.25000000  1
  Na  Na1  1  0.00000000  0.00000000  0.75000000  1
  Na  Na2  1  0.50000000  0.50000000  0.75000000  1
  Na  Na3  1  0.50000000  0.50000000  0.25000000  1
  In  In4  1  0.50000000  0.00000000  0.25000000  1
  In  In5  1  0.00000000  0.50000000  0.25000000  1
  In  In6  1  0.00000000  0.50000000  0.75000000  1
  In  In7  1  0.50000000  0.00000000  0.75000000  1
  Te  Te8  1  0.18452850  0.68452850  0.00000000  1
  Te  Te9  1  0.18452850  0.31547150  0.50000000  1
  Te  Te10  1  0.31547150  0.18452850  0.00000000  1
  Te  Te11  1  0.31547150  0.81547150  0.50000000  1
  Te  Te12  1  0.68452850  0.18452850  0.50000000  1
  Te  Te13  1  0.68452850  0.81547150  0.00000000  1
  Te  Te14  1  0.81547150  0.68452850  0.50000000  1
  Te  Te15  1  0.81547150  0.31547150  0.00000000  1
