# generated using pymatgen
data_Ti4Bi2O11
_symmetry_space_group_name_H-M   'P 1'
_cell_length_a   14.93063000
_cell_length_b   3.79694200
_cell_length_c   10.31121981
_cell_angle_alpha   90.00000000
_cell_angle_beta   132.88404609
_cell_angle_gamma   90.00000000
_symmetry_Int_Tables_number   1
_chemical_formula_structural   Ti4Bi2O11
_chemical_formula_sum   'Ti8 Bi4 O22'
_cell_volume   428.31920361
_cell_formula_units_Z   2
loop_
 _symmetry_equiv_pos_site_id
 _symmetry_equiv_pos_as_xyz
  1  'x, y, z'
loop_
 _atom_site_type_symbol
 _atom_site_label
 _atom_site_symmetry_multiplicity
 _atom_site_fract_x
 _atom_site_fract_y
 _atom_site_fract_z
 _atom_site_occupancy
  Ti  Ti0  1  0.38120200  0.00000000  0.46829200  1
  Ti  Ti1  1  0.61879800  0.00000000  0.53170800  1
  Ti  Ti2  1  0.83917000  0.50000000  0.78205300  1
  Ti  Ti3  1  0.16083000  0.50000000  0.21794700  1
  Ti  Ti4  1  0.88120200  0.50000000  0.46829200  1
  Ti  Ti5  1  0.11879800  0.50000000  0.53170800  1
  Ti  Ti6  1  0.33917000  0.00000000  0.78205300  1
  Ti  Ti7  1  0.66083000  0.00000000  0.21794700  1
  Bi  Bi8  1  0.38924700  0.50000000  0.14190500  1
  Bi  Bi9  1  0.61075300  0.50000000  0.85809500  1
  Bi  Bi10  1  0.88924700  0.00000000  0.14190500  1
  Bi  Bi11  1  0.11075300  0.00000000  0.85809500  1
  O  O12  1  0.79261300  0.50000000  0.95128300  1
  O  O13  1  0.20738700  0.50000000  0.04871700  1
  O  O14  1  0.37652500  0.00000000  0.64722500  1
  O  O15  1  0.62347500  0.00000000  0.35277500  1
  O  O16  1  0.56307700  0.00000000  0.66714100  1
  O  O17  1  0.43692300  0.00000000  0.33285900  1
  O  O18  1  0.20093000  0.00000000  0.24185600  1
  O  O19  1  0.79907000  0.00000000  0.75814400  1
  O  O20  1  0.35422400  0.50000000  0.42962600  1
  O  O21  1  0.64577600  0.50000000  0.57037400  1
  O  O22  1  0.00000000  0.50000000  0.00000000  1
  O  O23  1  0.29261300  0.00000000  0.95128300  1
  O  O24  1  0.70738700  0.00000000  0.04871700  1
  O  O25  1  0.87652500  0.50000000  0.64722500  1
  O  O26  1  0.12347500  0.50000000  0.35277500  1
  O  O27  1  0.06307700  0.50000000  0.66714100  1
  O  O28  1  0.93692300  0.50000000  0.33285900  1
  O  O29  1  0.70093000  0.50000000  0.24185600  1
  O  O30  1  0.29907000  0.50000000  0.75814400  1
  O  O31  1  0.85422400  0.00000000  0.42962600  1
  O  O32  1  0.14577600  0.00000000  0.57037400  1
  O  O33  1  0.50000000  0.00000000  0.00000000  1
