# generated using pymatgen
data_AgBiSe2
_symmetry_space_group_name_H-M   'P 1'
_cell_length_a   4.20023031
_cell_length_b   4.20023031
_cell_length_c   19.89379047
_cell_angle_alpha   90.00000000
_cell_angle_beta   90.00000000
_cell_angle_gamma   120.00000000
_symmetry_Int_Tables_number   1
_chemical_formula_structural   AgBiSe2
_chemical_formula_sum   'Ag3 Bi3 Se6'
_cell_volume   303.94456407
_cell_formula_units_Z   3
loop_
 _symmetry_equiv_pos_site_id
 _symmetry_equiv_pos_as_xyz
  1  'x, y, z'
loop_
 _atom_site_type_symbol
 _atom_site_label
 _atom_site_symmetry_multiplicity
 _atom_site_fract_x
 _atom_site_fract_y
 _atom_site_fract_z
 _atom_site_occupancy
  Ag  Ag0  1  0.00000000  0.00000000  0.00000000  1
  Ag  Ag1  1  0.66666667  0.33333333  0.33333333  1
  Ag  Ag2  1  0.33333333  0.66666667  0.66666667  1
  Bi  Bi3  1  0.33333333  0.66666667  0.16666667  1
  Bi  Bi4  1  1.00000000  1.00000000  0.50000000  1
  Bi  Bi5  1  0.66666667  0.33333333  0.83333333  1
  Se  Se6  1  0.66666667  0.33333333  0.07917233  1
  Se  Se7  1  0.00000000  0.00000000  0.25416100  1
  Se  Se8  1  0.33333333  0.66666667  0.41250567  1
  Se  Se9  1  0.66666667  0.33333333  0.58749433  1
  Se  Se10  1  0.00000000  0.00000000  0.74583900  1
  Se  Se11  1  0.33333333  0.66666667  0.92082767  1
