# generated using pymatgen
data_Lu6UO12
_symmetry_space_group_name_H-M   'P 1'
_cell_length_a   9.80621155
_cell_length_b   9.80621155
_cell_length_c   9.19795786
_cell_angle_alpha   90.00000000
_cell_angle_beta   90.00000000
_cell_angle_gamma   120.00000000
_symmetry_Int_Tables_number   1
_chemical_formula_structural   Lu6UO12
_chemical_formula_sum   'Lu18 U3 O36'
_cell_volume   765.99258071
_cell_formula_units_Z   3
loop_
 _symmetry_equiv_pos_site_id
 _symmetry_equiv_pos_as_xyz
  1  'x, y, z'
loop_
 _atom_site_type_symbol
 _atom_site_label
 _atom_site_symmetry_multiplicity
 _atom_site_fract_x
 _atom_site_fract_y
 _atom_site_fract_z
 _atom_site_occupancy
  Lu  Lu0  1  0.03348767  0.24847733  0.63932233  1
  Lu  Lu1  1  0.75152267  0.78501033  0.63932233  1
  Lu  Lu2  1  0.21498967  0.96651233  0.63932233  1
  Lu  Lu3  1  0.96651233  0.75152267  0.36067767  1
  Lu  Lu4  1  0.24847733  0.21498967  0.36067767  1
  Lu  Lu5  1  0.78501033  0.03348767  0.36067767  1
  Lu  Lu6  1  0.70015433  0.58181067  0.97265567  1
  Lu  Lu7  1  0.41818933  0.11834367  0.97265567  1
  Lu  Lu8  1  0.88165633  0.29984567  0.97265567  1
  Lu  Lu9  1  0.63317900  0.08485600  0.69401100  1
  Lu  Lu10  1  0.91514400  0.54832300  0.69401100  1
  Lu  Lu11  1  0.45167700  0.36682100  0.69401100  1
  Lu  Lu12  1  0.36682100  0.91514400  0.30598900  1
  Lu  Lu13  1  0.08485600  0.45167700  0.30598900  1
  Lu  Lu14  1  0.54832300  0.63317900  0.30598900  1
  Lu  Lu15  1  0.29984567  0.41818933  0.02734433  1
  Lu  Lu16  1  0.58181067  0.88165633  0.02734433  1
  Lu  Lu17  1  0.11834367  0.70015433  0.02734433  1
  U  U18  1  0.00000000  0.00000000  0.00000000  1
  U  U19  1  0.66666667  0.33333333  0.33333333  1
  U  U20  1  0.33333333  0.66666667  0.66666667  1
  O  O21  1  0.02731733  0.21746867  0.39563267  1
  O  O22  1  0.78253133  0.80984867  0.39563267  1
  O  O23  1  0.19015133  0.97268267  0.39563267  1
  O  O24  1  0.97268267  0.78253133  0.60436733  1
  O  O25  1  0.21746867  0.19015133  0.60436733  1
  O  O26  1  0.80984867  0.02731733  0.60436733  1
  O  O27  1  0.50035000  0.63793300  0.54966400  1
  O  O28  1  0.86241700  0.50035000  0.45033600  1
  O  O29  1  0.63793300  0.13758300  0.45033600  1
  O  O30  1  0.49965000  0.36206700  0.45033600  1
  O  O31  1  0.13758300  0.49965000  0.54966400  1
  O  O32  1  0.36206700  0.86241700  0.54966400  1
  O  O33  1  0.69398400  0.55080200  0.72896600  1
  O  O34  1  0.44919800  0.14318200  0.72896600  1
  O  O35  1  0.85681800  0.30601600  0.72896600  1
  O  O36  1  0.63934933  0.11586467  0.93770067  1
  O  O37  1  0.88413533  0.52348467  0.93770067  1
  O  O38  1  0.47651533  0.36065067  0.93770067  1
  O  O39  1  0.16701667  0.97126633  0.88299733  1
  O  O40  1  0.52908367  0.83368333  0.78366933  1
  O  O41  1  0.30459967  0.47091633  0.78366933  1
  O  O42  1  0.16631667  0.69540033  0.78366933  1
  O  O43  1  0.80424967  0.83298333  0.88299733  1
  O  O44  1  0.02873367  0.19575033  0.88299733  1
  O  O45  1  0.36065067  0.88413533  0.06229933  1
  O  O46  1  0.11586467  0.47651533  0.06229933  1
  O  O47  1  0.52348467  0.63934933  0.06229933  1
  O  O48  1  0.30601600  0.44919800  0.27103400  1
  O  O49  1  0.55080200  0.85681800  0.27103400  1
  O  O50  1  0.14318200  0.69398400  0.27103400  1
  O  O51  1  0.83368333  0.30459967  0.21633067  1
  O  O52  1  0.19575033  0.16701667  0.11700267  1
  O  O53  1  0.97126633  0.80424967  0.11700267  1
  O  O54  1  0.83298333  0.02873367  0.11700267  1
  O  O55  1  0.47091633  0.16631667  0.21633067  1
  O  O56  1  0.69540033  0.52908367  0.21633067  1
