# generated using pymatgen
data_LiAg3O2
_symmetry_space_group_name_H-M   'P 1'
_cell_length_a   5.76851200
_cell_length_b   6.07321200
_cell_length_c   10.07763800
_cell_angle_alpha   90.00000000
_cell_angle_beta   90.00000000
_cell_angle_gamma   90.00000000
_symmetry_Int_Tables_number   1
_chemical_formula_structural   LiAg3O2
_chemical_formula_sum   'Li4 Ag12 O8'
_cell_volume   353.05388583
_cell_formula_units_Z   4
loop_
 _symmetry_equiv_pos_site_id
 _symmetry_equiv_pos_as_xyz
  1  'x, y, z'
loop_
 _atom_site_type_symbol
 _atom_site_label
 _atom_site_symmetry_multiplicity
 _atom_site_fract_x
 _atom_site_fract_y
 _atom_site_fract_z
 _atom_site_occupancy
  Li  Li0  1  0.25000000  0.50000000  0.00000000  1
  Li  Li1  1  0.75000000  0.50000000  0.00000000  1
  Li  Li2  1  0.75000000  0.00000000  0.50000000  1
  Li  Li3  1  0.25000000  0.00000000  0.50000000  1
  Ag  Ag4  1  0.25000000  0.25000000  0.25000000  1
  Ag  Ag5  1  0.75000000  0.75000000  0.25000000  1
  Ag  Ag6  1  0.75000000  0.25000000  0.25000000  1
  Ag  Ag7  1  0.50000000  0.00000000  0.00000000  1
  Ag  Ag8  1  0.00000000  0.00000000  0.00000000  1
  Ag  Ag9  1  0.25000000  0.75000000  0.25000000  1
  Ag  Ag10  1  0.75000000  0.75000000  0.75000000  1
  Ag  Ag11  1  0.25000000  0.25000000  0.75000000  1
  Ag  Ag12  1  0.25000000  0.75000000  0.75000000  1
  Ag  Ag13  1  0.00000000  0.50000000  0.50000000  1
  Ag  Ag14  1  0.50000000  0.50000000  0.50000000  1
  Ag  Ag15  1  0.75000000  0.25000000  0.75000000  1
  O  O16  1  0.00000000  0.31815600  0.09623400  1
  O  O17  1  0.50000000  0.68184400  0.09623400  1
  O  O18  1  0.50000000  0.18184400  0.40376600  1
  O  O19  1  0.00000000  0.81815600  0.40376600  1
  O  O20  1  0.50000000  0.81815600  0.59623400  1
  O  O21  1  0.00000000  0.18184400  0.59623400  1
  O  O22  1  0.00000000  0.68184400  0.90376600  1
  O  O23  1  0.50000000  0.31815600  0.90376600  1
