# generated using pymatgen
data_FeCl3
_symmetry_space_group_name_H-M   'P 1'
_cell_length_a   5.93188212
_cell_length_b   5.93188212
_cell_length_c   19.23313099
_cell_angle_alpha   90.00000000
_cell_angle_beta   90.00000000
_cell_angle_gamma   120.00000000
_symmetry_Int_Tables_number   1
_chemical_formula_structural   FeCl3
_chemical_formula_sum   'Fe6 Cl18'
_cell_volume   586.09180036
_cell_formula_units_Z   6
loop_
 _symmetry_equiv_pos_site_id
 _symmetry_equiv_pos_as_xyz
  1  'x, y, z'
loop_
 _atom_site_type_symbol
 _atom_site_label
 _atom_site_symmetry_multiplicity
 _atom_site_fract_x
 _atom_site_fract_y
 _atom_site_fract_z
 _atom_site_occupancy
  Fe  Fe0  1  0.66666667  0.33333333  0.00001233  1
  Fe  Fe1  1  0.00000000  0.00000000  0.33332100  1
  Fe  Fe2  1  0.33333333  0.66666667  0.33334567  1
  Fe  Fe3  1  0.66666667  0.33333333  0.66665433  1
  Fe  Fe4  1  0.00000000  0.00000000  0.66667900  1
  Fe  Fe5  1  0.33333333  0.66666667  0.99998767  1
  Cl  Cl6  1  0.66673133  0.95979467  0.26660267  1
  Cl  Cl7  1  0.04020533  0.70693667  0.26660267  1
  Cl  Cl8  1  0.37360333  0.00006467  0.06673067  1
  Cl  Cl9  1  0.62646133  0.62639667  0.06673067  1
  Cl  Cl10  1  0.99993533  0.37353867  0.06673067  1
  Cl  Cl11  1  0.29306333  0.33326867  0.26660267  1
  Cl  Cl12  1  0.33339800  0.29312800  0.59993600  1
  Cl  Cl13  1  0.70687200  0.04027000  0.59993600  1
  Cl  Cl14  1  0.04027000  0.33339800  0.40006400  1
  Cl  Cl15  1  0.29312800  0.95973000  0.40006400  1
  Cl  Cl16  1  0.66660200  0.70687200  0.40006400  1
  Cl  Cl17  1  0.95973000  0.66660200  0.59993600  1
  Cl  Cl18  1  0.00006467  0.62646133  0.93326933  1
  Cl  Cl19  1  0.37353867  0.37360333  0.93326933  1
  Cl  Cl20  1  0.70693667  0.66673133  0.73339733  1
  Cl  Cl21  1  0.95979467  0.29306333  0.73339733  1
  Cl  Cl22  1  0.33326867  0.04020533  0.73339733  1
  Cl  Cl23  1  0.62639667  0.99993533  0.93326933  1
