# generated using pymatgen
data_Rb2MnCl4
_symmetry_space_group_name_H-M   'P 1'
_cell_length_a   5.11032200
_cell_length_b   5.11032200
_cell_length_c   16.29309200
_cell_angle_alpha   90.00000000
_cell_angle_beta   90.00000000
_cell_angle_gamma   90.00000000
_symmetry_Int_Tables_number   1
_chemical_formula_structural   Rb2MnCl4
_chemical_formula_sum   'Rb4 Mn2 Cl8'
_cell_volume   425.50046726
_cell_formula_units_Z   2
loop_
 _symmetry_equiv_pos_site_id
 _symmetry_equiv_pos_as_xyz
  1  'x, y, z'
loop_
 _atom_site_type_symbol
 _atom_site_label
 _atom_site_symmetry_multiplicity
 _atom_site_fract_x
 _atom_site_fract_y
 _atom_site_fract_z
 _atom_site_occupancy
  Rb  Rb0  1  0.00000000  0.00000000  0.35791200  1
  Rb  Rb1  1  0.50000000  0.50000000  0.14208800  1
  Rb  Rb2  1  0.50000000  0.50000000  0.85791200  1
  Rb  Rb3  1  0.00000000  0.00000000  0.64208800  1
  Mn  Mn4  1  0.00000000  0.00000000  0.00000000  1
  Mn  Mn5  1  0.50000000  0.50000000  0.50000000  1
  Cl  Cl6  1  0.50000000  0.50000000  0.34447800  1
  Cl  Cl7  1  0.00000000  0.00000000  0.15552200  1
  Cl  Cl8  1  0.00000000  0.50000000  0.00000000  1
  Cl  Cl9  1  0.50000000  0.00000000  0.00000000  1
  Cl  Cl10  1  0.00000000  0.00000000  0.84447800  1
  Cl  Cl11  1  0.50000000  0.50000000  0.65552200  1
  Cl  Cl12  1  0.50000000  0.00000000  0.50000000  1
  Cl  Cl13  1  0.00000000  0.50000000  0.50000000  1
