# generated using pymatgen
data_BF3
_symmetry_space_group_name_H-M   'P 1'
_cell_length_a   4.81414500
_cell_length_b   7.51828956
_cell_length_c   14.31127121
_cell_angle_alpha   92.89748489
_cell_angle_beta   89.16342211
_cell_angle_gamma   107.28023447
_symmetry_Int_Tables_number   1
_chemical_formula_structural   BF3
_chemical_formula_sum   'B8 F24'
_cell_volume   493.97166033
_cell_formula_units_Z   8
loop_
 _symmetry_equiv_pos_site_id
 _symmetry_equiv_pos_as_xyz
  1  'x, y, z'
loop_
 _atom_site_type_symbol
 _atom_site_label
 _atom_site_symmetry_multiplicity
 _atom_site_fract_x
 _atom_site_fract_y
 _atom_site_fract_z
 _atom_site_occupancy
  B  B0  1  0.86452500  0.23878500  0.36408700  1
  B  B1  1  0.13547500  0.76121500  0.63591300  1
  B  B2  1  0.47990300  0.72571400  0.38348200  1
  B  B3  1  0.52009700  0.27428600  0.61651800  1
  B  B4  1  0.86027600  0.73440000  0.13497900  1
  B  B5  1  0.13972400  0.26560000  0.86502100  1
  B  B6  1  0.52547700  0.77880500  0.88381400  1
  B  B7  1  0.47452300  0.22119500  0.11618600  1
  F  F8  1  0.77071700  0.29557200  0.44479600  1
  F  F9  1  0.22928300  0.70442800  0.55520400  1
  F  F10  1  0.07357400  0.15740100  0.36267700  1
  F  F11  1  0.92642600  0.84259900  0.63732300  1
  F  F12  1  0.74652900  0.26545100  0.28437200  1
  F  F13  1  0.25347100  0.73454900  0.71562800  1
  F  F14  1  0.71249600  0.69984900  0.42187400  1
  F  F15  1  0.28750400  0.30015100  0.57812600  1
  F  F16  1  0.26683800  0.58046200  0.34984600  1
  F  F17  1  0.73316200  0.41953800  0.65015400  1
  F  F18  1  0.45744100  0.89715500  0.37764900  1
  F  F19  1  0.54255900  0.10284500  0.62235100  1
  F  F20  1  0.07011300  0.65384400  0.13554200  1
  F  F21  1  0.92988700  0.34615600  0.86445800  1
  F  F22  1  0.75027500  0.78119200  0.21525200  1
  F  F23  1  0.24972500  0.21880800  0.78474800  1
  F  F24  1  0.75786100  0.77065800  0.05460300  1
  F  F25  1  0.24213900  0.22934200  0.94539700  1
  F  F26  1  0.53925600  0.60588300  0.86666600  1
  F  F27  1  0.46074400  0.39411700  0.13333400  1
  F  F28  1  0.29602500  0.80815400  0.92639000  1
  F  F29  1  0.70397500  0.19184600  0.07361000  1
  F  F30  1  0.74445600  0.92201500  0.85727400  1
  F  F31  1  0.25554400  0.07798500  0.14272600  1
