# generated using pymatgen
data_Ca2AsI
_symmetry_space_group_name_H-M   'P 1'
_cell_length_a   4.40447837
_cell_length_b   4.40447837
_cell_length_c   22.53800022
_cell_angle_alpha   90.00000000
_cell_angle_beta   90.00000000
_cell_angle_gamma   120.00000000
_symmetry_Int_Tables_number   1
_chemical_formula_structural   Ca2AsI
_chemical_formula_sum   'Ca6 As3 I3'
_cell_volume   378.64739554
_cell_formula_units_Z   3
loop_
 _symmetry_equiv_pos_site_id
 _symmetry_equiv_pos_as_xyz
  1  'x, y, z'
loop_
 _atom_site_type_symbol
 _atom_site_label
 _atom_site_symmetry_multiplicity
 _atom_site_fract_x
 _atom_site_fract_y
 _atom_site_fract_z
 _atom_site_occupancy
  Ca  Ca0  1  0.66666667  0.33333333  0.10228033  1
  Ca  Ca1  1  0.00000000  0.00000000  0.23105300  1
  Ca  Ca2  1  0.33333333  0.66666667  0.43561367  1
  Ca  Ca3  1  0.66666667  0.33333333  0.56438633  1
  Ca  Ca4  1  0.00000000  0.00000000  0.76894700  1
  Ca  Ca5  1  0.33333333  0.66666667  0.89771967  1
  As  As6  1  0.33333333  0.66666667  0.16666667  1
  As  As7  1  1.00000000  1.00000000  0.50000000  1
  As  As8  1  0.66666667  0.33333333  0.83333333  1
  I  I9  1  0.00000000  0.00000000  0.00000000  1
  I  I10  1  0.66666667  0.33333333  0.33333333  1
  I  I11  1  0.33333333  0.66666667  0.66666667  1
