# generated using pymatgen
data_KIO4
_symmetry_space_group_name_H-M   'P 1'
_cell_length_a   5.85716600
_cell_length_b   5.85716600
_cell_length_c   12.90969400
_cell_angle_alpha   90.00000000
_cell_angle_beta   90.00000000
_cell_angle_gamma   90.00000000
_symmetry_Int_Tables_number   1
_chemical_formula_structural   KIO4
_chemical_formula_sum   'K4 I4 O16'
_cell_volume   442.88504299
_cell_formula_units_Z   4
loop_
 _symmetry_equiv_pos_site_id
 _symmetry_equiv_pos_as_xyz
  1  'x, y, z'
loop_
 _atom_site_type_symbol
 _atom_site_label
 _atom_site_symmetry_multiplicity
 _atom_site_fract_x
 _atom_site_fract_y
 _atom_site_fract_z
 _atom_site_occupancy
  K  K0  1  0.50000000  0.00000000  0.25000000  1
  K  K1  1  0.50000000  0.50000000  0.00000000  1
  K  K2  1  0.00000000  0.50000000  0.75000000  1
  K  K3  1  0.00000000  0.00000000  0.50000000  1
  I  I4  1  0.00000000  0.00000000  0.00000000  1
  I  I5  1  0.00000000  0.50000000  0.25000000  1
  I  I6  1  0.50000000  0.50000000  0.50000000  1
  I  I7  1  0.50000000  0.00000000  0.75000000  1
  O  O8  1  0.78039750  0.87140850  0.07785050  1
  O  O9  1  0.87140850  0.71960250  0.32785050  1
  O  O10  1  0.12859150  0.28039750  0.32785050  1
  O  O11  1  0.21960250  0.12859150  0.07785050  1
  O  O12  1  0.78039750  0.37140850  0.17214950  1
  O  O13  1  0.37140850  0.71960250  0.42214950  1
  O  O14  1  0.62859150  0.28039750  0.42214950  1
  O  O15  1  0.21960250  0.62859150  0.17214950  1
  O  O16  1  0.28039750  0.37140850  0.57785050  1
  O  O17  1  0.37140850  0.21960250  0.82785050  1
  O  O18  1  0.62859150  0.78039750  0.82785050  1
  O  O19  1  0.71960250  0.62859150  0.57785050  1
  O  O20  1  0.28039750  0.87140850  0.67214950  1
  O  O21  1  0.87140850  0.21960250  0.92214950  1
  O  O22  1  0.12859150  0.78039750  0.92214950  1
  O  O23  1  0.71960250  0.12859150  0.67214950  1
