# generated using pymatgen
data_PaBr4
_symmetry_space_group_name_H-M   'P 1'
_cell_length_a   8.92409000
_cell_length_b   8.92409000
_cell_length_c   8.19586000
_cell_angle_alpha   90.00000000
_cell_angle_beta   90.00000000
_cell_angle_gamma   90.00000000
_symmetry_Int_Tables_number   1
_chemical_formula_structural   PaBr4
_chemical_formula_sum   'Pa4 Br16'
_cell_volume   652.71322805
_cell_formula_units_Z   4
loop_
 _symmetry_equiv_pos_site_id
 _symmetry_equiv_pos_as_xyz
  1  'x, y, z'
loop_
 _atom_site_type_symbol
 _atom_site_label
 _atom_site_symmetry_multiplicity
 _atom_site_fract_x
 _atom_site_fract_y
 _atom_site_fract_z
 _atom_site_occupancy
  Pa  Pa0  1  0.50000000  0.00000000  0.25000000  1
  Pa  Pa1  1  0.50000000  0.50000000  0.50000000  1
  Pa  Pa2  1  0.00000000  0.50000000  0.75000000  1
  Pa  Pa3  1  0.00000000  0.00000000  0.00000000  1
  Br  Br4  1  0.81123200  0.00000000  0.32157700  1
  Br  Br5  1  0.50000000  0.18876800  0.57157700  1
  Br  Br6  1  0.00000000  0.31123200  0.07157700  1
  Br  Br7  1  0.18876800  0.00000000  0.32157700  1
  Br  Br8  1  0.00000000  0.18876800  0.67842300  1
  Br  Br9  1  0.81123200  0.50000000  0.42842300  1
  Br  Br10  1  0.68876800  0.00000000  0.92842300  1
  Br  Br11  1  0.00000000  0.81123200  0.67842300  1
  Br  Br12  1  0.31123200  0.50000000  0.82157700  1
  Br  Br13  1  0.00000000  0.68876800  0.07157700  1
  Br  Br14  1  0.50000000  0.81123200  0.57157700  1
  Br  Br15  1  0.68876800  0.50000000  0.82157700  1
  Br  Br16  1  0.50000000  0.68876800  0.17842300  1
  Br  Br17  1  0.31123200  0.00000000  0.92842300  1
  Br  Br18  1  0.18876800  0.50000000  0.42842300  1
  Br  Br19  1  0.50000000  0.31123200  0.17842300  1
