# generated using pymatgen
data_Ca3Al2(HO)12
_symmetry_space_group_name_H-M   'P 1'
_cell_length_a   12.71405000
_cell_length_b   12.71405000
_cell_length_c   12.71405000
_cell_angle_alpha   90.00000000
_cell_angle_beta   90.00000000
_cell_angle_gamma   90.00000000
_symmetry_Int_Tables_number   1
_chemical_formula_structural   Ca3Al2(HO)12
_chemical_formula_sum   'Ca24 Al16 H96 O96'
_cell_volume   2055.18889731
_cell_formula_units_Z   8
loop_
 _symmetry_equiv_pos_site_id
 _symmetry_equiv_pos_as_xyz
  1  'x, y, z'
loop_
 _atom_site_type_symbol
 _atom_site_label
 _atom_site_symmetry_multiplicity
 _atom_site_fract_x
 _atom_site_fract_y
 _atom_site_fract_z
 _atom_site_occupancy
  Ca  Ca0  1  0.12500000  0.00000000  0.25000000  1
  Ca  Ca1  1  0.87500000  0.50000000  0.25000000  1
  Ca  Ca2  1  0.00000000  0.25000000  0.12500000  1
  Ca  Ca3  1  0.25000000  0.87500000  0.50000000  1
  Ca  Ca4  1  0.50000000  0.25000000  0.87500000  1
  Ca  Ca5  1  0.25000000  0.12500000  0.00000000  1
  Ca  Ca6  1  0.25000000  0.62500000  0.00000000  1
  Ca  Ca7  1  0.37500000  0.50000000  0.25000000  1
  Ca  Ca8  1  0.62500000  0.00000000  0.25000000  1
  Ca  Ca9  1  0.50000000  0.25000000  0.37500000  1
  Ca  Ca10  1  0.00000000  0.25000000  0.62500000  1
  Ca  Ca11  1  0.25000000  0.37500000  0.50000000  1
  Ca  Ca12  1  0.62500000  0.50000000  0.75000000  1
  Ca  Ca13  1  0.37500000  0.00000000  0.75000000  1
  Ca  Ca14  1  0.50000000  0.75000000  0.62500000  1
  Ca  Ca15  1  0.75000000  0.37500000  0.00000000  1
  Ca  Ca16  1  0.00000000  0.75000000  0.37500000  1
  Ca  Ca17  1  0.75000000  0.62500000  0.50000000  1
  Ca  Ca18  1  0.75000000  0.12500000  0.50000000  1
  Ca  Ca19  1  0.87500000  0.00000000  0.75000000  1
  Ca  Ca20  1  0.12500000  0.50000000  0.75000000  1
  Ca  Ca21  1  0.00000000  0.75000000  0.87500000  1
  Ca  Ca22  1  0.50000000  0.75000000  0.12500000  1
  Ca  Ca23  1  0.75000000  0.87500000  0.00000000  1
  Al  Al24  1  0.75000000  0.25000000  0.25000000  1
  Al  Al25  1  0.00000000  0.00000000  0.50000000  1
  Al  Al26  1  0.50000000  0.00000000  0.00000000  1
  Al  Al27  1  0.00000000  0.00000000  0.00000000  1
  Al  Al28  1  0.25000000  0.25000000  0.75000000  1
  Al  Al29  1  0.25000000  0.25000000  0.25000000  1
  Al  Al30  1  0.25000000  0.75000000  0.25000000  1
  Al  Al31  1  0.00000000  0.50000000  0.00000000  1
  Al  Al32  1  0.25000000  0.75000000  0.75000000  1
  Al  Al33  1  0.50000000  0.50000000  0.00000000  1
  Al  Al34  1  0.00000000  0.50000000  0.50000000  1
  Al  Al35  1  0.50000000  0.50000000  0.50000000  1
  Al  Al36  1  0.75000000  0.75000000  0.25000000  1
  Al  Al37  1  0.75000000  0.75000000  0.75000000  1
  Al  Al38  1  0.75000000  0.25000000  0.75000000  1
  Al  Al39  1  0.50000000  0.00000000  0.50000000  1
  H  H40  1  0.19997450  0.14968850  0.58961050  1
  H  H41  1  0.58961050  0.19997450  0.14968850  1
  H  H42  1  0.35031150  0.41038950  0.69997450  1
  H  H43  1  0.30002550  0.14968850  0.41038950  1
  H  H44  1  0.83961050  0.10031150  0.94997450  1
  H  H45  1  0.58961050  0.80002550  0.35031150  1
  H  H46  1  0.16038950  0.39968850  0.94997450  1
  H  H47  1  0.14968850  0.58961050  0.19997450  1
  H  H48  1  0.33961050  0.39968850  0.05002550  1
  H  H49  1  0.94997450  0.16038950  0.39968850  1
  H  H50  1  0.10031150  0.94997450  0.83961050  1
  H  H51  1  0.10031150  0.05002550  0.66038950  1
  H  H52  1  0.05002550  0.66038950  0.10031150  1
  H  H53  1  0.39968850  0.94997450  0.16038950  1
  H  H54  1  0.05002550  0.33961050  0.39968850  1
  H  H55  1  0.39968850  0.05002550  0.33961050  1
  H  H56  1  0.94997450  0.83961050  0.10031150  1
  H  H57  1  0.69997450  0.35031150  0.41038950  1
  H  H58  1  0.80002550  0.35031150  0.58961050  1
  H  H59  1  0.41038950  0.30002550  0.14968850  1
  H  H60  1  0.35031150  0.58961050  0.80002550  1
  H  H61  1  0.66038950  0.10031150  0.05002550  1
  H  H62  1  0.30002550  0.35031150  0.91038950  1
  H  H63  1  0.91038950  0.30002550  0.35031150  1
  H  H64  1  0.14968850  0.08961050  0.80002550  1
  H  H65  1  0.19997450  0.35031150  0.08961050  1
  H  H66  1  0.66038950  0.39968850  0.55002550  1
  H  H67  1  0.91038950  0.69997450  0.14968850  1
  H  H68  1  0.33961050  0.10031150  0.55002550  1
  H  H69  1  0.35031150  0.91038950  0.30002550  1
  H  H70  1  0.16038950  0.10031150  0.44997450  1
  H  H71  1  0.55002550  0.33961050  0.10031150  1
  H  H72  1  0.39968850  0.55002550  0.66038950  1
  H  H73  1  0.39968850  0.44997450  0.83961050  1
  H  H74  1  0.44997450  0.83961050  0.39968850  1
  H  H75  1  0.10031150  0.55002550  0.33961050  1
  H  H76  1  0.44997450  0.16038950  0.10031150  1
  H  H77  1  0.10031150  0.44997450  0.16038950  1
  H  H78  1  0.55002550  0.66038950  0.39968850  1
  H  H79  1  0.80002550  0.14968850  0.08961050  1
  H  H80  1  0.69997450  0.14968850  0.91038950  1
  H  H81  1  0.08961050  0.19997450  0.35031150  1
  H  H82  1  0.08961050  0.80002550  0.14968850  1
  H  H83  1  0.35031150  0.08961050  0.19997450  1
  H  H84  1  0.14968850  0.91038950  0.69997450  1
  H  H85  1  0.83961050  0.39968850  0.44997450  1
  H  H86  1  0.41038950  0.69997450  0.35031150  1
  H  H87  1  0.14968850  0.41038950  0.30002550  1
  H  H88  1  0.69997450  0.64968850  0.08961050  1
  H  H89  1  0.08961050  0.69997450  0.64968850  1
  H  H90  1  0.85031150  0.91038950  0.19997450  1
  H  H91  1  0.80002550  0.64968850  0.91038950  1
  H  H92  1  0.33961050  0.60031150  0.44997450  1
  H  H93  1  0.08961050  0.30002550  0.85031150  1
  H  H94  1  0.66038950  0.89968850  0.44997450  1
  H  H95  1  0.64968850  0.08961050  0.69997450  1
  H  H96  1  0.83961050  0.89968850  0.55002550  1
  H  H97  1  0.44997450  0.66038950  0.89968850  1
  H  H98  1  0.60031150  0.44997450  0.33961050  1
  H  H99  1  0.60031150  0.55002550  0.16038950  1
  H  H100  1  0.55002550  0.16038950  0.60031150  1
  H  H101  1  0.89968850  0.44997450  0.66038950  1
  H  H102  1  0.55002550  0.83961050  0.89968850  1
  H  H103  1  0.89968850  0.55002550  0.83961050  1
  H  H104  1  0.44997450  0.33961050  0.60031150  1
  H  H105  1  0.19997450  0.85031150  0.91038950  1
  H  H106  1  0.30002550  0.85031150  0.08961050  1
  H  H107  1  0.91038950  0.80002550  0.64968850  1
  H  H108  1  0.85031150  0.08961050  0.30002550  1
  H  H109  1  0.16038950  0.60031150  0.55002550  1
  H  H110  1  0.80002550  0.85031150  0.41038950  1
  H  H111  1  0.41038950  0.80002550  0.85031150  1
  H  H112  1  0.64968850  0.58961050  0.30002550  1
  H  H113  1  0.69997450  0.85031150  0.58961050  1
  H  H114  1  0.16038950  0.89968850  0.05002550  1
  H  H115  1  0.41038950  0.19997450  0.64968850  1
  H  H116  1  0.83961050  0.60031150  0.05002550  1
  H  H117  1  0.85031150  0.41038950  0.80002550  1
  H  H118  1  0.66038950  0.60031150  0.94997450  1
  H  H119  1  0.05002550  0.83961050  0.60031150  1
  H  H120  1  0.89968850  0.05002550  0.16038950  1
  H  H121  1  0.89968850  0.94997450  0.33961050  1
  H  H122  1  0.94997450  0.33961050  0.89968850  1
  H  H123  1  0.60031150  0.05002550  0.83961050  1
  H  H124  1  0.94997450  0.66038950  0.60031150  1
  H  H125  1  0.60031150  0.94997450  0.66038950  1
  H  H126  1  0.05002550  0.16038950  0.89968850  1
  H  H127  1  0.30002550  0.64968850  0.58961050  1
  H  H128  1  0.19997450  0.64968850  0.41038950  1
  H  H129  1  0.58961050  0.69997450  0.85031150  1
  H  H130  1  0.58961050  0.30002550  0.64968850  1
  H  H131  1  0.85031150  0.58961050  0.69997450  1
  H  H132  1  0.64968850  0.41038950  0.19997450  1
  H  H133  1  0.33961050  0.89968850  0.94997450  1
  H  H134  1  0.91038950  0.19997450  0.85031150  1
  H  H135  1  0.64968850  0.91038950  0.80002550  1
  O  O136  1  0.44811550  0.13990050  0.02681250  1
  O  O137  1  0.13990050  0.97318750  0.05188450  1
  O  O138  1  0.86009950  0.47318750  0.44811550  1
  O  O139  1  0.61009950  0.30188450  0.72318750  1
  O  O140  1  0.27681250  0.88990050  0.30188450  1
  O  O141  1  0.88990050  0.30188450  0.27681250  1
  O  O142  1  0.27681250  0.11009950  0.19811550  1
  O  O143  1  0.88990050  0.69811550  0.22318750  1
  O  O144  1  0.22318750  0.88990050  0.69811550  1
  O  O145  1  0.72318750  0.61009950  0.30188450  1
  O  O146  1  0.02681250  0.44811550  0.13990050  1
  O  O147  1  0.30188450  0.27681250  0.88990050  1
  O  O148  1  0.02681250  0.55188450  0.36009950  1
  O  O149  1  0.19811550  0.27681250  0.11009950  1
  O  O150  1  0.05188450  0.13990050  0.97318750  1
  O  O151  1  0.30188450  0.72318750  0.61009950  1
  O  O152  1  0.13990050  0.02681250  0.44811550  1
  O  O153  1  0.47318750  0.44811550  0.86009950  1
  O  O154  1  0.55188450  0.36009950  0.02681250  1
  O  O155  1  0.36009950  0.02681250  0.55188450  1
  O  O156  1  0.97318750  0.05188450  0.13990050  1
  O  O157  1  0.69811550  0.22318750  0.88990050  1
  O  O158  1  0.13990050  0.47318750  0.94811550  1
  O  O159  1  0.94811550  0.13990050  0.47318750  1
  O  O160  1  0.02681250  0.05188450  0.63990050  1
  O  O161  1  0.36009950  0.47318750  0.05188450  1
  O  O162  1  0.19811550  0.77681250  0.88990050  1
  O  O163  1  0.44811550  0.36009950  0.52681250  1
  O  O164  1  0.30188450  0.22318750  0.38990050  1
  O  O165  1  0.47318750  0.94811550  0.13990050  1
  O  O166  1  0.19811550  0.22318750  0.61009950  1
  O  O167  1  0.38990050  0.30188450  0.22318750  1
  O  O168  1  0.77681250  0.88990050  0.19811550  1
  O  O169  1  0.27681250  0.61009950  0.80188450  1
  O  O170  1  0.61009950  0.80188450  0.27681250  1
  O  O171  1  0.22318750  0.38990050  0.30188450  1
  O  O172  1  0.61009950  0.19811550  0.22318750  1
  O  O173  1  0.22318750  0.61009950  0.19811550  1
  O  O174  1  0.88990050  0.19811550  0.77681250  1
  O  O175  1  0.63990050  0.02681250  0.05188450  1
  O  O176  1  0.36009950  0.52681250  0.44811550  1
  O  O177  1  0.05188450  0.36009950  0.47318750  1
  O  O178  1  0.05188450  0.63990050  0.02681250  1
  O  O179  1  0.47318750  0.05188450  0.36009950  1
  O  O180  1  0.52681250  0.44811550  0.36009950  1
  O  O181  1  0.80188450  0.27681250  0.61009950  1
  O  O182  1  0.44811550  0.86009950  0.47318750  1
  O  O183  1  0.11009950  0.19811550  0.27681250  1
  O  O184  1  0.94811550  0.63990050  0.52681250  1
  O  O185  1  0.63990050  0.47318750  0.55188450  1
  O  O186  1  0.36009950  0.97318750  0.94811550  1
  O  O187  1  0.11009950  0.80188450  0.22318750  1
  O  O188  1  0.77681250  0.38990050  0.80188450  1
  O  O189  1  0.38990050  0.80188450  0.77681250  1
  O  O190  1  0.77681250  0.61009950  0.69811550  1
  O  O191  1  0.38990050  0.19811550  0.72318750  1
  O  O192  1  0.72318750  0.38990050  0.19811550  1
  O  O193  1  0.22318750  0.11009950  0.80188450  1
  O  O194  1  0.52681250  0.94811550  0.63990050  1
  O  O195  1  0.80188450  0.77681250  0.38990050  1
  O  O196  1  0.52681250  0.05188450  0.86009950  1
  O  O197  1  0.69811550  0.77681250  0.61009950  1
  O  O198  1  0.55188450  0.63990050  0.47318750  1
  O  O199  1  0.80188450  0.22318750  0.11009950  1
  O  O200  1  0.63990050  0.52681250  0.94811550  1
  O  O201  1  0.97318750  0.94811550  0.36009950  1
  O  O202  1  0.05188450  0.86009950  0.52681250  1
  O  O203  1  0.86009950  0.52681250  0.05188450  1
  O  O204  1  0.47318750  0.55188450  0.63990050  1
  O  O205  1  0.19811550  0.72318750  0.38990050  1
  O  O206  1  0.63990050  0.97318750  0.44811550  1
  O  O207  1  0.44811550  0.63990050  0.97318750  1
  O  O208  1  0.52681250  0.55188450  0.13990050  1
  O  O209  1  0.86009950  0.97318750  0.55188450  1
  O  O210  1  0.69811550  0.27681250  0.38990050  1
  O  O211  1  0.94811550  0.86009950  0.02681250  1
  O  O212  1  0.80188450  0.72318750  0.88990050  1
  O  O213  1  0.97318750  0.44811550  0.63990050  1
  O  O214  1  0.69811550  0.72318750  0.11009950  1
  O  O215  1  0.88990050  0.80188450  0.72318750  1
  O  O216  1  0.27681250  0.38990050  0.69811550  1
  O  O217  1  0.77681250  0.11009950  0.30188450  1
  O  O218  1  0.11009950  0.30188450  0.77681250  1
  O  O219  1  0.72318750  0.88990050  0.80188450  1
  O  O220  1  0.11009950  0.69811550  0.72318750  1
  O  O221  1  0.72318750  0.11009950  0.69811550  1
  O  O222  1  0.38990050  0.69811550  0.27681250  1
  O  O223  1  0.13990050  0.52681250  0.55188450  1
  O  O224  1  0.86009950  0.02681250  0.94811550  1
  O  O225  1  0.55188450  0.86009950  0.97318750  1
  O  O226  1  0.55188450  0.13990050  0.52681250  1
  O  O227  1  0.97318750  0.55188450  0.86009950  1
  O  O228  1  0.02681250  0.94811550  0.86009950  1
  O  O229  1  0.30188450  0.77681250  0.11009950  1
  O  O230  1  0.94811550  0.36009950  0.97318750  1
  O  O231  1  0.61009950  0.69811550  0.77681250  1
