# generated using pymatgen
data_K4Sb2O3
_symmetry_space_group_name_H-M   'P 1'
_cell_length_a   6.36970379
_cell_length_b   6.36970379
_cell_length_c   14.58473400
_cell_angle_alpha   90.00000000
_cell_angle_beta   90.00000000
_cell_angle_gamma   120.00000000
_symmetry_Int_Tables_number   1
_chemical_formula_structural   K4Sb2O3
_chemical_formula_sum   'K8 Sb4 O6'
_cell_volume   512.46902252
_cell_formula_units_Z   2
loop_
 _symmetry_equiv_pos_site_id
 _symmetry_equiv_pos_as_xyz
  1  'x, y, z'
loop_
 _atom_site_type_symbol
 _atom_site_label
 _atom_site_symmetry_multiplicity
 _atom_site_fract_x
 _atom_site_fract_y
 _atom_site_fract_z
 _atom_site_occupancy
  K  K0  1  0.00000000  0.00000000  0.76687600  1
  K  K1  1  0.66666667  0.33333333  0.89354500  1
  K  K2  1  0.66666667  0.33333333  0.55514100  1
  K  K3  1  0.33333333  0.66666667  0.05514100  1
  K  K4  1  0.00000000  0.00000000  0.00282200  1
  K  K5  1  0.00000000  0.00000000  0.50282200  1
  K  K6  1  0.33333333  0.66666667  0.39354500  1
  K  K7  1  0.00000000  0.00000000  0.26687600  1
  Sb  Sb8  1  0.66666667  0.33333333  0.14008000  1
  Sb  Sb9  1  0.33333333  0.66666667  0.64008000  1
  Sb  Sb10  1  0.33333333  0.66666667  0.82967900  1
  Sb  Sb11  1  0.66666667  0.33333333  0.32967900  1
  O  O12  1  0.64399500  0.82199750  0.89008500  1
  O  O13  1  0.82199750  0.64399500  0.39008500  1
  O  O14  1  0.82199750  0.17800250  0.39008500  1
  O  O15  1  0.17800250  0.82199750  0.89008500  1
  O  O16  1  0.17800250  0.35600500  0.89008500  1
  O  O17  1  0.35600500  0.17800250  0.39008500  1
