# generated using pymatgen
data_LiGdCl4
_symmetry_space_group_name_H-M   'P 1'
_cell_length_a   6.52028200
_cell_length_b   6.52028200
_cell_length_c   13.27370200
_cell_angle_alpha   90.00000000
_cell_angle_beta   90.00000000
_cell_angle_gamma   90.00000000
_symmetry_Int_Tables_number   1
_chemical_formula_structural   LiGdCl4
_chemical_formula_sum   'Li4 Gd4 Cl16'
_cell_volume   564.31919368
_cell_formula_units_Z   4
loop_
 _symmetry_equiv_pos_site_id
 _symmetry_equiv_pos_as_xyz
  1  'x, y, z'
loop_
 _atom_site_type_symbol
 _atom_site_label
 _atom_site_symmetry_multiplicity
 _atom_site_fract_x
 _atom_site_fract_y
 _atom_site_fract_z
 _atom_site_occupancy
  Li  Li0  1  0.00000000  0.50000000  0.25000000  1
  Li  Li1  1  0.00000000  0.00000000  0.00000000  1
  Li  Li2  1  0.50000000  0.00000000  0.75000000  1
  Li  Li3  1  0.50000000  0.50000000  0.50000000  1
  Gd  Gd4  1  0.50000000  0.50000000  0.00000000  1
  Gd  Gd5  1  0.50000000  0.00000000  0.25000000  1
  Gd  Gd6  1  0.00000000  0.00000000  0.50000000  1
  Gd  Gd7  1  0.00000000  0.50000000  0.75000000  1
  Cl  Cl8  1  0.17151150  0.21664250  0.33032350  1
  Cl  Cl9  1  0.71664250  0.82848850  0.08032350  1
  Cl  Cl10  1  0.67151150  0.21664250  0.41967650  1
  Cl  Cl11  1  0.71664250  0.32848850  0.16967650  1
  Cl  Cl12  1  0.28335750  0.67151150  0.16967650  1
  Cl  Cl13  1  0.32848850  0.78335750  0.41967650  1
  Cl  Cl14  1  0.82848850  0.78335750  0.33032350  1
  Cl  Cl15  1  0.28335750  0.17151150  0.08032350  1
  Cl  Cl16  1  0.67151150  0.71664250  0.83032350  1
  Cl  Cl17  1  0.21664250  0.32848850  0.58032350  1
  Cl  Cl18  1  0.17151150  0.71664250  0.91967650  1
  Cl  Cl19  1  0.21664250  0.82848850  0.66967650  1
  Cl  Cl20  1  0.78335750  0.17151150  0.66967650  1
  Cl  Cl21  1  0.82848850  0.28335750  0.91967650  1
  Cl  Cl22  1  0.32848850  0.28335750  0.83032350  1
  Cl  Cl23  1  0.78335750  0.67151150  0.58032350  1
