# generated using pymatgen
data_CsBiO2
_symmetry_space_group_name_H-M   'P 1'
_cell_length_a   8.47991000
_cell_length_b   9.64517200
_cell_length_c   6.09595929
_cell_angle_alpha   90.00000000
_cell_angle_beta   123.25667389
_cell_angle_gamma   90.00000000
_symmetry_Int_Tables_number   1
_chemical_formula_structural   CsBiO2
_chemical_formula_sum   'Cs4 Bi4 O8'
_cell_volume   416.93179389
_cell_formula_units_Z   4
loop_
 _symmetry_equiv_pos_site_id
 _symmetry_equiv_pos_as_xyz
  1  'x, y, z'
loop_
 _atom_site_type_symbol
 _atom_site_label
 _atom_site_symmetry_multiplicity
 _atom_site_fract_x
 _atom_site_fract_y
 _atom_site_fract_z
 _atom_site_occupancy
  Cs  Cs0  1  0.50000000  0.14103700  0.75000000  1
  Cs  Cs1  1  0.50000000  0.85896300  0.25000000  1
  Cs  Cs2  1  0.00000000  0.64103700  0.75000000  1
  Cs  Cs3  1  0.00000000  0.35896300  0.25000000  1
  Bi  Bi4  1  0.50000000  0.41778900  0.25000000  1
  Bi  Bi5  1  0.50000000  0.58221100  0.75000000  1
  Bi  Bi6  1  0.00000000  0.91778900  0.25000000  1
  Bi  Bi7  1  0.00000000  0.08221100  0.75000000  1
  O  O8  1  0.17726350  0.05511450  0.20948300  1
  O  O9  1  0.82273650  0.05511450  0.29051700  1
  O  O10  1  0.17726350  0.94488550  0.70948300  1
  O  O11  1  0.82273650  0.94488550  0.79051700  1
  O  O12  1  0.67726350  0.55511450  0.20948300  1
  O  O13  1  0.32273650  0.55511450  0.29051700  1
  O  O14  1  0.67726350  0.44488550  0.70948300  1
  O  O15  1  0.32273650  0.44488550  0.79051700  1
