# generated using pymatgen
data_AgClO4
_symmetry_space_group_name_H-M   'P 1'
_cell_length_a   5.00597400
_cell_length_b   5.00597400
_cell_length_c   7.06711200
_cell_angle_alpha   90.00000000
_cell_angle_beta   90.00000000
_cell_angle_gamma   90.00000000
_symmetry_Int_Tables_number   1
_chemical_formula_structural   AgClO4
_chemical_formula_sum   'Ag2 Cl2 O8'
_cell_volume   177.10024149
_cell_formula_units_Z   2
loop_
 _symmetry_equiv_pos_site_id
 _symmetry_equiv_pos_as_xyz
  1  'x, y, z'
loop_
 _atom_site_type_symbol
 _atom_site_label
 _atom_site_symmetry_multiplicity
 _atom_site_fract_x
 _atom_site_fract_y
 _atom_site_fract_z
 _atom_site_occupancy
  Ag  Ag0  1  0.00000000  0.00000000  0.50000000  1
  Ag  Ag1  1  0.50000000  0.50000000  0.00000000  1
  Cl  Cl2  1  0.00000000  0.00000000  0.00000000  1
  Cl  Cl3  1  0.50000000  0.50000000  0.50000000  1
  O  O4  1  0.33228650  0.33228650  0.62248150  1
  O  O5  1  0.16771350  0.16771350  0.12248150  1
  O  O6  1  0.66771350  0.33228650  0.37751850  1
  O  O7  1  0.33228650  0.66771350  0.37751850  1
  O  O8  1  0.83228650  0.83228650  0.12248150  1
  O  O9  1  0.66771350  0.66771350  0.62248150  1
  O  O10  1  0.16771350  0.83228650  0.87751850  1
  O  O11  1  0.83228650  0.16771350  0.87751850  1
