# generated using pymatgen
data_Zn2PHO5
_symmetry_space_group_name_H-M   'P 1'
_cell_length_a   6.06249200
_cell_length_b   8.21356200
_cell_length_c   8.39598500
_cell_angle_alpha   90.00000000
_cell_angle_beta   90.00000000
_cell_angle_gamma   90.00000000
_symmetry_Int_Tables_number   1
_chemical_formula_structural   Zn2PHO5
_chemical_formula_sum   'Zn8 P4 H4 O20'
_cell_volume   418.07516736
_cell_formula_units_Z   4
loop_
 _symmetry_equiv_pos_site_id
 _symmetry_equiv_pos_as_xyz
  1  'x, y, z'
loop_
 _atom_site_type_symbol
 _atom_site_label
 _atom_site_symmetry_multiplicity
 _atom_site_fract_x
 _atom_site_fract_y
 _atom_site_fract_z
 _atom_site_occupancy
  Zn  Zn0  1  0.75278200  0.00000000  0.50000000  1
  Zn  Zn1  1  0.74721800  0.50000000  0.00000000  1
  Zn  Zn2  1  0.24721800  0.00000000  0.50000000  1
  Zn  Zn3  1  0.25278200  0.50000000  0.00000000  1
  Zn  Zn4  1  0.00000000  0.13559700  0.86319600  1
  Zn  Zn5  1  0.00000000  0.86440300  0.13680400  1
  Zn  Zn6  1  0.50000000  0.63559700  0.63680400  1
  Zn  Zn7  1  0.50000000  0.36440300  0.36319600  1
  P  P8  1  0.50000000  0.24967600  0.73918800  1
  P  P9  1  0.50000000  0.75032400  0.26081200  1
  P  P10  1  0.00000000  0.74967600  0.76081200  1
  P  P11  1  0.00000000  0.25032400  0.23918800  1
  H  H12  1  0.00000000  0.22453500  0.57863300  1
  H  H13  1  0.00000000  0.77546500  0.42136700  1
  H  H14  1  0.50000000  0.72453500  0.92136700  1
  H  H15  1  0.50000000  0.27546500  0.07863300  1
  O  O16  1  0.00000000  0.11492200  0.62366600  1
  O  O17  1  0.00000000  0.88507800  0.37633400  1
  O  O18  1  0.50000000  0.61492200  0.87633400  1
  O  O19  1  0.50000000  0.38507800  0.12366600  1
  O  O20  1  0.70768300  0.73369600  0.15303200  1
  O  O21  1  0.70768300  0.26630400  0.84696800  1
  O  O22  1  0.79231700  0.23369600  0.34696800  1
  O  O23  1  0.79231700  0.76630400  0.65303200  1
  O  O24  1  0.00000000  0.11375400  0.10907700  1
  O  O25  1  0.00000000  0.88624600  0.89092300  1
  O  O26  1  0.50000000  0.61375400  0.39092300  1
  O  O27  1  0.50000000  0.38624600  0.60907700  1
  O  O28  1  0.00000000  0.41635400  0.14698900  1
  O  O29  1  0.00000000  0.58364600  0.85301100  1
  O  O30  1  0.50000000  0.91635400  0.35301100  1
  O  O31  1  0.50000000  0.08364600  0.64698900  1
  O  O32  1  0.20768300  0.23369600  0.34696800  1
  O  O33  1  0.20768300  0.76630400  0.65303200  1
  O  O34  1  0.29231700  0.73369600  0.15303200  1
  O  O35  1  0.29231700  0.26630400  0.84696800  1
