# generated using pymatgen
data_LiAuS
_symmetry_space_group_name_H-M   'P 1'
_cell_length_a   9.04731400
_cell_length_b   9.13067200
_cell_length_c   11.36017800
_cell_angle_alpha   90.00000000
_cell_angle_beta   90.00000000
_cell_angle_gamma   90.00000000
_symmetry_Int_Tables_number   1
_chemical_formula_structural   LiAuS
_chemical_formula_sum   'Li16 Au16 S16'
_cell_volume   938.44222738
_cell_formula_units_Z   16
loop_
 _symmetry_equiv_pos_site_id
 _symmetry_equiv_pos_as_xyz
  1  'x, y, z'
loop_
 _atom_site_type_symbol
 _atom_site_label
 _atom_site_symmetry_multiplicity
 _atom_site_fract_x
 _atom_site_fract_y
 _atom_site_fract_z
 _atom_site_occupancy
  Li  Li0  1  0.00000000  0.00000000  0.14900500  1
  Li  Li1  1  0.50000000  0.00000000  0.35099500  1
  Li  Li2  1  0.75000000  0.75000000  0.10099500  1
  Li  Li3  1  0.75000000  0.75000000  0.39900500  1
  Li  Li4  1  0.00000000  0.50000000  0.64900500  1
  Li  Li5  1  0.50000000  0.50000000  0.85099500  1
  Li  Li6  1  0.75000000  0.25000000  0.60099500  1
  Li  Li7  1  0.75000000  0.25000000  0.89900500  1
  Li  Li8  1  0.50000000  0.00000000  0.64900500  1
  Li  Li9  1  0.00000000  0.00000000  0.85099500  1
  Li  Li10  1  0.25000000  0.75000000  0.60099500  1
  Li  Li11  1  0.25000000  0.75000000  0.89900500  1
  Li  Li12  1  0.50000000  0.50000000  0.14900500  1
  Li  Li13  1  0.00000000  0.50000000  0.35099500  1
  Li  Li14  1  0.25000000  0.25000000  0.10099500  1
  Li  Li15  1  0.25000000  0.25000000  0.39900500  1
  Au  Au16  1  0.62500000  0.12500000  0.12500000  1
  Au  Au17  1  0.12500000  0.87500000  0.37500000  1
  Au  Au18  1  0.37500000  0.87500000  0.12500000  1
  Au  Au19  1  0.87500000  0.12500000  0.37500000  1
  Au  Au20  1  0.62500000  0.62500000  0.62500000  1
  Au  Au21  1  0.12500000  0.37500000  0.87500000  1
  Au  Au22  1  0.37500000  0.37500000  0.62500000  1
  Au  Au23  1  0.87500000  0.62500000  0.87500000  1
  Au  Au24  1  0.12500000  0.12500000  0.62500000  1
  Au  Au25  1  0.62500000  0.87500000  0.87500000  1
  Au  Au26  1  0.87500000  0.87500000  0.62500000  1
  Au  Au27  1  0.37500000  0.12500000  0.87500000  1
  Au  Au28  1  0.12500000  0.62500000  0.12500000  1
  Au  Au29  1  0.62500000  0.37500000  0.37500000  1
  Au  Au30  1  0.87500000  0.37500000  0.12500000  1
  Au  Au31  1  0.37500000  0.62500000  0.37500000  1
  S  S32  1  0.96213100  0.75000000  0.25000000  1
  S  S33  1  0.21213100  0.00000000  0.00000000  1
  S  S34  1  0.53786900  0.75000000  0.25000000  1
  S  S35  1  0.78786900  0.00000000  0.00000000  1
  S  S36  1  0.96213100  0.25000000  0.75000000  1
  S  S37  1  0.21213100  0.50000000  0.50000000  1
  S  S38  1  0.53786900  0.25000000  0.75000000  1
  S  S39  1  0.78786900  0.50000000  0.50000000  1
  S  S40  1  0.46213100  0.75000000  0.75000000  1
  S  S41  1  0.71213100  0.00000000  0.50000000  1
  S  S42  1  0.03786900  0.75000000  0.75000000  1
  S  S43  1  0.28786900  0.00000000  0.50000000  1
  S  S44  1  0.46213100  0.25000000  0.25000000  1
  S  S45  1  0.71213100  0.50000000  0.00000000  1
  S  S46  1  0.03786900  0.25000000  0.25000000  1
  S  S47  1  0.28786900  0.50000000  0.00000000  1
