# generated using pymatgen
data_Na3BP2
_symmetry_space_group_name_H-M   'P 1'
_cell_length_a   7.00918000
_cell_length_b   9.30551900
_cell_length_c   9.16053538
_cell_angle_alpha   90.00000000
_cell_angle_beta   110.92281835
_cell_angle_gamma   90.00000000
_symmetry_Int_Tables_number   1
_chemical_formula_structural   Na3BP2
_chemical_formula_sum   'Na12 B4 P8'
_cell_volume   558.09036687
_cell_formula_units_Z   4
loop_
 _symmetry_equiv_pos_site_id
 _symmetry_equiv_pos_as_xyz
  1  'x, y, z'
loop_
 _atom_site_type_symbol
 _atom_site_label
 _atom_site_symmetry_multiplicity
 _atom_site_fract_x
 _atom_site_fract_y
 _atom_site_fract_z
 _atom_site_occupancy
  Na  Na0  1  0.26378100  0.71340300  0.18239400  1
  Na  Na1  1  0.75668100  0.93067900  0.02202500  1
  Na  Na2  1  0.75668100  0.56932100  0.52202500  1
  Na  Na3  1  0.24331900  0.43067900  0.47797500  1
  Na  Na4  1  0.22174500  0.02709600  0.38878700  1
  Na  Na5  1  0.77825500  0.52709600  0.11121300  1
  Na  Na6  1  0.77825500  0.97290400  0.61121300  1
  Na  Na7  1  0.22174500  0.47290400  0.88878700  1
  Na  Na8  1  0.26378100  0.78659700  0.68239400  1
  Na  Na9  1  0.73621900  0.28659700  0.81760600  1
  Na  Na10  1  0.24331900  0.06932100  0.97797500  1
  Na  Na11  1  0.73621900  0.21340300  0.31760600  1
  B  B12  1  0.77515500  0.82866800  0.31776200  1
  B  B13  1  0.22484500  0.32866800  0.18223800  1
  B  B14  1  0.77515500  0.67133200  0.81776200  1
  B  B15  1  0.22484500  0.17133200  0.68223800  1
  P  P16  1  0.55332600  0.56139800  0.76834900  1
  P  P17  1  0.44667400  0.06139800  0.73165100  1
  P  P18  1  0.44667400  0.43860200  0.23165100  1
  P  P19  1  0.55332600  0.93860200  0.26834900  1
  P  P20  1  0.00272400  0.72449200  0.36466200  1
  P  P21  1  0.99727600  0.22449200  0.13533800  1
  P  P22  1  0.99727600  0.27550800  0.63533800  1
  P  P23  1  0.00272400  0.77550800  0.86466200  1
