# generated using pymatgen
data_Na3InS3
_symmetry_space_group_name_H-M   'P 1'
_cell_length_a   16.16390400
_cell_length_b   13.52201200
_cell_length_c   7.46700516
_cell_angle_alpha   90.00000000
_cell_angle_beta   117.36838776
_cell_angle_gamma   90.00000000
_symmetry_Int_Tables_number   1
_chemical_formula_structural   Na3InS3
_chemical_formula_sum   'Na24 In8 S24'
_cell_volume   1449.37517843
_cell_formula_units_Z   8
loop_
 _symmetry_equiv_pos_site_id
 _symmetry_equiv_pos_as_xyz
  1  'x, y, z'
loop_
 _atom_site_type_symbol
 _atom_site_label
 _atom_site_symmetry_multiplicity
 _atom_site_fract_x
 _atom_site_fract_y
 _atom_site_fract_z
 _atom_site_occupancy
  Na  Na0  1  0.59103100  0.58197900  0.54280200  1
  Na  Na1  1  0.40896900  0.58197900  0.95719800  1
  Na  Na2  1  0.40896900  0.41802100  0.45719800  1
  Na  Na3  1  0.59103100  0.41802100  0.04280200  1
  Na  Na4  1  0.79663500  0.56654500  0.41261600  1
  Na  Na5  1  0.20336500  0.56654500  0.08738400  1
  Na  Na6  1  0.20336500  0.43345500  0.58738400  1
  Na  Na7  1  0.79663500  0.43345500  0.91261600  1
  Na  Na8  1  0.00000000  0.27779600  0.25000000  1
  Na  Na9  1  0.00000000  0.72220400  0.75000000  1
  Na  Na10  1  0.00000000  0.56404400  0.25000000  1
  Na  Na11  1  0.00000000  0.43595600  0.75000000  1
  Na  Na12  1  0.09103100  0.08197900  0.54280200  1
  Na  Na13  1  0.90896900  0.08197900  0.95719800  1
  Na  Na14  1  0.90896900  0.91802100  0.45719800  1
  Na  Na15  1  0.09103100  0.91802100  0.04280200  1
  Na  Na16  1  0.29663500  0.06654500  0.41261600  1
  Na  Na17  1  0.70336500  0.06654500  0.08738400  1
  Na  Na18  1  0.70336500  0.93345500  0.58738400  1
  Na  Na19  1  0.29663500  0.93345500  0.91261600  1
  Na  Na20  1  0.50000000  0.77779600  0.25000000  1
  Na  Na21  1  0.50000000  0.22220400  0.75000000  1
  Na  Na22  1  0.50000000  0.06404400  0.25000000  1
  Na  Na23  1  0.50000000  0.93595600  0.75000000  1
  In  In24  1  0.17261250  0.74467750  0.59646700  1
  In  In25  1  0.82738750  0.25532250  0.40353300  1
  In  In26  1  0.17261250  0.25532250  0.09646700  1
  In  In27  1  0.82738750  0.74467750  0.90353300  1
  In  In28  1  0.67261250  0.24467750  0.59646700  1
  In  In29  1  0.32738750  0.75532250  0.40353300  1
  In  In30  1  0.67261250  0.75532250  0.09646700  1
  In  In31  1  0.32738750  0.24467750  0.90353300  1
  S  S32  1  0.15027000  0.26323200  0.73760600  1
  S  S33  1  0.15027000  0.73676800  0.23760600  1
  S  S34  1  0.84973000  0.26323200  0.76239400  1
  S  S35  1  0.84973000  0.73676800  0.26239400  1
  S  S36  1  0.10685700  0.11039800  0.18556800  1
  S  S37  1  0.89314300  0.11039800  0.31443200  1
  S  S38  1  0.89314300  0.88960200  0.81443200  1
  S  S39  1  0.10685700  0.88960200  0.68556800  1
  S  S40  1  0.11550550  0.41081950  0.17094000  1
  S  S41  1  0.88449450  0.41081950  0.32906000  1
  S  S42  1  0.88449450  0.58918050  0.82906000  1
  S  S43  1  0.11550550  0.58918050  0.67094000  1
  S  S44  1  0.65027000  0.76323200  0.73760600  1
  S  S45  1  0.65027000  0.23676800  0.23760600  1
  S  S46  1  0.34973000  0.76323200  0.76239400  1
  S  S47  1  0.34973000  0.23676800  0.26239400  1
  S  S48  1  0.60685700  0.61039800  0.18556800  1
  S  S49  1  0.39314300  0.61039800  0.31443200  1
  S  S50  1  0.39314300  0.38960200  0.81443200  1
  S  S51  1  0.60685700  0.38960200  0.68556800  1
  S  S52  1  0.61550550  0.91081950  0.17094000  1
  S  S53  1  0.38449450  0.91081950  0.32906000  1
  S  S54  1  0.38449450  0.08918050  0.82906000  1
  S  S55  1  0.61550550  0.08918050  0.67094000  1
