# generated using pymatgen
data_EuSnF7
_symmetry_space_group_name_H-M   'P 1'
_cell_length_a   6.17323000
_cell_length_b   5.82896700
_cell_length_c   8.37916022
_cell_angle_alpha   90.00000000
_cell_angle_beta   102.66590468
_cell_angle_gamma   90.00000000
_symmetry_Int_Tables_number   1
_chemical_formula_structural   EuSnF7
_chemical_formula_sum   'Eu2 Sn2 F14'
_cell_volume   294.17472938
_cell_formula_units_Z   2
loop_
 _symmetry_equiv_pos_site_id
 _symmetry_equiv_pos_as_xyz
  1  'x, y, z'
loop_
 _atom_site_type_symbol
 _atom_site_label
 _atom_site_symmetry_multiplicity
 _atom_site_fract_x
 _atom_site_fract_y
 _atom_site_fract_z
 _atom_site_occupancy
  Eu  Eu0  1  0.84237000  0.25054800  0.81350900  1
  Eu  Eu1  1  0.15763000  0.75054800  0.18649100  1
  Sn  Sn2  1  0.31317500  0.73806600  0.72473300  1
  Sn  Sn3  1  0.68682500  0.23806600  0.27526700  1
  F  F4  1  0.54726400  0.49878800  0.72797800  1
  F  F5  1  0.05594400  0.06616900  0.02530500  1
  F  F6  1  0.55614600  0.97256100  0.74343200  1
  F  F7  1  0.94405600  0.56616900  0.97469500  1
  F  F8  1  0.73728800  0.24714200  0.51758500  1
  F  F9  1  0.93001900  0.46803200  0.28684600  1
  F  F10  1  0.10095800  0.47304700  0.71003700  1
  F  F11  1  0.45273600  0.99878800  0.27202200  1
  F  F12  1  0.89904200  0.97304700  0.28996300  1
  F  F13  1  0.36476600  0.73144800  0.96872400  1
  F  F14  1  0.26271200  0.74714200  0.48241500  1
  F  F15  1  0.06998100  0.96803200  0.71315400  1
  F  F16  1  0.44385400  0.47256100  0.25656800  1
  F  F17  1  0.63523400  0.23144800  0.03127600  1
