# generated using pymatgen
data_LiUF5
_symmetry_space_group_name_H-M   'P 1'
_cell_length_a   14.97890200
_cell_length_b   14.97890200
_cell_length_c   6.62461200
_cell_angle_alpha   90.00000000
_cell_angle_beta   90.00000000
_cell_angle_gamma   90.00000000
_symmetry_Int_Tables_number   1
_chemical_formula_structural   LiUF5
_chemical_formula_sum   'Li16 U16 F80'
_cell_volume   1486.34766687
_cell_formula_units_Z   16
loop_
 _symmetry_equiv_pos_site_id
 _symmetry_equiv_pos_as_xyz
  1  'x, y, z'
loop_
 _atom_site_type_symbol
 _atom_site_label
 _atom_site_symmetry_multiplicity
 _atom_site_fract_x
 _atom_site_fract_y
 _atom_site_fract_z
 _atom_site_occupancy
  Li  Li0  1  0.41627950  0.06970550  0.89469750  1
  Li  Li1  1  0.56970550  0.58372050  0.14469750  1
  Li  Li2  1  0.43029450  0.41627950  0.14469750  1
  Li  Li3  1  0.58372050  0.93029450  0.89469750  1
  Li  Li4  1  0.08372050  0.93029450  0.35530250  1
  Li  Li5  1  0.43029450  0.91627950  0.60530250  1
  Li  Li6  1  0.56970550  0.08372050  0.60530250  1
  Li  Li7  1  0.91627950  0.06970550  0.35530250  1
  Li  Li8  1  0.91627950  0.56970550  0.39469750  1
  Li  Li9  1  0.06970550  0.08372050  0.64469750  1
  Li  Li10  1  0.93029450  0.91627950  0.64469750  1
  Li  Li11  1  0.08372050  0.43029450  0.39469750  1
  Li  Li12  1  0.58372050  0.43029450  0.85530250  1
  Li  Li13  1  0.93029450  0.41627950  0.10530250  1
  Li  Li14  1  0.06970550  0.58372050  0.10530250  1
  Li  Li15  1  0.41627950  0.56970550  0.85530250  1
  U  U16  1  0.30594300  0.06238800  0.37087700  1
  U  U17  1  0.56238800  0.69405700  0.62087700  1
  U  U18  1  0.43761200  0.30594300  0.62087700  1
  U  U19  1  0.69405700  0.93761200  0.37087700  1
  U  U20  1  0.19405700  0.93761200  0.87912300  1
  U  U21  1  0.43761200  0.80594300  0.12912300  1
  U  U22  1  0.56238800  0.19405700  0.12912300  1
  U  U23  1  0.80594300  0.06238800  0.87912300  1
  U  U24  1  0.80594300  0.56238800  0.87087700  1
  U  U25  1  0.06238800  0.19405700  0.12087700  1
  U  U26  1  0.93761200  0.80594300  0.12087700  1
  U  U27  1  0.19405700  0.43761200  0.87087700  1
  U  U28  1  0.69405700  0.43761200  0.37912300  1
  U  U29  1  0.93761200  0.30594300  0.62912300  1
  U  U30  1  0.06238800  0.69405700  0.62912300  1
  U  U31  1  0.30594300  0.56238800  0.37912300  1
  F  F32  1  0.80135700  0.03521900  0.25426800  1
  F  F33  1  0.53521900  0.19864300  0.50426800  1
  F  F34  1  0.46478100  0.80135700  0.50426800  1
  F  F35  1  0.19864300  0.96478100  0.25426800  1
  F  F36  1  0.69864300  0.96478100  0.99573200  1
  F  F37  1  0.46478100  0.30135700  0.24573200  1
  F  F38  1  0.53521900  0.69864300  0.24573200  1
  F  F39  1  0.30135700  0.03521900  0.99573200  1
  F  F40  1  0.42480550  0.70918350  0.87773550  1
  F  F41  1  0.70918350  0.07519450  0.62773550  1
  F  F42  1  0.29081650  0.92480550  0.62773550  1
  F  F43  1  0.57519450  0.29081650  0.87773550  1
  F  F44  1  0.57519450  0.79081650  0.87226450  1
  F  F45  1  0.79081650  0.92480550  0.62226450  1
  F  F46  1  0.20918350  0.07519450  0.62226450  1
  F  F47  1  0.42480550  0.20918350  0.87226450  1
  F  F48  1  0.43231750  0.60861450  0.55202550  1
  F  F49  1  0.60861450  0.06768250  0.30202550  1
  F  F50  1  0.39138550  0.93231750  0.30202550  1
  F  F51  1  0.56768250  0.39138550  0.55202550  1
  F  F52  1  0.56768250  0.89138550  0.19797450  1
  F  F53  1  0.89138550  0.93231750  0.94797450  1
  F  F54  1  0.10861450  0.06768250  0.94797450  1
  F  F55  1  0.43231750  0.10861450  0.19797450  1
  F  F56  1  0.34309150  0.70573850  0.26509850  1
  F  F57  1  0.70573850  0.15690850  0.01509850  1
  F  F58  1  0.29426150  0.84309150  0.01509850  1
  F  F59  1  0.65690850  0.29426150  0.26509850  1
  F  F60  1  0.65690850  0.79426150  0.48490150  1
  F  F61  1  0.79426150  0.84309150  0.23490150  1
  F  F62  1  0.20573850  0.15690850  0.23490150  1
  F  F63  1  0.34309150  0.20573850  0.48490150  1
  F  F64  1  0.91665150  0.04847950  0.64620450  1
  F  F65  1  0.54847950  0.08334850  0.89620450  1
  F  F66  1  0.45152050  0.91665150  0.89620450  1
  F  F67  1  0.08334850  0.95152050  0.64620450  1
  F  F68  1  0.58334850  0.95152050  0.60379550  1
  F  F69  1  0.45152050  0.41665150  0.85379550  1
  F  F70  1  0.54847950  0.58334850  0.85379550  1
  F  F71  1  0.41665150  0.04847950  0.60379550  1
  F  F72  1  0.30135700  0.53521900  0.75426800  1
  F  F73  1  0.03521900  0.69864300  0.00426800  1
  F  F74  1  0.96478100  0.30135700  0.00426800  1
  F  F75  1  0.69864300  0.46478100  0.75426800  1
  F  F76  1  0.19864300  0.46478100  0.49573200  1
  F  F77  1  0.96478100  0.80135700  0.74573200  1
  F  F78  1  0.03521900  0.19864300  0.74573200  1
  F  F79  1  0.80135700  0.53521900  0.49573200  1
  F  F80  1  0.92480550  0.20918350  0.37773550  1
  F  F81  1  0.20918350  0.57519450  0.12773550  1
  F  F82  1  0.79081650  0.42480550  0.12773550  1
  F  F83  1  0.07519450  0.79081650  0.37773550  1
  F  F84  1  0.07519450  0.29081650  0.37226450  1
  F  F85  1  0.29081650  0.42480550  0.12226450  1
  F  F86  1  0.70918350  0.57519450  0.12226450  1
  F  F87  1  0.92480550  0.70918350  0.37226450  1
  F  F88  1  0.93231750  0.10861450  0.05202550  1
  F  F89  1  0.10861450  0.56768250  0.80202550  1
  F  F90  1  0.89138550  0.43231750  0.80202550  1
  F  F91  1  0.06768250  0.89138550  0.05202550  1
  F  F92  1  0.06768250  0.39138550  0.69797450  1
  F  F93  1  0.39138550  0.43231750  0.44797450  1
  F  F94  1  0.60861450  0.56768250  0.44797450  1
  F  F95  1  0.93231750  0.60861450  0.69797450  1
  F  F96  1  0.84309150  0.20573850  0.76509850  1
  F  F97  1  0.20573850  0.65690850  0.51509850  1
  F  F98  1  0.79426150  0.34309150  0.51509850  1
  F  F99  1  0.15690850  0.79426150  0.76509850  1
  F  F100  1  0.15690850  0.29426150  0.98490150  1
  F  F101  1  0.29426150  0.34309150  0.73490150  1
  F  F102  1  0.70573850  0.65690850  0.73490150  1
  F  F103  1  0.84309150  0.70573850  0.98490150  1
  F  F104  1  0.41665150  0.54847950  0.14620450  1
  F  F105  1  0.04847950  0.58334850  0.39620450  1
  F  F106  1  0.95152050  0.41665150  0.39620450  1
  F  F107  1  0.58334850  0.45152050  0.14620450  1
  F  F108  1  0.08334850  0.45152050  0.10379550  1
  F  F109  1  0.95152050  0.91665150  0.35379550  1
  F  F110  1  0.04847950  0.08334850  0.35379550  1
  F  F111  1  0.91665150  0.54847950  0.10379550  1
