# generated using pymatgen
data_Al(HO)3
_symmetry_space_group_name_H-M   'P 1'
_cell_length_a   8.75063800
_cell_length_b   5.11272900
_cell_length_c   12.82745135
_cell_angle_alpha   90.00000000
_cell_angle_beta   130.94854633
_cell_angle_gamma   90.00000000
_symmetry_Int_Tables_number   1
_chemical_formula_structural   Al(HO)3
_chemical_formula_sum   'Al8 H24 O24'
_cell_volume   433.46242458
_cell_formula_units_Z   8
loop_
 _symmetry_equiv_pos_site_id
 _symmetry_equiv_pos_as_xyz
  1  'x, y, z'
loop_
 _atom_site_type_symbol
 _atom_site_label
 _atom_site_symmetry_multiplicity
 _atom_site_fract_x
 _atom_site_fract_y
 _atom_site_fract_z
 _atom_site_occupancy
  Al  Al0  1  0.33718200  0.52474700  0.50224000  1
  Al  Al1  1  0.66281800  0.02474700  0.99776000  1
  Al  Al2  1  0.66281800  0.47525300  0.49776000  1
  Al  Al3  1  0.33718200  0.97525300  0.00224000  1
  Al  Al4  1  0.16945900  0.03312500  0.50183400  1
  Al  Al5  1  0.83054100  0.53312500  0.99816600  1
  Al  Al6  1  0.83054100  0.96687500  0.49816600  1
  Al  Al7  1  0.16945900  0.46687500  0.00183400  1
  H  H8  1  0.01793700  0.66035400  0.70600000  1
  H  H9  1  0.98206300  0.16035400  0.79400000  1
  H  H10  1  0.98206300  0.33964600  0.29400000  1
  H  H11  1  0.01793700  0.83964600  0.20600000  1
  H  H12  1  0.50322900  0.22406100  0.70842800  1
  H  H13  1  0.49677100  0.72406100  0.79157200  1
  H  H14  1  0.49677100  0.77593900  0.29157200  1
  H  H15  1  0.50322900  0.27593900  0.20842800  1
  H  H16  1  0.93523400  0.68129000  0.38835700  1
  H  H17  1  0.06476600  0.18129000  0.11164300  1
  H  H18  1  0.70846600  0.61340200  0.70664500  1
  H  H19  1  0.29153400  0.11340200  0.79335500  1
  H  H20  1  0.29153400  0.38659800  0.29335500  1
  H  H21  1  0.70846600  0.88659800  0.20664500  1
  H  H22  1  0.67952900  0.05545600  0.60213700  1
  H  H23  1  0.32047100  0.55545600  0.89786300  1
  H  H24  1  0.32047100  0.94454400  0.39786300  1
  H  H25  1  0.67952900  0.44454400  0.10213700  1
  H  H26  1  0.20587200  0.64105400  0.62442900  1
  H  H27  1  0.79412800  0.14105400  0.87557100  1
  H  H28  1  0.79412800  0.35894600  0.37557100  1
  H  H29  1  0.20587200  0.85894600  0.12442900  1
  H  H30  1  0.06476600  0.31871000  0.61164300  1
  H  H31  1  0.93523400  0.81871000  0.88835700  1
  O  O32  1  0.40789900  0.28047900  0.10633600  1
  O  O33  1  0.59210100  0.78047900  0.39366400  1
  O  O34  1  0.59210100  0.71952100  0.89366400  1
  O  O35  1  0.40789900  0.21952100  0.60633600  1
  O  O36  1  0.93083300  0.85505200  0.10426100  1
  O  O37  1  0.06916700  0.35505200  0.39573900  1
  O  O38  1  0.06916700  0.14494800  0.89573900  1
  O  O39  1  0.93083300  0.64494800  0.60426100  1
  O  O40  1  0.90903200  0.86632600  0.39254900  1
  O  O41  1  0.09096800  0.36632600  0.10745100  1
  O  O42  1  0.60913500  0.63297500  0.60525000  1
  O  O43  1  0.39086500  0.13297500  0.89475000  1
  O  O44  1  0.39086500  0.36702500  0.39475000  1
  O  O45  1  0.60913500  0.86702500  0.10525000  1
  O  O46  1  0.77802000  0.15311600  0.60422100  1
  O  O47  1  0.22198000  0.65311600  0.89577900  1
  O  O48  1  0.22198000  0.84688400  0.39577900  1
  O  O49  1  0.77802000  0.34688400  0.10422100  1
  O  O50  1  0.29533400  0.72037200  0.61281300  1
  O  O51  1  0.70466600  0.22037200  0.88718700  1
  O  O52  1  0.70466600  0.27962800  0.38718700  1
  O  O53  1  0.29533400  0.77962800  0.11281300  1
  O  O54  1  0.09096800  0.13367400  0.60745100  1
  O  O55  1  0.90903200  0.63367400  0.89254900  1
