# generated using pymatgen
data_CuSi(HO2)2
_symmetry_space_group_name_H-M   'P 1'
_cell_length_a   14.75268359
_cell_length_b   14.75268359
_cell_length_c   7.81799647
_cell_angle_alpha   90.00000000
_cell_angle_beta   90.00000000
_cell_angle_gamma   120.00000000
_symmetry_Int_Tables_number   1
_chemical_formula_structural   CuSi(HO2)2
_chemical_formula_sum   'Cu18 Si18 H36 O72'
_cell_volume   1473.56113137
_cell_formula_units_Z   18
loop_
 _symmetry_equiv_pos_site_id
 _symmetry_equiv_pos_as_xyz
  1  'x, y, z'
loop_
 _atom_site_type_symbol
 _atom_site_label
 _atom_site_symmetry_multiplicity
 _atom_site_fract_x
 _atom_site_fract_y
 _atom_site_fract_z
 _atom_site_occupancy
  Cu  Cu0  1  0.26371013  0.33641098  0.39779081  1
  Cu  Cu1  1  0.33025569  0.26063249  0.73112414  1
  Cu  Cu2  1  0.40603418  0.40295653  0.06445747  1
  Cu  Cu3  1  0.40295653  0.99692236  0.93554253  1
  Cu  Cu4  1  0.33641098  0.07270084  0.60220919  1
  Cu  Cu5  1  0.26063249  0.93037680  0.26887586  1
  Cu  Cu6  1  0.93037680  0.66974431  0.73112414  1
  Cu  Cu7  1  0.99692236  0.59396582  0.06445747  1
  Cu  Cu8  1  0.07270084  0.73628987  0.39779081  1
  Cu  Cu9  1  0.06962320  0.33025569  0.26887586  1
  Cu  Cu10  1  0.00307764  0.40603418  0.93554253  1
  Cu  Cu11  1  0.92729916  0.26371013  0.60220919  1
  Cu  Cu12  1  0.59704347  0.00307764  0.06445747  1
  Cu  Cu13  1  0.66358902  0.92729916  0.39779081  1
  Cu  Cu14  1  0.73936751  0.06962320  0.73112414  1
  Cu  Cu15  1  0.73628987  0.66358902  0.60220919  1
  Cu  Cu16  1  0.66974431  0.73936751  0.26887586  1
  Cu  Cu17  1  0.59396582  0.59704347  0.93554253  1
  Si  Si18  1  0.44972573  0.29185990  0.37438264  1
  Si  Si19  1  0.37480677  0.49119916  0.70771597  1
  Si  Si20  1  0.17546750  0.21694094  0.04104931  1
  Si  Si21  1  0.21694094  0.04147343  0.95895069  1
  Si  Si22  1  0.29185990  0.84213417  0.62561736  1
  Si  Si23  1  0.49119916  0.11639240  0.29228403  1
  Si  Si24  1  0.11639240  0.62519323  0.70771597  1
  Si  Si25  1  0.04147343  0.82453250  0.04104931  1
  Si  Si26  1  0.84213417  0.55027427  0.37438264  1
  Si  Si27  1  0.88360760  0.37480677  0.29228403  1
  Si  Si28  1  0.95852657  0.17546750  0.95895069  1
  Si  Si29  1  0.15786583  0.44972573  0.62561736  1
  Si  Si30  1  0.78305906  0.95852657  0.04104931  1
  Si  Si31  1  0.70814010  0.15786583  0.37438264  1
  Si  Si32  1  0.50880084  0.88360760  0.70771597  1
  Si  Si33  1  0.55027427  0.70814010  0.62561736  1
  Si  Si34  1  0.62519323  0.50880084  0.29228403  1
  Si  Si35  1  0.82453250  0.78305906  0.95895069  1
  H  H36  1  0.49509277  0.27319582  0.02491301  1
  H  H37  1  0.39347085  0.55523029  0.35824634  1
  H  H38  1  0.11143638  0.17157389  0.69157967  1
  H  H39  1  0.17157389  0.06013752  0.30842033  1
  H  H40  1  0.27319582  0.77810304  0.97508699  1
  H  H41  1  0.55523029  0.16175944  0.64175366  1
  H  H42  1  0.54490069  0.36166345  0.87412073  1
  H  H43  1  0.30500322  0.51657058  0.20745406  1
  H  H44  1  0.15009609  0.12176597  0.54078739  1
  H  H45  1  0.12176597  0.97166989  0.45921261  1
  H  H46  1  0.36166345  0.81676275  0.12587927  1
  H  H47  1  0.51657058  0.21156736  0.79254594  1
  H  H48  1  0.16175944  0.60652915  0.35824634  1
  H  H49  1  0.06013752  0.88856362  0.69157967  1
  H  H50  1  0.77810304  0.50490723  0.02491301  1
  H  H51  1  0.83824056  0.39347085  0.64175366  1
  H  H52  1  0.93986248  0.11143638  0.30842033  1
  H  H53  1  0.22189696  0.49509277  0.97508699  1
  H  H54  1  0.21156736  0.69499678  0.20745406  1
  H  H55  1  0.97166989  0.84990391  0.54078739  1
  H  H56  1  0.81676275  0.45509931  0.87412073  1
  H  H57  1  0.78843264  0.30500322  0.79254594  1
  H  H58  1  0.02833011  0.15009609  0.45921261  1
  H  H59  1  0.18323725  0.54490069  0.12587927  1
  H  H60  1  0.82842611  0.93986248  0.69157967  1
  H  H61  1  0.72680418  0.22189696  0.02491301  1
  H  H62  1  0.44476971  0.83824056  0.35824634  1
  H  H63  1  0.50490723  0.72680418  0.97508699  1
  H  H64  1  0.60652915  0.44476971  0.64175366  1
  H  H65  1  0.88856362  0.82842611  0.30842033  1
  H  H66  1  0.87823403  0.02833011  0.54078739  1
  H  H67  1  0.63833655  0.18323725  0.87412073  1
  H  H68  1  0.48342942  0.78843264  0.20745406  1
  H  H69  1  0.45509931  0.63833655  0.12587927  1
  H  H70  1  0.69499678  0.48342942  0.79254594  1
  H  H71  1  0.84990391  0.87823403  0.45921261  1
  O  O72  1  0.26203840  0.48642438  0.75006196  1
  O  O73  1  0.55771932  0.40462827  0.41672863  1
  O  O74  1  0.18024228  0.10894735  0.08339530  1
  O  O75  1  0.40462827  0.84690895  0.58327137  1
  O  O76  1  0.10894735  0.92870506  0.91660470  1
  O  O77  1  0.48642438  0.22438599  0.24993804  1
  O  O78  1  0.38674425  0.03297689  0.39851877  1
  O  O79  1  0.31289931  0.94658908  0.73185210  1
  O  O80  1  0.30035644  0.02043403  0.06518544  1
  O  O81  1  0.27992242  0.30035644  0.93481456  1
  O  O82  1  0.35376736  0.38674425  0.60148123  1
  O  O83  1  0.36631022  0.31289931  0.26814790  1
  O  O84  1  0.50771237  0.06650231  0.11752766  1
  O  O85  1  0.22545660  0.82562096  0.45086099  1
  O  O86  1  0.26683103  0.10787673  0.78419432  1
  O  O87  1  0.15895429  0.26683103  0.21580568  1
  O  O88  1  0.44121007  0.50771237  0.88247234  1
  O  O89  1  0.39983564  0.22545660  0.54913901  1
  O  O90  1  0.53260936  0.15479679  0.76195955  1
  O  O91  1  0.28885409  0.80072397  0.09529288  1
  O  O92  1  0.17853655  0.04447924  0.42862621  1
  O  O93  1  0.13405730  0.17853655  0.57137379  1
  O  O94  1  0.37781258  0.53260936  0.23804045  1
  O  O95  1  0.48813012  0.28885409  0.90470712  1
  O  O96  1  0.92870506  0.81975772  0.08339530  1
  O  O97  1  0.22438599  0.73796160  0.75006196  1
  O  O98  1  0.84690895  0.44228068  0.41672863  1
  O  O99  1  0.07129494  0.18024228  0.91660470  1
  O  O100  1  0.77561401  0.26203840  0.24993804  1
  O  O101  1  0.15309105  0.55771932  0.58327137  1
  O  O102  1  0.05341092  0.36631022  0.73185210  1
  O  O103  1  0.97956597  0.27992242  0.06518544  1
  O  O104  1  0.96702311  0.35376736  0.39851877  1
  O  O105  1  0.94658908  0.63368978  0.26814790  1
  O  O106  1  0.02043403  0.72007758  0.93481456  1
  O  O107  1  0.03297689  0.64623264  0.60148123  1
  O  O108  1  0.17437904  0.39983564  0.45086099  1
  O  O109  1  0.89212327  0.15895429  0.78419432  1
  O  O110  1  0.93349769  0.44121007  0.11752766  1
  O  O111  1  0.82562096  0.60016436  0.54913901  1
  O  O112  1  0.10787673  0.84104571  0.21580568  1
  O  O113  1  0.06650231  0.55878993  0.88247234  1
  O  O114  1  0.19927603  0.48813012  0.09529288  1
  O  O115  1  0.95552076  0.13405730  0.42862621  1
  O  O116  1  0.84520321  0.37781258  0.76195955  1
  O  O117  1  0.80072397  0.51186988  0.90470712  1
  O  O118  1  0.04447924  0.86594270  0.57137379  1
  O  O119  1  0.15479679  0.62218742  0.23804045  1
  O  O120  1  0.59537173  0.15309105  0.41672863  1
  O  O121  1  0.89105265  0.07129494  0.08339530  1
  O  O122  1  0.51357562  0.77561401  0.75006196  1
  O  O123  1  0.73796160  0.51357562  0.24993804  1
  O  O124  1  0.44228068  0.59537173  0.58327137  1
  O  O125  1  0.81975772  0.89105265  0.91660470  1
  O  O126  1  0.72007758  0.69964356  0.06518544  1
  O  O127  1  0.64623264  0.61325575  0.39851877  1
  O  O128  1  0.63368978  0.68710069  0.73185210  1
  O  O129  1  0.61325575  0.96702311  0.60148123  1
  O  O130  1  0.68710069  0.05341092  0.26814790  1
  O  O131  1  0.69964356  0.97956597  0.93481456  1
  O  O132  1  0.84104571  0.73316897  0.78419432  1
  O  O133  1  0.55878993  0.49228763  0.11752766  1
  O  O134  1  0.60016436  0.77454340  0.45086099  1
  O  O135  1  0.49228763  0.93349769  0.88247234  1
  O  O136  1  0.77454340  0.17437904  0.54913901  1
  O  O137  1  0.73316897  0.89212327  0.21580568  1
  O  O138  1  0.86594270  0.82146345  0.42862621  1
  O  O139  1  0.62218742  0.46739064  0.76195955  1
  O  O140  1  0.51186988  0.71114591  0.09529288  1
  O  O141  1  0.46739064  0.84520321  0.23804045  1
  O  O142  1  0.71114591  0.19927603  0.90470712  1
  O  O143  1  0.82146345  0.95552076  0.57137379  1
