# generated using pymatgen
data_Cl2O
_symmetry_space_group_name_H-M   'P 1'
_cell_length_a   7.93096400
_cell_length_b   7.93096400
_cell_length_c   9.77839600
_cell_angle_alpha   90.00000000
_cell_angle_beta   90.00000000
_cell_angle_gamma   90.00000000
_symmetry_Int_Tables_number   1
_chemical_formula_structural   Cl2O
_chemical_formula_sum   'Cl16 O8'
_cell_volume   615.06296600
_cell_formula_units_Z   8
loop_
 _symmetry_equiv_pos_site_id
 _symmetry_equiv_pos_as_xyz
  1  'x, y, z'
loop_
 _atom_site_type_symbol
 _atom_site_label
 _atom_site_symmetry_multiplicity
 _atom_site_fract_x
 _atom_site_fract_y
 _atom_site_fract_z
 _atom_site_occupancy
  Cl  Cl0  1  0.00000000  0.18128900  0.31705200  1
  Cl  Cl1  1  0.31871100  0.00000000  0.06705200  1
  Cl  Cl2  1  0.68128900  0.00000000  0.06705200  1
  Cl  Cl3  1  0.50000000  0.18128900  0.43294800  1
  Cl  Cl4  1  0.50000000  0.81871100  0.43294800  1
  Cl  Cl5  1  0.50000000  0.31871100  0.81705200  1
  Cl  Cl6  1  0.31871100  0.50000000  0.18294800  1
  Cl  Cl7  1  0.18128900  0.00000000  0.68294800  1
  Cl  Cl8  1  0.50000000  0.68128900  0.81705200  1
  Cl  Cl9  1  0.81871100  0.50000000  0.56705200  1
  Cl  Cl10  1  0.18128900  0.50000000  0.56705200  1
  Cl  Cl11  1  0.00000000  0.68128900  0.93294800  1
  Cl  Cl12  1  0.00000000  0.31871100  0.93294800  1
  Cl  Cl13  1  0.00000000  0.81871100  0.31705200  1
  Cl  Cl14  1  0.81871100  0.00000000  0.68294800  1
  Cl  Cl15  1  0.68128900  0.50000000  0.18294800  1
  O  O16  1  0.00000000  0.00000000  0.21945500  1
  O  O17  1  0.00000000  0.50000000  0.46945500  1
  O  O18  1  0.00000000  0.50000000  0.03054500  1
  O  O19  1  0.00000000  0.00000000  0.78054500  1
  O  O20  1  0.50000000  0.50000000  0.71945500  1
  O  O21  1  0.50000000  0.00000000  0.96945500  1
  O  O22  1  0.50000000  0.00000000  0.53054500  1
  O  O23  1  0.50000000  0.50000000  0.28054500  1
