# generated using pymatgen
data_LiCuPO4
_symmetry_space_group_name_H-M   'P 1'
_cell_length_a   5.56455200
_cell_length_b   9.72838200
_cell_length_c   10.93361200
_cell_angle_alpha   90.00000000
_cell_angle_beta   90.00000000
_cell_angle_gamma   90.00000000
_symmetry_Int_Tables_number   1
_chemical_formula_structural   LiCuPO4
_chemical_formula_sum   'Li8 Cu8 P8 O32'
_cell_volume   591.88110886
_cell_formula_units_Z   8
loop_
 _symmetry_equiv_pos_site_id
 _symmetry_equiv_pos_as_xyz
  1  'x, y, z'
loop_
 _atom_site_type_symbol
 _atom_site_label
 _atom_site_symmetry_multiplicity
 _atom_site_fract_x
 _atom_site_fract_y
 _atom_site_fract_z
 _atom_site_occupancy
  Li  Li0  1  0.25000000  0.81675300  0.75000000  1
  Li  Li1  1  0.50000000  0.56675300  0.00000000  1
  Li  Li2  1  0.25000000  0.31675300  0.25000000  1
  Li  Li3  1  0.50000000  0.06675300  0.50000000  1
  Li  Li4  1  0.75000000  0.31675300  0.75000000  1
  Li  Li5  1  0.00000000  0.06675300  0.00000000  1
  Li  Li6  1  0.75000000  0.81675300  0.25000000  1
  Li  Li7  1  0.00000000  0.56675300  0.50000000  1
  Cu  Cu8  1  0.00000000  0.71899600  0.00000000  1
  Cu  Cu9  1  0.75000000  0.96899600  0.75000000  1
  Cu  Cu10  1  0.00000000  0.21899600  0.50000000  1
  Cu  Cu11  1  0.75000000  0.46899600  0.25000000  1
  Cu  Cu12  1  0.50000000  0.21899600  0.00000000  1
  Cu  Cu13  1  0.25000000  0.46899600  0.75000000  1
  Cu  Cu14  1  0.50000000  0.71899600  0.50000000  1
  Cu  Cu15  1  0.25000000  0.96899600  0.25000000  1
  P  P16  1  0.75000000  0.61705400  0.75000000  1
  P  P17  1  0.50000000  0.86705400  0.00000000  1
  P  P18  1  0.75000000  0.11705400  0.25000000  1
  P  P19  1  0.50000000  0.36705400  0.50000000  1
  P  P20  1  0.25000000  0.11705400  0.75000000  1
  P  P21  1  0.00000000  0.36705400  0.00000000  1
  P  P22  1  0.25000000  0.61705400  0.25000000  1
  P  P23  1  0.00000000  0.86705400  0.50000000  1
  O  O24  1  0.64706850  0.96564550  0.91721200  1
  O  O25  1  0.35293150  0.96564550  0.08278800  1
  O  O26  1  0.10293150  0.71564550  0.16721200  1
  O  O27  1  0.89706850  0.71564550  0.83278800  1
  O  O28  1  0.32868350  0.77050600  0.92643550  1
  O  O29  1  0.42131650  0.52050600  0.17643550  1
  O  O30  1  0.57868350  0.52050600  0.82356450  1
  O  O31  1  0.67131650  0.77050600  0.07356450  1
  O  O32  1  0.64706850  0.46564550  0.41721200  1
  O  O33  1  0.35293150  0.46564550  0.58278800  1
  O  O34  1  0.10293150  0.21564550  0.66721200  1
  O  O35  1  0.89706850  0.21564550  0.33278800  1
  O  O36  1  0.32868350  0.27050600  0.42643550  1
  O  O37  1  0.42131650  0.02050600  0.67643550  1
  O  O38  1  0.57868350  0.02050600  0.32356450  1
  O  O39  1  0.67131650  0.27050600  0.57356450  1
  O  O40  1  0.14706850  0.46564550  0.91721200  1
  O  O41  1  0.85293150  0.46564550  0.08278800  1
  O  O42  1  0.60293150  0.21564550  0.16721200  1
  O  O43  1  0.39706850  0.21564550  0.83278800  1
  O  O44  1  0.82868350  0.27050600  0.92643550  1
  O  O45  1  0.92131650  0.02050600  0.17643550  1
  O  O46  1  0.07868350  0.02050600  0.82356450  1
  O  O47  1  0.17131650  0.27050600  0.07356450  1
  O  O48  1  0.14706850  0.96564550  0.41721200  1
  O  O49  1  0.85293150  0.96564550  0.58278800  1
  O  O50  1  0.60293150  0.71564550  0.66721200  1
  O  O51  1  0.39706850  0.71564550  0.33278800  1
  O  O52  1  0.82868350  0.77050600  0.42643550  1
  O  O53  1  0.92131650  0.52050600  0.67643550  1
  O  O54  1  0.07868350  0.52050600  0.32356450  1
  O  O55  1  0.17131650  0.77050600  0.57356450  1
