# generated using pymatgen
data_MgH20S2(NO7)2
_symmetry_space_group_name_H-M   'P 1'
_cell_length_a   6.27176700
_cell_length_b   12.66619800
_cell_length_c   9.38378629
_cell_angle_alpha   90.00000000
_cell_angle_beta   107.40065978
_cell_angle_gamma   90.00000000
_symmetry_Int_Tables_number   1
_chemical_formula_structural   MgH20S2(NO7)2
_chemical_formula_sum   'Mg2 H40 S4 N4 O28'
_cell_volume   711.32897033
_cell_formula_units_Z   2
loop_
 _symmetry_equiv_pos_site_id
 _symmetry_equiv_pos_as_xyz
  1  'x, y, z'
loop_
 _atom_site_type_symbol
 _atom_site_label
 _atom_site_symmetry_multiplicity
 _atom_site_fract_x
 _atom_site_fract_y
 _atom_site_fract_z
 _atom_site_occupancy
  Mg  Mg0  1  0.00000000  0.00000000  0.00000000  1
  Mg  Mg1  1  0.00000000  0.50000000  0.50000000  1
  H  H2  1  0.32934400  0.35578000  0.52889500  1
  H  H3  1  0.67065600  0.85578000  0.97110500  1
  H  H4  1  0.67065600  0.64422000  0.47110500  1
  H  H5  1  0.32934400  0.14422000  0.02889500  1
  H  H6  1  0.33931200  0.43779500  0.40392600  1
  H  H7  1  0.66068800  0.93779500  0.09607400  1
  H  H8  1  0.66068800  0.56220500  0.59607400  1
  H  H9  1  0.33931200  0.06220500  0.90392600  1
  H  H10  1  0.00462400  0.68563200  0.35829900  1
  H  H11  1  0.99537600  0.18563200  0.14170100  1
  H  H12  1  0.99537600  0.31436800  0.64170100  1
  H  H13  1  0.00462400  0.81436800  0.85829900  1
  H  H14  1  0.94477900  0.59869600  0.23232000  1
  H  H15  1  0.05522100  0.09869600  0.26768000  1
  H  H16  1  0.05522100  0.40130400  0.76768000  1
  H  H17  1  0.94477900  0.90130400  0.73232000  1
  H  H18  1  0.09838400  0.62525600  0.74724500  1
  H  H19  1  0.90161600  0.12525600  0.75275500  1
  H  H20  1  0.90161600  0.37474400  0.25275500  1
  H  H21  1  0.09838400  0.87474400  0.24724500  1
  H  H22  1  0.32877900  0.59110600  0.71932500  1
  H  H23  1  0.67122100  0.09110600  0.78067500  1
  H  H24  1  0.67122100  0.40889400  0.28067500  1
  H  H25  1  0.32877900  0.90889400  0.21932500  1
  H  H26  1  0.36247300  0.92918700  0.66828700  1
  H  H27  1  0.63752700  0.42918700  0.83171300  1
  H  H28  1  0.63752700  0.07081300  0.33171300  1
  H  H29  1  0.36247300  0.57081300  0.16828700  1
  H  H30  1  0.47843700  0.84324800  0.57504600  1
  H  H31  1  0.52156300  0.34324800  0.92495400  1
  H  H32  1  0.52156300  0.15675200  0.42495400  1
  H  H33  1  0.47843700  0.65675200  0.07504600  1
  H  H34  1  0.40303600  0.80018000  0.72212300  1
  H  H35  1  0.59696400  0.30018000  0.77787700  1
  H  H36  1  0.59696400  0.19982000  0.27787700  1
  H  H37  1  0.40303600  0.69982000  0.22212300  1
  H  H38  1  0.20513600  0.83404000  0.55753800  1
  H  H39  1  0.79486400  0.33404000  0.94246200  1
  H  H40  1  0.20513600  0.66596000  0.05753800  1
  H  H41  1  0.79486400  0.16596000  0.44246200  1
  S  S42  1  0.74268000  0.86047500  0.40484900  1
  S  S43  1  0.25732000  0.36047500  0.09515100  1
  S  S44  1  0.25732000  0.13952500  0.59515100  1
  S  S45  1  0.74268000  0.63952500  0.90484900  1
  N  N46  1  0.36110000  0.85115200  0.63157700  1
  N  N47  1  0.63890000  0.35115200  0.86842300  1
  N  N48  1  0.63890000  0.14884800  0.36842300  1
  N  N49  1  0.36110000  0.64884800  0.13157700  1
  O  O50  1  0.16843800  0.89440800  0.16982600  1
  O  O51  1  0.70271700  0.93029100  0.00311600  1
  O  O52  1  0.70271700  0.56970900  0.50311600  1
  O  O53  1  0.29728300  0.06970900  0.99688400  1
  O  O54  1  0.02980600  0.61051500  0.33869200  1
  O  O55  1  0.97019400  0.11051500  0.16130800  1
  O  O56  1  0.97019400  0.38948500  0.66130800  1
  O  O57  1  0.02980600  0.88948500  0.83869200  1
  O  O58  1  0.16843800  0.60559200  0.66982600  1
  O  O59  1  0.83156200  0.10559200  0.83017400  1
  O  O60  1  0.83156200  0.39440800  0.33017400  1
  O  O61  1  0.29728300  0.43029100  0.49688400  1
  O  O62  1  0.95709300  0.67817800  0.88255300  1
  O  O63  1  0.04290700  0.17817800  0.61744700  1
  O  O64  1  0.04290700  0.32182200  0.11744700  1
  O  O65  1  0.58990900  0.76898300  0.40239300  1
  O  O66  1  0.62614900  0.56649000  0.77918500  1
  O  O67  1  0.37385100  0.06649000  0.72081500  1
  O  O68  1  0.37385100  0.43351000  0.22081500  1
  O  O69  1  0.62614900  0.93351000  0.27918500  1
  O  O70  1  0.78721300  0.58233200  0.04809400  1
  O  O71  1  0.21278700  0.08233200  0.45190600  1
  O  O72  1  0.21278700  0.41766800  0.95190600  1
  O  O73  1  0.78721300  0.91766800  0.54809400  1
  O  O74  1  0.58990900  0.73101700  0.90239300  1
  O  O75  1  0.41009100  0.23101700  0.59760700  1
  O  O76  1  0.41009100  0.26898300  0.09760700  1
  O  O77  1  0.95709300  0.82182200  0.38255300  1
