# generated using pymatgen
data_LiNb(PO3)4
_symmetry_space_group_name_H-M   'P 1'
_cell_length_a   12.14717200
_cell_length_b   8.47137200
_cell_length_c   10.22509347
_cell_angle_alpha   90.00000000
_cell_angle_beta   119.29589863
_cell_angle_gamma   90.00000000
_symmetry_Int_Tables_number   1
_chemical_formula_structural   LiNb(PO3)4
_chemical_formula_sum   'Li4 Nb4 P16 O48'
_cell_volume   917.62375850
_cell_formula_units_Z   4
loop_
 _symmetry_equiv_pos_site_id
 _symmetry_equiv_pos_as_xyz
  1  'x, y, z'
loop_
 _atom_site_type_symbol
 _atom_site_label
 _atom_site_symmetry_multiplicity
 _atom_site_fract_x
 _atom_site_fract_y
 _atom_site_fract_z
 _atom_site_occupancy
  Li  Li0  1  0.25000000  0.25000000  0.50000000  1
  Li  Li1  1  0.25000000  0.75000000  0.00000000  1
  Li  Li2  1  0.75000000  0.75000000  0.50000000  1
  Li  Li3  1  0.75000000  0.25000000  0.00000000  1
  Nb  Nb4  1  0.50000000  0.55658700  0.25000000  1
  Nb  Nb5  1  0.00000000  0.94341300  0.75000000  1
  Nb  Nb6  1  0.00000000  0.05658700  0.25000000  1
  Nb  Nb7  1  0.50000000  0.44341300  0.75000000  1
  P  P8  1  0.99104450  0.73252150  0.02273400  1
  P  P9  1  0.50895550  0.76747850  0.97726600  1
  P  P10  1  0.30288250  0.99233550  0.30132000  1
  P  P11  1  0.30288250  0.00766450  0.80132000  1
  P  P12  1  0.19711750  0.49233550  0.19868000  1
  P  P13  1  0.49104450  0.76747850  0.52273400  1
  P  P14  1  0.00895550  0.73252150  0.47726600  1
  P  P15  1  0.19711750  0.50766450  0.69868000  1
  P  P16  1  0.49104450  0.23252150  0.02273400  1
  P  P17  1  0.00895550  0.26747850  0.97726600  1
  P  P18  1  0.80288250  0.49233550  0.30132000  1
  P  P19  1  0.80288250  0.50766450  0.80132000  1
  P  P20  1  0.69711750  0.99233550  0.19868000  1
  P  P21  1  0.99104450  0.26747850  0.52273400  1
  P  P22  1  0.50895550  0.23252150  0.47726600  1
  P  P23  1  0.69711750  0.00766450  0.69868000  1
  O  O24  1  0.13764750  0.36347850  0.06267500  1
  O  O25  1  0.29642700  0.42252300  0.67571000  1
  O  O26  1  0.13764750  0.63652150  0.56267500  1
  O  O27  1  0.54535250  0.73648650  0.41840800  1
  O  O28  1  0.03380700  0.87183600  0.40566200  1
  O  O29  1  0.95464750  0.23648650  0.08159200  1
  O  O30  1  0.95464750  0.76351350  0.58159200  1
  O  O31  1  0.96619300  0.87183600  0.09433800  1
  O  O32  1  0.08016000  0.61361900  0.15246500  1
  O  O33  1  0.20357300  0.92252300  0.82429000  1
  O  O34  1  0.29642700  0.57747700  0.17571000  1
  O  O35  1  0.36235250  0.13652150  0.93732500  1
  O  O36  1  0.27113500  0.07846100  0.65571000  1
  O  O37  1  0.46619300  0.62816400  0.59433800  1
  O  O38  1  0.58016000  0.88638100  0.65246500  1
  O  O39  1  0.91984000  0.61361900  0.34753500  1
  O  O40  1  0.77113500  0.42153900  0.15571000  1
  O  O41  1  0.72886500  0.07846100  0.84429000  1
  O  O42  1  0.36235250  0.86347850  0.43732500  1
  O  O43  1  0.22886500  0.42153900  0.34429000  1
  O  O44  1  0.54535250  0.26351350  0.91840800  1
  O  O45  1  0.20357300  0.07747700  0.32429000  1
  O  O46  1  0.41984000  0.88638100  0.84753500  1
  O  O47  1  0.53380700  0.62816400  0.90566200  1
  O  O48  1  0.63764750  0.86347850  0.06267500  1
  O  O49  1  0.79642700  0.92252300  0.67571000  1
  O  O50  1  0.63764750  0.13652150  0.56267500  1
  O  O51  1  0.04535250  0.23648650  0.41840800  1
  O  O52  1  0.53380700  0.37183600  0.40566200  1
  O  O53  1  0.45464750  0.73648650  0.08159200  1
  O  O54  1  0.45464750  0.26351350  0.58159200  1
  O  O55  1  0.46619300  0.37183600  0.09433800  1
  O  O56  1  0.58016000  0.11361900  0.15246500  1
  O  O57  1  0.70357300  0.42252300  0.82429000  1
  O  O58  1  0.79642700  0.07747700  0.17571000  1
  O  O59  1  0.86235250  0.63652150  0.93732500  1
  O  O60  1  0.77113500  0.57846100  0.65571000  1
  O  O61  1  0.96619300  0.12816400  0.59433800  1
  O  O62  1  0.08016000  0.38638100  0.65246500  1
  O  O63  1  0.41984000  0.11361900  0.34753500  1
  O  O64  1  0.27113500  0.92153900  0.15571000  1
  O  O65  1  0.22886500  0.57846100  0.84429000  1
  O  O66  1  0.86235250  0.36347850  0.43732500  1
  O  O67  1  0.72886500  0.92153900  0.34429000  1
  O  O68  1  0.04535250  0.76351350  0.91840800  1
  O  O69  1  0.70357300  0.57747700  0.32429000  1
  O  O70  1  0.91984000  0.38638100  0.84753500  1
  O  O71  1  0.03380700  0.12816400  0.90566200  1
