# generated using pymatgen
data_WBr2
_symmetry_space_group_name_H-M   'P 1'
_cell_length_a   12.11769600
_cell_length_b   16.02889200
_cell_length_c   12.12242600
_cell_angle_alpha   90.00000000
_cell_angle_beta   90.00000000
_cell_angle_gamma   90.00000000
_symmetry_Int_Tables_number   1
_chemical_formula_structural   WBr2
_chemical_formula_sum   'W24 Br48'
_cell_volume   2354.57808437
_cell_formula_units_Z   24
loop_
 _symmetry_equiv_pos_site_id
 _symmetry_equiv_pos_as_xyz
  1  'x, y, z'
loop_
 _atom_site_type_symbol
 _atom_site_label
 _atom_site_symmetry_multiplicity
 _atom_site_fract_x
 _atom_site_fract_y
 _atom_site_fract_z
 _atom_site_occupancy
  W  W0  1  0.06975200  0.00000000  0.86191200  1
  W  W1  1  0.43024800  0.00000000  0.36191200  1
  W  W2  1  0.56975200  0.00000000  0.63808800  1
  W  W3  1  0.93024800  0.00000000  0.13808800  1
  W  W4  1  0.86184700  0.00000000  0.93034000  1
  W  W5  1  0.63815300  0.00000000  0.43034000  1
  W  W6  1  0.36184700  0.00000000  0.56966000  1
  W  W7  1  0.13815300  0.00000000  0.06966000  1
  W  W8  1  0.50000000  0.88266500  0.50000000  1
  W  W9  1  0.50000000  0.61733500  0.00000000  1
  W  W10  1  0.50000000  0.11733500  0.50000000  1
  W  W11  1  0.50000000  0.38266500  0.00000000  1
  W  W12  1  0.56975200  0.50000000  0.86191200  1
  W  W13  1  0.93024800  0.50000000  0.36191200  1
  W  W14  1  0.06975200  0.50000000  0.63808800  1
  W  W15  1  0.43024800  0.50000000  0.13808800  1
  W  W16  1  0.36184700  0.50000000  0.93034000  1
  W  W17  1  0.13815300  0.50000000  0.43034000  1
  W  W18  1  0.86184700  0.50000000  0.56966000  1
  W  W19  1  0.63815300  0.50000000  0.06966000  1
  W  W20  1  0.00000000  0.38266500  0.50000000  1
  W  W21  1  0.00000000  0.11733500  0.00000000  1
  W  W22  1  0.00000000  0.61733500  0.50000000  1
  W  W23  1  0.00000000  0.88266500  0.00000000  1
  Br  Br24  1  0.65589000  0.00000000  0.84415700  1
  Br  Br25  1  0.84411000  0.00000000  0.34415700  1
  Br  Br26  1  0.15589000  0.00000000  0.65584300  1
  Br  Br27  1  0.34411000  0.00000000  0.15584300  1
  Br  Br28  1  0.50000000  0.72170000  0.50000000  1
  Br  Br29  1  0.50000000  0.77830000  0.00000000  1
  Br  Br30  1  0.50000000  0.27830000  0.50000000  1
  Br  Br31  1  0.50000000  0.22170000  0.00000000  1
  Br  Br32  1  0.20830100  0.11636700  0.93091100  1
  Br  Br33  1  0.29169900  0.88363300  0.43091100  1
  Br  Br34  1  0.70830100  0.88363300  0.56908900  1
  Br  Br35  1  0.79169900  0.11636700  0.06908900  1
  Br  Br36  1  0.56910850  0.38365150  0.20817800  1
  Br  Br37  1  0.43089150  0.11634850  0.70817800  1
  Br  Br38  1  0.56910850  0.11634850  0.29182200  1
  Br  Br39  1  0.43089150  0.38365150  0.79182200  1
  Br  Br40  1  0.43089150  0.61634850  0.79182200  1
  Br  Br41  1  0.56910850  0.88365150  0.29182200  1
  Br  Br42  1  0.43089150  0.88365150  0.70817800  1
  Br  Br43  1  0.56910850  0.61634850  0.20817800  1
  Br  Br44  1  0.20830100  0.88363300  0.93091100  1
  Br  Br45  1  0.29169900  0.11636700  0.43091100  1
  Br  Br46  1  0.70830100  0.11636700  0.56908900  1
  Br  Br47  1  0.79169900  0.88363300  0.06908900  1
  Br  Br48  1  0.15589000  0.50000000  0.84415700  1
  Br  Br49  1  0.34411000  0.50000000  0.34415700  1
  Br  Br50  1  0.65589000  0.50000000  0.65584300  1
  Br  Br51  1  0.84411000  0.50000000  0.15584300  1
  Br  Br52  1  0.00000000  0.22170000  0.50000000  1
  Br  Br53  1  0.00000000  0.27830000  0.00000000  1
  Br  Br54  1  0.00000000  0.77830000  0.50000000  1
  Br  Br55  1  0.00000000  0.72170000  0.00000000  1
  Br  Br56  1  0.70830100  0.61636700  0.93091100  1
  Br  Br57  1  0.79169900  0.38363300  0.43091100  1
  Br  Br58  1  0.20830100  0.38363300  0.56908900  1
  Br  Br59  1  0.29169900  0.61636700  0.06908900  1
  Br  Br60  1  0.06910850  0.88365150  0.20817800  1
  Br  Br61  1  0.93089150  0.61634850  0.70817800  1
  Br  Br62  1  0.06910850  0.61634850  0.29182200  1
  Br  Br63  1  0.93089150  0.88365150  0.79182200  1
  Br  Br64  1  0.93089150  0.11634850  0.79182200  1
  Br  Br65  1  0.06910850  0.38365150  0.29182200  1
  Br  Br66  1  0.93089150  0.38365150  0.70817800  1
  Br  Br67  1  0.06910850  0.11634850  0.20817800  1
  Br  Br68  1  0.70830100  0.38363300  0.93091100  1
  Br  Br69  1  0.79169900  0.61636700  0.43091100  1
  Br  Br70  1  0.20830100  0.61636700  0.56908900  1
  Br  Br71  1  0.29169900  0.38363300  0.06908900  1
