# generated using pymatgen
data_LaSO
_symmetry_space_group_name_H-M   'P 1'
_cell_length_a   5.95045600
_cell_length_b   13.32314600
_cell_length_c   5.94540000
_cell_angle_alpha   90.00000000
_cell_angle_beta   90.00000000
_cell_angle_gamma   90.00000000
_symmetry_Int_Tables_number   1
_chemical_formula_structural   LaSO
_chemical_formula_sum   'La8 S8 O8'
_cell_volume   471.34414217
_cell_formula_units_Z   8
loop_
 _symmetry_equiv_pos_site_id
 _symmetry_equiv_pos_as_xyz
  1  'x, y, z'
loop_
 _atom_site_type_symbol
 _atom_site_label
 _atom_site_symmetry_multiplicity
 _atom_site_fract_x
 _atom_site_fract_y
 _atom_site_fract_z
 _atom_site_occupancy
  La  La0  1  0.50000000  0.33891900  0.50000000  1
  La  La1  1  0.50000000  0.16108100  0.00000000  1
  La  La2  1  0.00000000  0.16108100  0.50000000  1
  La  La3  1  0.00000000  0.33891900  0.00000000  1
  La  La4  1  0.00000000  0.83891900  0.50000000  1
  La  La5  1  0.00000000  0.66108100  0.00000000  1
  La  La6  1  0.50000000  0.66108100  0.50000000  1
  La  La7  1  0.50000000  0.83891900  0.00000000  1
  S  S8  1  0.37474800  0.00000000  0.62556000  1
  S  S9  1  0.12525200  0.00000000  0.12556000  1
  S  S10  1  0.87474800  0.00000000  0.87444000  1
  S  S11  1  0.62525200  0.00000000  0.37444000  1
  S  S12  1  0.87474800  0.50000000  0.62556000  1
  S  S13  1  0.62525200  0.50000000  0.12556000  1
  S  S14  1  0.37474800  0.50000000  0.87444000  1
  S  S15  1  0.12525200  0.50000000  0.37444000  1
  O  O16  1  0.74456300  0.25000000  0.75000000  1
  O  O17  1  0.25543700  0.25000000  0.25000000  1
  O  O18  1  0.75543700  0.25000000  0.25000000  1
  O  O19  1  0.24456300  0.25000000  0.75000000  1
  O  O20  1  0.24456300  0.75000000  0.75000000  1
  O  O21  1  0.75543700  0.75000000  0.25000000  1
  O  O22  1  0.25543700  0.75000000  0.25000000  1
  O  O23  1  0.74456300  0.75000000  0.75000000  1
