# generated using pymatgen
data_Be4TeO7
_symmetry_space_group_name_H-M   'P 1'
_cell_length_a   7.65321200
_cell_length_b   7.65321200
_cell_length_c   7.65321200
_cell_angle_alpha   90.00000000
_cell_angle_beta   90.00000000
_cell_angle_gamma   90.00000000
_symmetry_Int_Tables_number   1
_chemical_formula_structural   Be4TeO7
_chemical_formula_sum   'Be16 Te4 O28'
_cell_volume   448.26128462
_cell_formula_units_Z   4
loop_
 _symmetry_equiv_pos_site_id
 _symmetry_equiv_pos_as_xyz
  1  'x, y, z'
loop_
 _atom_site_type_symbol
 _atom_site_label
 _atom_site_symmetry_multiplicity
 _atom_site_fract_x
 _atom_site_fract_y
 _atom_site_fract_z
 _atom_site_occupancy
  Be  Be0  1  0.12719200  0.37280800  0.12719200  1
  Be  Be1  1  0.87280800  0.37280800  0.87280800  1
  Be  Be2  1  0.62719200  0.12719200  0.87280800  1
  Be  Be3  1  0.37280800  0.12719200  0.12719200  1
  Be  Be4  1  0.12719200  0.87280800  0.62719200  1
  Be  Be5  1  0.87280800  0.87280800  0.37280800  1
  Be  Be6  1  0.62719200  0.62719200  0.37280800  1
  Be  Be7  1  0.37280800  0.62719200  0.62719200  1
  Be  Be8  1  0.62719200  0.37280800  0.62719200  1
  Be  Be9  1  0.37280800  0.37280800  0.37280800  1
  Be  Be10  1  0.12719200  0.12719200  0.37280800  1
  Be  Be11  1  0.87280800  0.12719200  0.62719200  1
  Be  Be12  1  0.62719200  0.87280800  0.12719200  1
  Be  Be13  1  0.37280800  0.87280800  0.87280800  1
  Be  Be14  1  0.12719200  0.62719200  0.87280800  1
  Be  Be15  1  0.87280800  0.62719200  0.12719200  1
  Te  Te16  1  0.00000000  0.00000000  0.00000000  1
  Te  Te17  1  0.00000000  0.50000000  0.50000000  1
  Te  Te18  1  0.50000000  0.00000000  0.50000000  1
  Te  Te19  1  0.50000000  0.50000000  0.00000000  1
  O  O20  1  0.25000000  0.25000000  0.25000000  1
  O  O21  1  0.50000000  0.00000000  0.75427900  1
  O  O22  1  0.25427900  0.00000000  0.00000000  1
  O  O23  1  0.74572100  0.00000000  0.00000000  1
  O  O24  1  0.50000000  0.00000000  0.24572100  1
  O  O25  1  0.50000000  0.24572100  0.00000000  1
  O  O26  1  0.00000000  0.25427900  0.00000000  1
  O  O27  1  0.25000000  0.75000000  0.75000000  1
  O  O28  1  0.50000000  0.50000000  0.25427900  1
  O  O29  1  0.25427900  0.50000000  0.50000000  1
  O  O30  1  0.74572100  0.50000000  0.50000000  1
  O  O31  1  0.50000000  0.50000000  0.74572100  1
  O  O32  1  0.50000000  0.74572100  0.50000000  1
  O  O33  1  0.00000000  0.75427900  0.50000000  1
  O  O34  1  0.75000000  0.25000000  0.75000000  1
  O  O35  1  0.00000000  0.00000000  0.25427900  1
  O  O36  1  0.75427900  0.00000000  0.50000000  1
  O  O37  1  0.24572100  0.00000000  0.50000000  1
  O  O38  1  0.00000000  0.00000000  0.74572100  1
  O  O39  1  0.00000000  0.24572100  0.50000000  1
  O  O40  1  0.50000000  0.25427900  0.50000000  1
  O  O41  1  0.75000000  0.75000000  0.25000000  1
  O  O42  1  0.00000000  0.50000000  0.75427900  1
  O  O43  1  0.75427900  0.50000000  0.00000000  1
  O  O44  1  0.24572100  0.50000000  0.00000000  1
  O  O45  1  0.00000000  0.50000000  0.24572100  1
  O  O46  1  0.00000000  0.74572100  0.00000000  1
  O  O47  1  0.50000000  0.75427900  0.00000000  1
