# generated using pymatgen
data_RbIO4
_symmetry_space_group_name_H-M   'P 1'
_cell_length_a   6.05308400
_cell_length_b   6.05308400
_cell_length_c   13.35739400
_cell_angle_alpha   90.00000000
_cell_angle_beta   90.00000000
_cell_angle_gamma   90.00000000
_symmetry_Int_Tables_number   1
_chemical_formula_structural   RbIO4
_chemical_formula_sum   'Rb4 I4 O16'
_cell_volume   489.41259079
_cell_formula_units_Z   4
loop_
 _symmetry_equiv_pos_site_id
 _symmetry_equiv_pos_as_xyz
  1  'x, y, z'
loop_
 _atom_site_type_symbol
 _atom_site_label
 _atom_site_symmetry_multiplicity
 _atom_site_fract_x
 _atom_site_fract_y
 _atom_site_fract_z
 _atom_site_occupancy
  Rb  Rb0  1  0.00000000  0.50000000  0.25000000  1
  Rb  Rb1  1  0.00000000  0.00000000  0.00000000  1
  Rb  Rb2  1  0.50000000  0.00000000  0.75000000  1
  Rb  Rb3  1  0.50000000  0.50000000  0.50000000  1
  I  I4  1  0.50000000  0.00000000  0.25000000  1
  I  I5  1  0.50000000  0.50000000  0.00000000  1
  I  I6  1  0.00000000  0.50000000  0.75000000  1
  I  I7  1  0.00000000  0.00000000  0.50000000  1
  O  O8  1  0.28614450  0.12046950  0.17410850  1
  O  O9  1  0.12046950  0.21385550  0.42410850  1
  O  O10  1  0.87953050  0.78614450  0.42410850  1
  O  O11  1  0.71385550  0.87953050  0.17410850  1
  O  O12  1  0.28614450  0.62046950  0.07589150  1
  O  O13  1  0.62046950  0.21385550  0.32589150  1
  O  O14  1  0.37953050  0.78614450  0.32589150  1
  O  O15  1  0.71385550  0.37953050  0.07589150  1
  O  O16  1  0.78614450  0.62046950  0.67410850  1
  O  O17  1  0.62046950  0.71385550  0.92410850  1
  O  O18  1  0.37953050  0.28614450  0.92410850  1
  O  O19  1  0.21385550  0.37953050  0.67410850  1
  O  O20  1  0.78614450  0.12046950  0.57589150  1
  O  O21  1  0.12046950  0.71385550  0.82589150  1
  O  O22  1  0.87953050  0.28614450  0.82589150  1
  O  O23  1  0.21385550  0.87953050  0.57589150  1
