# generated using pymatgen
data_BAsPbO5
_symmetry_space_group_name_H-M   'P 1'
_cell_length_a   7.26578801
_cell_length_b   7.26578801
_cell_length_c   7.01246800
_cell_angle_alpha   90.00000000
_cell_angle_beta   90.00000000
_cell_angle_gamma   120.00000000
_symmetry_Int_Tables_number   1
_chemical_formula_structural   BAsPbO5
_chemical_formula_sum   'B3 As3 Pb3 O15'
_cell_volume   320.60254786
_cell_formula_units_Z   3
loop_
 _symmetry_equiv_pos_site_id
 _symmetry_equiv_pos_as_xyz
  1  'x, y, z'
loop_
 _atom_site_type_symbol
 _atom_site_label
 _atom_site_symmetry_multiplicity
 _atom_site_fract_x
 _atom_site_fract_y
 _atom_site_fract_z
 _atom_site_occupancy
  B  B0  1  0.10555400  0.09339000  0.56640400  1
  B  B1  1  0.98783600  0.89444600  0.23307067  1
  B  B2  1  0.90661000  0.01216400  0.89973733  1
  As  As3  1  0.00176300  0.40509200  0.71121000  1
  As  As4  1  0.40332900  0.99823700  0.37787667  1
  As  As5  1  0.59490800  0.59667100  0.04454333  1
  Pb  Pb6  1  0.39603200  0.99836400  0.87756000  1
  Pb  Pb7  1  0.60233200  0.60396800  0.54422667  1
  Pb  Pb8  1  0.00163600  0.39766800  0.21089333  1
  O  O9  1  0.99356100  0.04296000  0.09149500  1
  O  O10  1  0.95704000  0.95060100  0.42482833  1
  O  O11  1  0.04939900  0.00643900  0.75816167  1
  O  O12  1  0.15663800  0.59113100  0.87359800  1
  O  O13  1  0.43449300  0.84336200  0.54026467  1
  O  O14  1  0.40886900  0.56550700  0.20693133  1
  O  O15  1  0.81765800  0.66447600  0.19128500  1
  O  O16  1  0.33552400  0.15318200  0.52461833  1
  O  O17  1  0.84681800  0.18234200  0.85795167  1
  O  O18  1  0.53925500  0.39829400  0.88948400  1
  O  O19  1  0.60170600  0.14096100  0.22281733  1
  O  O20  1  0.85903900  0.46074500  0.55615067  1
  O  O21  1  0.68211900  0.81644900  0.88933000  1
  O  O22  1  0.18355100  0.86567000  0.22266333  1
  O  O23  1  0.13433000  0.31788100  0.55599667  1
