# generated using pymatgen
data_Rb4PbBr6
_symmetry_space_group_name_H-M   'P 1'
_cell_length_a   13.62398819
_cell_length_b   13.62398819
_cell_length_c   16.80503777
_cell_angle_alpha   90.00000000
_cell_angle_beta   90.00000000
_cell_angle_gamma   120.00000000
_symmetry_Int_Tables_number   1
_chemical_formula_structural   Rb4PbBr6
_chemical_formula_sum   'Rb24 Pb6 Br36'
_cell_volume   2701.33621907
_cell_formula_units_Z   6
loop_
 _symmetry_equiv_pos_site_id
 _symmetry_equiv_pos_as_xyz
  1  'x, y, z'
loop_
 _atom_site_type_symbol
 _atom_site_label
 _atom_site_symmetry_multiplicity
 _atom_site_fract_x
 _atom_site_fract_y
 _atom_site_fract_z
 _atom_site_occupancy
  Rb  Rb0  1  0.33333333  0.66666667  0.91666667  1
  Rb  Rb1  1  0.33333333  0.66666667  0.41666667  1
  Rb  Rb2  1  0.04594567  0.33333333  0.08333333  1
  Rb  Rb3  1  0.66666667  0.71261233  0.08333333  1
  Rb  Rb4  1  0.28738767  0.95405433  0.08333333  1
  Rb  Rb5  1  0.62072100  0.00000000  0.25000000  1
  Rb  Rb6  1  0.00000000  0.62072100  0.25000000  1
  Rb  Rb7  1  0.37927900  0.37927900  0.25000000  1
  Rb  Rb8  1  0.00000000  0.00000000  0.25000000  1
  Rb  Rb9  1  0.00000000  0.00000000  0.75000000  1
  Rb  Rb10  1  0.71261233  0.66666667  0.41666667  1
  Rb  Rb11  1  0.33333333  0.04594567  0.41666667  1
  Rb  Rb12  1  0.95405433  0.28738767  0.41666667  1
  Rb  Rb13  1  0.28738767  0.33333333  0.58333333  1
  Rb  Rb14  1  0.66666667  0.95405433  0.58333333  1
  Rb  Rb15  1  0.04594567  0.71261233  0.58333333  1
  Rb  Rb16  1  0.66666667  0.33333333  0.58333333  1
  Rb  Rb17  1  0.66666667  0.33333333  0.08333333  1
  Rb  Rb18  1  0.37927900  0.00000000  0.75000000  1
  Rb  Rb19  1  0.00000000  0.37927900  0.75000000  1
  Rb  Rb20  1  0.62072100  0.62072100  0.75000000  1
  Rb  Rb21  1  0.95405433  0.66666667  0.91666667  1
  Rb  Rb22  1  0.33333333  0.28738767  0.91666667  1
  Rb  Rb23  1  0.71261233  0.04594567  0.91666667  1
  Pb  Pb24  1  0.00000000  0.00000000  0.00000000  1
  Pb  Pb25  1  0.33333333  0.66666667  0.16666667  1
  Pb  Pb26  1  0.66666667  0.33333333  0.33333333  1
  Pb  Pb27  1  0.00000000  0.00000000  0.50000000  1
  Pb  Pb28  1  0.33333333  0.66666667  0.66666667  1
  Pb  Pb29  1  0.66666667  0.33333333  0.83333333  1
  Br  Br30  1  0.30091233  0.83058567  0.27221767  1
  Br  Br31  1  0.16941433  0.47032667  0.27221767  1
  Br  Br32  1  0.52967333  0.69908767  0.27221767  1
  Br  Br33  1  0.47032667  0.16941433  0.22778233  1
  Br  Br34  1  0.83058567  0.30091233  0.22778233  1
  Br  Br35  1  0.69908767  0.52967333  0.22778233  1
  Br  Br36  1  0.36575433  0.50274767  0.06111567  1
  Br  Br37  1  0.49725233  0.86300667  0.06111567  1
  Br  Br38  1  0.13699333  0.63424567  0.06111567  1
  Br  Br39  1  0.19634000  0.16391900  0.10555100  1
  Br  Br40  1  0.96757900  0.80366000  0.10555100  1
  Br  Br41  1  0.83608100  0.03242100  0.10555100  1
  Br  Br42  1  0.96757900  0.16391900  0.60555100  1
  Br  Br43  1  0.83608100  0.80366000  0.60555100  1
  Br  Br44  1  0.19634000  0.03242100  0.60555100  1
  Br  Br45  1  0.13699333  0.50274767  0.56111567  1
  Br  Br46  1  0.49725233  0.63424567  0.56111567  1
  Br  Br47  1  0.36575433  0.86300667  0.56111567  1
  Br  Br48  1  0.03242100  0.83608100  0.39444900  1
  Br  Br49  1  0.16391900  0.19634000  0.39444900  1
  Br  Br50  1  0.80366000  0.96757900  0.39444900  1
  Br  Br51  1  0.86300667  0.49725233  0.43888433  1
  Br  Br52  1  0.63424567  0.13699333  0.43888433  1
  Br  Br53  1  0.50274767  0.36575433  0.43888433  1
  Br  Br54  1  0.63424567  0.49725233  0.93888433  1
  Br  Br55  1  0.50274767  0.13699333  0.93888433  1
  Br  Br56  1  0.86300667  0.36575433  0.93888433  1
  Br  Br57  1  0.80366000  0.83608100  0.89444900  1
  Br  Br58  1  0.16391900  0.96757900  0.89444900  1
  Br  Br59  1  0.03242100  0.19634000  0.89444900  1
  Br  Br60  1  0.69908767  0.16941433  0.72778233  1
  Br  Br61  1  0.83058567  0.52967333  0.72778233  1
  Br  Br62  1  0.47032667  0.30091233  0.72778233  1
  Br  Br63  1  0.52967333  0.83058567  0.77221767  1
  Br  Br64  1  0.30091233  0.47032667  0.77221767  1
  Br  Br65  1  0.16941433  0.69908767  0.77221767  1
