# generated using pymatgen
data_NaBiO3
_symmetry_space_group_name_H-M   'P 1'
_cell_length_a   5.68224008
_cell_length_b   5.68224008
_cell_length_c   16.31456798
_cell_angle_alpha   90.00000000
_cell_angle_beta   90.00000000
_cell_angle_gamma   120.00000000
_symmetry_Int_Tables_number   1
_chemical_formula_structural   NaBiO3
_chemical_formula_sum   'Na6 Bi6 O18'
_cell_volume   456.18958711
_cell_formula_units_Z   6
loop_
 _symmetry_equiv_pos_site_id
 _symmetry_equiv_pos_as_xyz
  1  'x, y, z'
loop_
 _atom_site_type_symbol
 _atom_site_label
 _atom_site_symmetry_multiplicity
 _atom_site_fract_x
 _atom_site_fract_y
 _atom_site_fract_z
 _atom_site_occupancy
  Na  Na0  1  0.66666667  0.33333333  0.19534833  1
  Na  Na1  1  0.00000000  0.00000000  0.13798500  1
  Na  Na2  1  0.33333333  0.66666667  0.52868167  1
  Na  Na3  1  0.66666667  0.33333333  0.47131833  1
  Na  Na4  1  0.00000000  0.00000000  0.86201500  1
  Na  Na5  1  0.33333333  0.66666667  0.80465167  1
  Bi  Bi6  1  0.33333333  0.66666667  0.32401567  1
  Bi  Bi7  1  0.33333333  0.66666667  0.00931767  1
  Bi  Bi8  1  0.00000000  0.00000000  0.65734900  1
  Bi  Bi9  1  0.00000000  0.00000000  0.34265100  1
  Bi  Bi10  1  0.66666667  0.33333333  0.99068233  1
  Bi  Bi11  1  0.66666667  0.33333333  0.67598433  1
  O  O12  1  0.68364567  0.72066633  0.25874733  1
  O  O13  1  0.03702067  0.31635433  0.25874733  1
  O  O14  1  0.27933367  0.96297933  0.25874733  1
  O  O15  1  0.98302100  0.61266700  0.07458600  1
  O  O16  1  0.38733300  0.37035400  0.07458600  1
  O  O17  1  0.62964600  0.01697900  0.07458600  1
  O  O18  1  0.35031233  0.05399967  0.59208067  1
  O  O19  1  0.70368733  0.64968767  0.59208067  1
  O  O20  1  0.94600033  0.29631267  0.59208067  1
  O  O21  1  0.64968767  0.94600033  0.40791933  1
  O  O22  1  0.05399967  0.70368733  0.40791933  1
  O  O23  1  0.29631267  0.35031233  0.40791933  1
  O  O24  1  0.01697900  0.38733300  0.92541400  1
  O  O25  1  0.37035400  0.98302100  0.92541400  1
  O  O26  1  0.61266700  0.62964600  0.92541400  1
  O  O27  1  0.31635433  0.27933367  0.74125267  1
  O  O28  1  0.72066633  0.03702067  0.74125267  1
  O  O29  1  0.96297933  0.68364567  0.74125267  1
