# generated using pymatgen
data_KSc2F7
_symmetry_space_group_name_H-M   'P 1'
_cell_length_a   6.60585800
_cell_length_b   10.77317400
_cell_length_c   4.08483400
_cell_angle_alpha   90.00000000
_cell_angle_beta   90.00000000
_cell_angle_gamma   90.00000000
_symmetry_Int_Tables_number   1
_chemical_formula_structural   KSc2F7
_chemical_formula_sum   'K2 Sc4 F14'
_cell_volume   290.70153195
_cell_formula_units_Z   2
loop_
 _symmetry_equiv_pos_site_id
 _symmetry_equiv_pos_as_xyz
  1  'x, y, z'
loop_
 _atom_site_type_symbol
 _atom_site_label
 _atom_site_symmetry_multiplicity
 _atom_site_fract_x
 _atom_site_fract_y
 _atom_site_fract_z
 _atom_site_occupancy
  K  K0  1  0.00000000  0.00000000  0.00000000  1
  K  K1  1  0.50000000  0.50000000  0.00000000  1
  Sc  Sc2  1  0.50000000  0.19249100  0.50000000  1
  Sc  Sc3  1  0.50000000  0.80750900  0.50000000  1
  Sc  Sc4  1  0.00000000  0.69249100  0.50000000  1
  Sc  Sc5  1  0.00000000  0.30750900  0.50000000  1
  F  F6  1  0.50000000  0.00000000  0.50000000  1
  F  F7  1  0.18926550  0.85456050  0.50000000  1
  F  F8  1  0.81073450  0.14543950  0.50000000  1
  F  F9  1  0.50000000  0.20110900  0.00000000  1
  F  F10  1  0.50000000  0.79889100  0.00000000  1
  F  F11  1  0.81073450  0.85456050  0.50000000  1
  F  F12  1  0.18926550  0.14543950  0.50000000  1
  F  F13  1  0.00000000  0.50000000  0.50000000  1
  F  F14  1  0.68926550  0.35456050  0.50000000  1
  F  F15  1  0.31073450  0.64543950  0.50000000  1
  F  F16  1  0.00000000  0.70110900  0.00000000  1
  F  F17  1  0.00000000  0.29889100  0.00000000  1
  F  F18  1  0.31073450  0.35456050  0.50000000  1
  F  F19  1  0.68926550  0.64543950  0.50000000  1
