# generated using pymatgen
data_K2ZnH12(SO7)2
_symmetry_space_group_name_H-M   'P 1'
_cell_length_a   6.25947100
_cell_length_b   12.30793800
_cell_length_c   9.05810486
_cell_angle_alpha   90.00000000
_cell_angle_beta   103.98821460
_cell_angle_gamma   90.00000000
_symmetry_Int_Tables_number   1
_chemical_formula_structural   K2ZnH12(SO7)2
_chemical_formula_sum   'K4 Zn2 H24 S4 O28'
_cell_volume   677.15276686
_cell_formula_units_Z   2
loop_
 _symmetry_equiv_pos_site_id
 _symmetry_equiv_pos_as_xyz
  1  'x, y, z'
loop_
 _atom_site_type_symbol
 _atom_site_label
 _atom_site_symmetry_multiplicity
 _atom_site_fract_x
 _atom_site_fract_y
 _atom_site_fract_z
 _atom_site_occupancy
  K  K0  1  0.34599300  0.83941400  0.63725200  1
  K  K1  1  0.65400700  0.33941400  0.86274800  1
  K  K2  1  0.65400700  0.16058600  0.36274800  1
  K  K3  1  0.34599300  0.66058600  0.13725200  1
  Zn  Zn4  1  0.00000000  0.50000000  0.50000000  1
  Zn  Zn5  1  0.00000000  0.00000000  0.00000000  1
  H  H6  1  0.32416100  0.35383000  0.52352500  1
  H  H7  1  0.67583900  0.85383000  0.97647500  1
  H  H8  1  0.67583900  0.64617000  0.47647500  1
  H  H9  1  0.32416100  0.14617000  0.02352500  1
  H  H10  1  0.33068500  0.43769800  0.38955400  1
  H  H11  1  0.66931500  0.93769800  0.11044600  1
  H  H12  1  0.92623500  0.60498900  0.22888800  1
  H  H13  1  0.07376500  0.10498900  0.27111200  1
  H  H14  1  0.07376500  0.39501100  0.77111200  1
  H  H15  1  0.92623500  0.89501100  0.72888800  1
  H  H16  1  0.09608400  0.61979200  0.75776500  1
  H  H17  1  0.90391600  0.11979200  0.74223500  1
  H  H18  1  0.90391600  0.38020800  0.24223500  1
  H  H19  1  0.09608400  0.88020800  0.25776500  1
  H  H20  1  0.32568400  0.58281200  0.72495100  1
  H  H21  1  0.67431600  0.08281200  0.77504900  1
  H  H22  1  0.67431600  0.41718800  0.27504900  1
  H  H23  1  0.32568400  0.91718800  0.22495100  1
  H  H24  1  0.00195700  0.19467800  0.14302600  1
  H  H25  1  0.99804300  0.69467800  0.35697400  1
  H  H26  1  0.33068500  0.06230200  0.88955400  1
  H  H27  1  0.66931500  0.56230200  0.61044600  1
  H  H28  1  0.00195700  0.30532200  0.64302600  1
  H  H29  1  0.99804300  0.80532200  0.85697400  1
  S  S30  1  0.27190700  0.13509300  0.58654200  1
  S  S31  1  0.72809300  0.86490700  0.41345800  1
  S  S32  1  0.27190700  0.36490700  0.08654200  1
  S  S33  1  0.72809300  0.63509300  0.91345800  1
  O  O34  1  0.82481200  0.39082700  0.32376800  1
  O  O35  1  0.82481200  0.10917300  0.82376800  1
  O  O36  1  0.03429500  0.87984700  0.82777800  1
  O  O37  1  0.96570500  0.37984700  0.67222200  1
  O  O38  1  0.96570500  0.12015300  0.17222200  1
  O  O39  1  0.03429500  0.62015300  0.32777800  1
  O  O40  1  0.29397600  0.06916200  0.99014900  1
  O  O41  1  0.17518800  0.89082700  0.17623200  1
  O  O42  1  0.70602400  0.93083800  0.00985100  1
  O  O43  1  0.29397600  0.43083800  0.49014900  1
  O  O44  1  0.95056200  0.66888400  0.89457700  1
  O  O45  1  0.04943800  0.16888400  0.60542300  1
  O  O46  1  0.04943800  0.33111600  0.10542300  1
  O  O47  1  0.95056200  0.83111600  0.39457700  1
  O  O48  1  0.62128400  0.55920500  0.78767700  1
  O  O49  1  0.37871600  0.05920500  0.71232300  1
  O  O50  1  0.37871600  0.44079500  0.21232300  1
  O  O51  1  0.62128400  0.94079500  0.28767700  1
  O  O52  1  0.74916600  0.57895400  0.06137600  1
  O  O53  1  0.25083400  0.07895400  0.43862400  1
  O  O54  1  0.25083400  0.42104600  0.93862400  1
  O  O55  1  0.74916600  0.92104600  0.56137600  1
  O  O56  1  0.70602400  0.56916200  0.50985100  1
  O  O57  1  0.41574200  0.23319500  0.59445600  1
  O  O58  1  0.41574200  0.26680500  0.09445600  1
  O  O59  1  0.58425800  0.76680500  0.40554400  1
  O  O60  1  0.17518800  0.60917300  0.67623200  1
  O  O61  1  0.58425800  0.73319500  0.90554400  1
