# generated using pymatgen
data_ZrI2
_symmetry_space_group_name_H-M   'P 1'
_cell_length_a   14.93316195
_cell_length_b   14.93316195
_cell_length_c   10.44111500
_cell_angle_alpha   90.00000000
_cell_angle_beta   90.00000000
_cell_angle_gamma   120.00000000
_symmetry_Int_Tables_number   1
_chemical_formula_structural   ZrI2
_chemical_formula_sum   'Zr18 I36'
_cell_volume   2016.42029906
_cell_formula_units_Z   18
loop_
 _symmetry_equiv_pos_site_id
 _symmetry_equiv_pos_as_xyz
  1  'x, y, z'
loop_
 _atom_site_type_symbol
 _atom_site_label
 _atom_site_symmetry_multiplicity
 _atom_site_fract_x
 _atom_site_fract_y
 _atom_site_fract_z
 _atom_site_occupancy
  Zr  Zr0  1  0.03929733  0.90055967  0.87129567  1
  Zr  Zr1  1  0.09944033  0.13873767  0.87129567  1
  Zr  Zr2  1  0.86126233  0.96070267  0.87129567  1
  Zr  Zr3  1  0.96070267  0.09944033  0.12870433  1
  Zr  Zr4  1  0.90055967  0.86126233  0.12870433  1
  Zr  Zr5  1  0.13873767  0.03929733  0.12870433  1
  Zr  Zr6  1  0.70596400  0.23389300  0.20462900  1
  Zr  Zr7  1  0.76610700  0.47207100  0.20462900  1
  Zr  Zr8  1  0.52792900  0.29403600  0.20462900  1
  Zr  Zr9  1  0.62736933  0.43277367  0.46203767  1
  Zr  Zr10  1  0.56722633  0.19459567  0.46203767  1
  Zr  Zr11  1  0.80540433  0.37263067  0.46203767  1
  Zr  Zr12  1  0.37263067  0.56722633  0.53796233  1
  Zr  Zr13  1  0.43277367  0.80540433  0.53796233  1
  Zr  Zr14  1  0.19459567  0.62736933  0.53796233  1
  Zr  Zr15  1  0.29403600  0.76610700  0.79537100  1
  Zr  Zr16  1  0.23389300  0.52792900  0.79537100  1
  Zr  Zr17  1  0.47207100  0.70596400  0.79537100  1
  I  I18  1  0.05022867  0.87558833  0.31665533  1
  I  I19  1  0.82535967  0.94977133  0.31665533  1
  I  I20  1  0.12441167  0.17464033  0.31665533  1
  I  I21  1  0.94977133  0.12441167  0.68334467  1
  I  I22  1  0.17464033  0.05022867  0.68334467  1
  I  I23  1  0.87558833  0.82535967  0.68334467  1
  I  I24  1  0.89155600  0.25557300  0.33121500  1
  I  I25  1  0.74442700  0.63598300  0.33121500  1
  I  I26  1  0.36401700  0.10844400  0.33121500  1
  I  I27  1  0.10844400  0.74442700  0.66878500  1
  I  I28  1  0.25557300  0.36401700  0.66878500  1
  I  I29  1  0.63598300  0.89155600  0.66878500  1
  I  I30  1  0.71689533  0.20892167  0.64998867  1
  I  I31  1  0.49202633  0.28310467  0.64998867  1
  I  I32  1  0.79107833  0.50797367  0.64998867  1
  I  I33  1  0.61643800  0.45774500  0.01667800  1
  I  I34  1  0.84130700  0.38356200  0.01667800  1
  I  I35  1  0.54225500  0.15869300  0.01667800  1
  I  I36  1  0.55822267  0.58890633  0.66454833  1
  I  I37  1  0.41109367  0.96931633  0.66454833  1
  I  I38  1  0.03068367  0.44177733  0.66454833  1
  I  I39  1  0.77511067  0.07776033  0.00211833  1
  I  I40  1  0.92223967  0.69735033  0.00211833  1
  I  I41  1  0.30264967  0.22488933  0.00211833  1
  I  I42  1  0.38356200  0.54225500  0.98332200  1
  I  I43  1  0.15869300  0.61643800  0.98332200  1
  I  I44  1  0.45774500  0.84130700  0.98332200  1
  I  I45  1  0.28310467  0.79107833  0.35001133  1
  I  I46  1  0.50797367  0.71689533  0.35001133  1
  I  I47  1  0.20892167  0.49202633  0.35001133  1
  I  I48  1  0.22488933  0.92223967  0.99788167  1
  I  I49  1  0.07776033  0.30264967  0.99788167  1
  I  I50  1  0.69735033  0.77511067  0.99788167  1
  I  I51  1  0.44177733  0.41109367  0.33545167  1
  I  I52  1  0.58890633  0.03068367  0.33545167  1
  I  I53  1  0.96931633  0.55822267  0.33545167  1
