# generated using pymatgen
data_CsSbClF3
_symmetry_space_group_name_H-M   'P 1'
_cell_length_a   9.95656200
_cell_length_b   9.95656200
_cell_length_c   12.06036200
_cell_angle_alpha   90.00000000
_cell_angle_beta   90.00000000
_cell_angle_gamma   90.00000000
_symmetry_Int_Tables_number   1
_chemical_formula_structural   CsSbClF3
_chemical_formula_sum   'Cs8 Sb8 Cl8 F24'
_cell_volume   1195.58139612
_cell_formula_units_Z   8
loop_
 _symmetry_equiv_pos_site_id
 _symmetry_equiv_pos_as_xyz
  1  'x, y, z'
loop_
 _atom_site_type_symbol
 _atom_site_label
 _atom_site_symmetry_multiplicity
 _atom_site_fract_x
 _atom_site_fract_y
 _atom_site_fract_z
 _atom_site_occupancy
  Cs  Cs0  1  0.00000000  0.00000000  0.69588700  1
  Cs  Cs1  1  0.00000000  0.50000000  0.25000000  1
  Cs  Cs2  1  0.50000000  0.00000000  0.25000000  1
  Cs  Cs3  1  0.00000000  0.00000000  0.30411300  1
  Cs  Cs4  1  0.50000000  0.50000000  0.19588700  1
  Cs  Cs5  1  0.50000000  0.00000000  0.75000000  1
  Cs  Cs6  1  0.00000000  0.50000000  0.75000000  1
  Cs  Cs7  1  0.50000000  0.50000000  0.80411300  1
  Sb  Sb8  1  0.71042250  0.28957750  0.45606950  1
  Sb  Sb9  1  0.28957750  0.71042250  0.45606950  1
  Sb  Sb10  1  0.28957750  0.28957750  0.54393050  1
  Sb  Sb11  1  0.21042250  0.21042250  0.04393050  1
  Sb  Sb12  1  0.21042250  0.78957750  0.95606950  1
  Sb  Sb13  1  0.78957750  0.21042250  0.95606950  1
  Sb  Sb14  1  0.78957750  0.78957750  0.04393050  1
  Sb  Sb15  1  0.71042250  0.71042250  0.54393050  1
  Cl  Cl16  1  0.28996500  0.00000000  0.50000000  1
  Cl  Cl17  1  0.00000000  0.28996500  0.50000000  1
  Cl  Cl18  1  0.50000000  0.21003500  0.00000000  1
  Cl  Cl19  1  0.21003500  0.50000000  0.00000000  1
  Cl  Cl20  1  0.78996500  0.50000000  0.00000000  1
  Cl  Cl21  1  0.50000000  0.78996500  0.00000000  1
  Cl  Cl22  1  0.00000000  0.71003500  0.50000000  1
  Cl  Cl23  1  0.71003500  0.00000000  0.50000000  1
  F  F24  1  0.97133650  0.77631450  0.11654650  1
  F  F25  1  0.02866350  0.22368550  0.11654650  1
  F  F26  1  0.77631450  0.97133650  0.11654650  1
  F  F27  1  0.72368550  0.47133650  0.38345350  1
  F  F28  1  0.27631450  0.52866350  0.38345350  1
  F  F29  1  0.47133650  0.72368550  0.38345350  1
  F  F30  1  0.52866350  0.27631450  0.38345350  1
  F  F31  1  0.27828050  0.27828050  0.18692650  1
  F  F32  1  0.22171950  0.22171950  0.68692650  1
  F  F33  1  0.22171950  0.77828050  0.31307350  1
  F  F34  1  0.77828050  0.22171950  0.31307350  1
  F  F35  1  0.22368550  0.02866350  0.11654650  1
  F  F36  1  0.47133650  0.27631450  0.61654650  1
  F  F37  1  0.52866350  0.72368550  0.61654650  1
  F  F38  1  0.27631450  0.47133650  0.61654650  1
  F  F39  1  0.22368550  0.97133650  0.88345350  1
  F  F40  1  0.77631450  0.02866350  0.88345350  1
  F  F41  1  0.97133650  0.22368550  0.88345350  1
  F  F42  1  0.02866350  0.77631450  0.88345350  1
  F  F43  1  0.77828050  0.77828050  0.68692650  1
  F  F44  1  0.72171950  0.72171950  0.18692650  1
  F  F45  1  0.72171950  0.27828050  0.81307350  1
  F  F46  1  0.27828050  0.72171950  0.81307350  1
  F  F47  1  0.72368550  0.52866350  0.61654650  1
