# generated using pymatgen
data_Hg2P3Cl
_symmetry_space_group_name_H-M   'P 1'
_cell_length_a   8.01460800
_cell_length_b   8.97275200
_cell_length_c   7.77996227
_cell_angle_alpha   90.00000000
_cell_angle_beta   97.72770222
_cell_angle_gamma   90.00000000
_symmetry_Int_Tables_number   1
_chemical_formula_structural   Hg2P3Cl
_chemical_formula_sum   'Hg8 P12 Cl4'
_cell_volume   554.40008783
_cell_formula_units_Z   4
loop_
 _symmetry_equiv_pos_site_id
 _symmetry_equiv_pos_as_xyz
  1  'x, y, z'
loop_
 _atom_site_type_symbol
 _atom_site_label
 _atom_site_symmetry_multiplicity
 _atom_site_fract_x
 _atom_site_fract_y
 _atom_site_fract_z
 _atom_site_occupancy
  Hg  Hg0  1  0.27362450  0.86391450  0.32909500  1
  Hg  Hg1  1  0.72637550  0.86391450  0.17090500  1
  Hg  Hg2  1  0.27362450  0.13608550  0.82909500  1
  Hg  Hg3  1  0.72637550  0.13608550  0.67090500  1
  Hg  Hg4  1  0.77362450  0.36391450  0.32909500  1
  Hg  Hg5  1  0.22637550  0.36391450  0.17090500  1
  Hg  Hg6  1  0.77362450  0.63608550  0.82909500  1
  Hg  Hg7  1  0.22637550  0.63608550  0.67090500  1
  P  P8  1  0.11564000  0.94283100  0.97313500  1
  P  P9  1  0.88436000  0.94283100  0.52686500  1
  P  P10  1  0.88436000  0.05716900  0.02686500  1
  P  P11  1  0.50000000  0.69252600  0.25000000  1
  P  P12  1  0.50000000  0.30747400  0.75000000  1
  P  P13  1  0.11564000  0.05716900  0.47313500  1
  P  P14  1  0.61564000  0.44283100  0.97313500  1
  P  P15  1  0.38436000  0.44283100  0.52686500  1
  P  P16  1  0.38436000  0.55716900  0.02686500  1
  P  P17  1  0.00000000  0.19252600  0.25000000  1
  P  P18  1  0.00000000  0.80747400  0.75000000  1
  P  P19  1  0.61564000  0.55716900  0.47313500  1
  Cl  Cl20  1  0.50000000  0.12737100  0.25000000  1
  Cl  Cl21  1  0.50000000  0.87262900  0.75000000  1
  Cl  Cl22  1  0.00000000  0.62737100  0.25000000  1
  Cl  Cl23  1  0.00000000  0.37262900  0.75000000  1
