# generated using pymatgen
data_In2HgSe4
_symmetry_space_group_name_H-M   'P 1'
_cell_length_a   6.00707800
_cell_length_b   6.00707800
_cell_length_c   11.83279000
_cell_angle_alpha   90.00000000
_cell_angle_beta   90.00000000
_cell_angle_gamma   90.00000000
_symmetry_Int_Tables_number   1
_chemical_formula_structural   In2HgSe4
_chemical_formula_sum   'In4 Hg2 Se8'
_cell_volume   426.98606265
_cell_formula_units_Z   2
loop_
 _symmetry_equiv_pos_site_id
 _symmetry_equiv_pos_as_xyz
  1  'x, y, z'
loop_
 _atom_site_type_symbol
 _atom_site_label
 _atom_site_symmetry_multiplicity
 _atom_site_fract_x
 _atom_site_fract_y
 _atom_site_fract_z
 _atom_site_occupancy
  In  In0  1  0.50000000  0.00000000  0.25000000  1
  In  In1  1  0.50000000  0.50000000  0.00000000  1
  In  In2  1  0.00000000  0.50000000  0.75000000  1
  In  In3  1  0.00000000  0.00000000  0.50000000  1
  Hg  Hg4  1  0.00000000  0.00000000  0.00000000  1
  Hg  Hg5  1  0.50000000  0.50000000  0.50000000  1
  Se  Se6  1  0.22438550  0.73696650  0.36214050  1
  Se  Se7  1  0.76303350  0.72438550  0.13785950  1
  Se  Se8  1  0.23696650  0.27561450  0.13785950  1
  Se  Se9  1  0.77561450  0.26303350  0.36214050  1
  Se  Se10  1  0.72438550  0.23696650  0.86214050  1
  Se  Se11  1  0.26303350  0.22438550  0.63785950  1
  Se  Se12  1  0.73696650  0.77561450  0.63785950  1
  Se  Se13  1  0.27561450  0.76303350  0.86214050  1
