# generated using pymatgen
data_V2Se9
_symmetry_space_group_name_H-M   'P 1'
_cell_length_a   10.93316600
_cell_length_b   13.37616400
_cell_length_c   8.52551515
_cell_angle_alpha   90.00000000
_cell_angle_beta   99.73145447
_cell_angle_gamma   90.00000000
_symmetry_Int_Tables_number   1
_chemical_formula_structural   V2Se9
_chemical_formula_sum   'V8 Se36'
_cell_volume   1228.86343268
_cell_formula_units_Z   4
loop_
 _symmetry_equiv_pos_site_id
 _symmetry_equiv_pos_as_xyz
  1  'x, y, z'
loop_
 _atom_site_type_symbol
 _atom_site_label
 _atom_site_symmetry_multiplicity
 _atom_site_fract_x
 _atom_site_fract_y
 _atom_site_fract_z
 _atom_site_occupancy
  V  V0  1  0.36785050  0.23176750  0.08517400  1
  V  V1  1  0.63214950  0.23176750  0.41482600  1
  V  V2  1  0.63214950  0.76823250  0.91482600  1
  V  V3  1  0.36785050  0.76823250  0.58517400  1
  V  V4  1  0.86785050  0.73176750  0.08517400  1
  V  V5  1  0.13214950  0.73176750  0.41482600  1
  V  V6  1  0.13214950  0.26823250  0.91482600  1
  V  V7  1  0.86785050  0.26823250  0.58517400  1
  Se  Se8  1  0.45373200  0.15242500  0.52846000  1
  Se  Se9  1  0.54626800  0.15242500  0.97154000  1
  Se  Se10  1  0.59682450  0.69837150  0.62053100  1
  Se  Se11  1  0.40317550  0.69837150  0.87946900  1
  Se  Se12  1  0.40317550  0.30162850  0.37946900  1
  Se  Se13  1  0.59682450  0.30162850  0.12053100  1
  Se  Se14  1  0.76683700  0.09452800  0.55686400  1
  Se  Se15  1  0.23316300  0.09452800  0.94313600  1
  Se  Se16  1  0.23316300  0.90547200  0.44313600  1
  Se  Se17  1  0.76683700  0.90547200  0.05686400  1
  Se  Se18  1  0.82995550  0.16376850  0.33495200  1
  Se  Se19  1  0.17004450  0.16376850  0.16504800  1
  Se  Se20  1  0.17004450  0.83623150  0.66504800  1
  Se  Se21  1  0.82995550  0.83623150  0.83495200  1
  Se  Se22  1  0.45373200  0.84757500  0.02846000  1
  Se  Se23  1  0.54626800  0.84757500  0.47154000  1
  Se  Se24  1  0.50000000  0.09394100  0.25000000  1
  Se  Se25  1  0.50000000  0.90605900  0.75000000  1
  Se  Se26  1  0.95373200  0.65242500  0.52846000  1
  Se  Se27  1  0.04626800  0.65242500  0.97154000  1
  Se  Se28  1  0.09682450  0.19837150  0.62053100  1
  Se  Se29  1  0.90317550  0.19837150  0.87946900  1
  Se  Se30  1  0.90317550  0.80162850  0.37946900  1
  Se  Se31  1  0.09682450  0.80162850  0.12053100  1
  Se  Se32  1  0.26683700  0.59452800  0.55686400  1
  Se  Se33  1  0.73316300  0.59452800  0.94313600  1
  Se  Se34  1  0.73316300  0.40547200  0.44313600  1
  Se  Se35  1  0.26683700  0.40547200  0.05686400  1
  Se  Se36  1  0.32995550  0.66376850  0.33495200  1
  Se  Se37  1  0.67004450  0.66376850  0.16504800  1
  Se  Se38  1  0.67004450  0.33623150  0.66504800  1
  Se  Se39  1  0.32995550  0.33623150  0.83495200  1
  Se  Se40  1  0.95373200  0.34757500  0.02846000  1
  Se  Se41  1  0.04626800  0.34757500  0.47154000  1
  Se  Se42  1  0.00000000  0.59394100  0.25000000  1
  Se  Se43  1  0.00000000  0.40605900  0.75000000  1
