# generated using pymatgen
data_SrGe(HO2)2
_symmetry_space_group_name_H-M   'P 1'
_cell_length_a   7.42621000
_cell_length_b   7.42621000
_cell_length_c   6.80227400
_cell_angle_alpha   90.00000000
_cell_angle_beta   90.00000000
_cell_angle_gamma   90.00000000
_symmetry_Int_Tables_number   1
_chemical_formula_structural   SrGe(HO2)2
_chemical_formula_sum   'Sr4 Ge4 H8 O16'
_cell_volume   375.13585366
_cell_formula_units_Z   4
loop_
 _symmetry_equiv_pos_site_id
 _symmetry_equiv_pos_as_xyz
  1  'x, y, z'
loop_
 _atom_site_type_symbol
 _atom_site_label
 _atom_site_symmetry_multiplicity
 _atom_site_fract_x
 _atom_site_fract_y
 _atom_site_fract_z
 _atom_site_occupancy
  Sr  Sr0  1  0.00000000  0.00000000  0.50000000  1
  Sr  Sr1  1  0.50000000  0.00000000  0.75000000  1
  Sr  Sr2  1  0.50000000  0.50000000  0.00000000  1
  Sr  Sr3  1  0.00000000  0.50000000  0.25000000  1
  Ge  Ge4  1  0.50000000  0.50000000  0.50000000  1
  Ge  Ge5  1  0.50000000  0.00000000  0.25000000  1
  Ge  Ge6  1  0.00000000  0.00000000  0.00000000  1
  Ge  Ge7  1  0.00000000  0.50000000  0.75000000  1
  H  H8  1  0.75000000  0.17241100  0.12500000  1
  H  H9  1  0.82758900  0.75000000  0.87500000  1
  H  H10  1  0.67241100  0.75000000  0.37500000  1
  H  H11  1  0.75000000  0.32758900  0.62500000  1
  H  H12  1  0.25000000  0.67241100  0.62500000  1
  H  H13  1  0.32758900  0.25000000  0.37500000  1
  H  H14  1  0.17241100  0.25000000  0.87500000  1
  H  H15  1  0.25000000  0.82758900  0.12500000  1
  O  O16  1  0.58811350  0.32964550  0.65753850  1
  O  O17  1  0.67035450  0.58811350  0.34246150  1
  O  O18  1  0.82964550  0.91188650  0.84246150  1
  O  O19  1  0.91188650  0.17035450  0.15753850  1
  O  O20  1  0.91188650  0.32964550  0.59246150  1
  O  O21  1  0.08811350  0.67035450  0.59246150  1
  O  O22  1  0.67035450  0.91188650  0.40753850  1
  O  O23  1  0.32964550  0.08811350  0.40753850  1
  O  O24  1  0.08811350  0.82964550  0.15753850  1
  O  O25  1  0.17035450  0.08811350  0.84246150  1
  O  O26  1  0.32964550  0.41188650  0.34246150  1
  O  O27  1  0.41188650  0.67035450  0.65753850  1
  O  O28  1  0.41188650  0.82964550  0.09246150  1
  O  O29  1  0.58811350  0.17035450  0.09246150  1
  O  O30  1  0.17035450  0.41188650  0.90753850  1
  O  O31  1  0.82964550  0.58811350  0.90753850  1
