# generated using pymatgen
data_Tl2AgI3
_symmetry_space_group_name_H-M   'P 1'
_cell_length_a   10.75556008
_cell_length_b   10.75556008
_cell_length_c   20.14690976
_cell_angle_alpha   90.00000000
_cell_angle_beta   90.00000000
_cell_angle_gamma   120.00000000
_symmetry_Int_Tables_number   1
_chemical_formula_structural   Tl2AgI3
_chemical_formula_sum   'Tl18 Ag9 I27'
_cell_volume   2018.39022332
_cell_formula_units_Z   9
loop_
 _symmetry_equiv_pos_site_id
 _symmetry_equiv_pos_as_xyz
  1  'x, y, z'
loop_
 _atom_site_type_symbol
 _atom_site_label
 _atom_site_symmetry_multiplicity
 _atom_site_fract_x
 _atom_site_fract_y
 _atom_site_fract_z
 _atom_site_occupancy
  Tl  Tl0  1  0.29764400  0.36835600  0.25661200  1
  Tl  Tl1  1  0.63164400  0.92928800  0.25661200  1
  Tl  Tl2  1  0.07071200  0.70235600  0.25661200  1
  Tl  Tl3  1  0.36902267  0.96497733  0.07672133  1
  Tl  Tl4  1  0.03502267  0.40404533  0.07672133  1
  Tl  Tl5  1  0.59595467  0.63097733  0.07672133  1
  Tl  Tl6  1  0.96431067  0.70168933  0.58994533  1
  Tl  Tl7  1  0.29831067  0.26262133  0.58994533  1
  Tl  Tl8  1  0.73737867  0.03568933  0.58994533  1
  Tl  Tl9  1  0.03568933  0.29831067  0.41005467  1
  Tl  Tl10  1  0.70168933  0.73737867  0.41005467  1
  Tl  Tl11  1  0.26262133  0.96431067  0.41005467  1
  Tl  Tl12  1  0.63097733  0.03502267  0.92327867  1
  Tl  Tl13  1  0.96497733  0.59595467  0.92327867  1
  Tl  Tl14  1  0.40404533  0.36902267  0.92327867  1
  Tl  Tl15  1  0.70235600  0.63164400  0.74338800  1
  Tl  Tl16  1  0.36835600  0.07071200  0.74338800  1
  Tl  Tl17  1  0.92928800  0.29764400  0.74338800  1
  Ag  Ag18  1  0.00000000  0.00000000  0.00000000  1
  Ag  Ag19  1  0.33333333  0.66666667  0.51026567  1
  Ag  Ag20  1  0.33333333  0.66666667  0.82306767  1
  Ag  Ag21  1  0.66666667  0.33333333  0.33333333  1
  Ag  Ag22  1  0.00000000  0.00000000  0.84359900  1
  Ag  Ag23  1  0.00000000  0.00000000  0.15640100  1
  Ag  Ag24  1  0.33333333  0.66666667  0.66666667  1
  Ag  Ag25  1  0.66666667  0.33333333  0.17693233  1
  Ag  Ag26  1  0.66666667  0.33333333  0.48973433  1
  I  I27  1  0.42571133  0.09217767  0.24363367  1
  I  I28  1  0.90782233  0.33353367  0.24363367  1
  I  I29  1  0.66646633  0.57428867  0.24363367  1
  I  I30  1  0.24095533  0.24115567  0.08969967  1
  I  I31  1  0.75884433  0.99979967  0.08969967  1
  I  I32  1  0.00020033  0.75904467  0.08969967  1
  I  I33  1  0.33333333  0.66666667  0.37141567  1
  I  I34  1  0.33333333  0.66666667  0.96191767  1
  I  I35  1  0.33333333  0.66666667  0.16666667  1
  I  I36  1  0.09237800  0.42551100  0.57696700  1
  I  I37  1  0.57448900  0.66686700  0.57696700  1
  I  I38  1  0.33313300  0.90762200  0.57696700  1
  I  I39  1  0.90762200  0.57448900  0.42303300  1
  I  I40  1  0.42551100  0.33313300  0.42303300  1
  I  I41  1  0.66686700  0.09237800  0.42303300  1
  I  I42  1  0.00000000  0.00000000  0.70474900  1
  I  I43  1  0.00000000  0.00000000  0.29525100  1
  I  I44  1  1.00000000  0.00000000  0.50000000  1
  I  I45  1  0.75904467  0.75884433  0.91030033  1
  I  I46  1  0.24115567  0.00020033  0.91030033  1
  I  I47  1  0.99979967  0.24095533  0.91030033  1
  I  I48  1  0.57428867  0.90782233  0.75636633  1
  I  I49  1  0.09217767  0.66646633  0.75636633  1
  I  I50  1  0.33353367  0.42571133  0.75636633  1
  I  I51  1  0.66666667  0.33333333  0.03808233  1
  I  I52  1  0.66666667  0.33333333  0.62858433  1
  I  I53  1  0.66666667  0.33333333  0.83333333  1
