# generated using pymatgen
data_K2AlH2OF5
_symmetry_space_group_name_H-M   'P 1'
_cell_length_a   8.10601800
_cell_length_b   9.42444800
_cell_length_c   7.60903600
_cell_angle_alpha   90.00000000
_cell_angle_beta   90.00000000
_cell_angle_gamma   90.00000000
_symmetry_Int_Tables_number   1
_chemical_formula_structural   K2AlH2OF5
_chemical_formula_sum   'K8 Al4 H8 O4 F20'
_cell_volume   581.29036589
_cell_formula_units_Z   4
loop_
 _symmetry_equiv_pos_site_id
 _symmetry_equiv_pos_as_xyz
  1  'x, y, z'
loop_
 _atom_site_type_symbol
 _atom_site_label
 _atom_site_symmetry_multiplicity
 _atom_site_fract_x
 _atom_site_fract_y
 _atom_site_fract_z
 _atom_site_occupancy
  K  K0  1  0.28665850  0.78948650  0.25000000  1
  K  K1  1  0.71334150  0.21051350  0.75000000  1
  K  K2  1  0.28665850  0.21051350  0.25000000  1
  K  K3  1  0.71334150  0.78948650  0.75000000  1
  K  K4  1  0.78665850  0.28948650  0.25000000  1
  K  K5  1  0.21334150  0.71051350  0.75000000  1
  K  K6  1  0.78665850  0.71051350  0.25000000  1
  K  K7  1  0.21334150  0.28948650  0.75000000  1
  Al  Al8  1  0.00000000  0.00000000  0.50000000  1
  Al  Al9  1  0.00000000  0.00000000  0.00000000  1
  Al  Al10  1  0.50000000  0.50000000  0.50000000  1
  Al  Al11  1  0.50000000  0.50000000  0.00000000  1
  H  H12  1  0.60798300  0.00000000  0.14807500  1
  H  H13  1  0.39201700  0.00000000  0.64807500  1
  H  H14  1  0.39201700  0.00000000  0.85192500  1
  H  H15  1  0.60798300  0.00000000  0.35192500  1
  H  H16  1  0.10798300  0.50000000  0.14807500  1
  H  H17  1  0.89201700  0.50000000  0.64807500  1
  H  H18  1  0.89201700  0.50000000  0.85192500  1
  H  H19  1  0.10798300  0.50000000  0.35192500  1
  O  O20  1  0.53287300  0.00000000  0.25000000  1
  O  O21  1  0.46712700  0.00000000  0.75000000  1
  O  O22  1  0.03287300  0.50000000  0.25000000  1
  O  O23  1  0.96712700  0.50000000  0.75000000  1
  F  F24  1  0.99443600  0.00000000  0.75000000  1
  F  F25  1  0.00556400  0.00000000  0.25000000  1
  F  F26  1  0.50000000  0.30899900  0.00000000  1
  F  F27  1  0.50000000  0.69100100  0.50000000  1
  F  F28  1  0.50000000  0.69100100  0.00000000  1
  F  F29  1  0.50000000  0.30899900  0.50000000  1
  F  F30  1  0.77586600  0.00000000  0.00228600  1
  F  F31  1  0.22413400  0.00000000  0.50228600  1
  F  F32  1  0.22413400  0.00000000  0.99771400  1
  F  F33  1  0.77586600  0.00000000  0.49771400  1
  F  F34  1  0.49443600  0.50000000  0.75000000  1
  F  F35  1  0.50556400  0.50000000  0.25000000  1
  F  F36  1  0.00000000  0.80899900  0.00000000  1
  F  F37  1  0.00000000  0.19100100  0.50000000  1
  F  F38  1  0.00000000  0.19100100  0.00000000  1
  F  F39  1  0.00000000  0.80899900  0.50000000  1
  F  F40  1  0.27586600  0.50000000  0.00228600  1
  F  F41  1  0.72413400  0.50000000  0.50228600  1
  F  F42  1  0.72413400  0.50000000  0.99771400  1
  F  F43  1  0.27586600  0.50000000  0.49771400  1
