# generated using pymatgen
data_Ta3N5
_symmetry_space_group_name_H-M   'P 1'
_cell_length_a   3.90476800
_cell_length_b   10.32805400
_cell_length_c   10.35710600
_cell_angle_alpha   90.00000000
_cell_angle_beta   90.00000000
_cell_angle_gamma   90.00000000
_symmetry_Int_Tables_number   1
_chemical_formula_structural   Ta3N5
_chemical_formula_sum   'Ta12 N20'
_cell_volume   417.68815220
_cell_formula_units_Z   4
loop_
 _symmetry_equiv_pos_site_id
 _symmetry_equiv_pos_as_xyz
  1  'x, y, z'
loop_
 _atom_site_type_symbol
 _atom_site_label
 _atom_site_symmetry_multiplicity
 _atom_site_fract_x
 _atom_site_fract_y
 _atom_site_fract_z
 _atom_site_occupancy
  Ta  Ta0  1  0.50000000  0.30305000  0.25000000  1
  Ta  Ta1  1  0.00000000  0.13362800  0.44057000  1
  Ta  Ta2  1  0.50000000  0.36637200  0.55943000  1
  Ta  Ta3  1  0.50000000  0.36637200  0.94057000  1
  Ta  Ta4  1  0.00000000  0.19695000  0.75000000  1
  Ta  Ta5  1  0.00000000  0.13362800  0.05943000  1
  Ta  Ta6  1  0.00000000  0.80305000  0.25000000  1
  Ta  Ta7  1  0.50000000  0.63362800  0.44057000  1
  Ta  Ta8  1  0.00000000  0.86637200  0.55943000  1
  Ta  Ta9  1  0.00000000  0.86637200  0.94057000  1
  Ta  Ta10  1  0.50000000  0.69695000  0.75000000  1
  Ta  Ta11  1  0.50000000  0.63362800  0.05943000  1
  N  N12  1  0.50000000  0.45329900  0.38074600  1
  N  N13  1  0.00000000  0.30827400  0.57406900  1
  N  N14  1  0.50000000  0.19172600  0.42593100  1
  N  N15  1  0.00000000  0.30827400  0.92593100  1
  N  N16  1  0.50000000  0.26256400  0.75000000  1
  N  N17  1  0.50000000  0.19172600  0.07406900  1
  N  N18  1  0.50000000  0.45329900  0.11925400  1
  N  N19  1  0.00000000  0.04670100  0.88074600  1
  N  N20  1  0.00000000  0.23743600  0.25000000  1
  N  N21  1  0.00000000  0.04670100  0.61925400  1
  N  N22  1  0.00000000  0.95329900  0.38074600  1
  N  N23  1  0.50000000  0.80827400  0.57406900  1
  N  N24  1  0.00000000  0.69172600  0.42593100  1
  N  N25  1  0.50000000  0.80827400  0.92593100  1
  N  N26  1  0.00000000  0.76256400  0.75000000  1
  N  N27  1  0.00000000  0.69172600  0.07406900  1
  N  N28  1  0.00000000  0.95329900  0.11925400  1
  N  N29  1  0.50000000  0.54670100  0.88074600  1
  N  N30  1  0.50000000  0.73743600  0.25000000  1
  N  N31  1  0.50000000  0.54670100  0.61925400  1
