# generated using pymatgen
data_LaCO
_symmetry_space_group_name_H-M   'P 1'
_cell_length_a   7.09114200
_cell_length_b   4.01114800
_cell_length_c   7.36727298
_cell_angle_alpha   90.00000000
_cell_angle_beta   95.29795106
_cell_angle_gamma   90.00000000
_symmetry_Int_Tables_number   1
_chemical_formula_structural   LaCO
_chemical_formula_sum   'La4 C4 O4'
_cell_volume   208.65670797
_cell_formula_units_Z   4
loop_
 _symmetry_equiv_pos_site_id
 _symmetry_equiv_pos_as_xyz
  1  'x, y, z'
loop_
 _atom_site_type_symbol
 _atom_site_label
 _atom_site_symmetry_multiplicity
 _atom_site_fract_x
 _atom_site_fract_y
 _atom_site_fract_z
 _atom_site_occupancy
  La  La0  1  0.68356700  0.00000000  0.70754500  1
  La  La1  1  0.81643300  0.50000000  0.29245500  1
  La  La2  1  0.18356700  0.50000000  0.70754500  1
  La  La3  1  0.31643300  0.00000000  0.29245500  1
  C  C4  1  0.96075200  0.00000000  0.07331700  1
  C  C5  1  0.53924800  0.50000000  0.92668300  1
  C  C6  1  0.46075200  0.50000000  0.07331700  1
  C  C7  1  0.03924800  0.00000000  0.92668300  1
  O  O8  1  0.84735200  0.50000000  0.62069800  1
  O  O9  1  0.65264800  0.00000000  0.37930200  1
  O  O10  1  0.34735200  0.00000000  0.62069800  1
  O  O11  1  0.15264800  0.50000000  0.37930200  1
