# generated using pymatgen
data_RbAuBr3
_symmetry_space_group_name_H-M   'P 1'
_cell_length_a   12.96639000
_cell_length_b   7.48102200
_cell_length_c   8.50062933
_cell_angle_alpha   90.00000000
_cell_angle_beta   117.73698141
_cell_angle_gamma   90.00000000
_symmetry_Int_Tables_number   1
_chemical_formula_structural   RbAuBr3
_chemical_formula_sum   'Rb4 Au4 Br12'
_cell_volume   729.82745748
_cell_formula_units_Z   4
loop_
 _symmetry_equiv_pos_site_id
 _symmetry_equiv_pos_as_xyz
  1  'x, y, z'
loop_
 _atom_site_type_symbol
 _atom_site_label
 _atom_site_symmetry_multiplicity
 _atom_site_fract_x
 _atom_site_fract_y
 _atom_site_fract_z
 _atom_site_occupancy
  Rb  Rb0  1  0.27418600  0.00000000  0.77046000  1
  Rb  Rb1  1  0.22581400  0.50000000  0.22954000  1
  Rb  Rb2  1  0.77418600  0.50000000  0.77046000  1
  Rb  Rb3  1  0.72581400  0.00000000  0.22954000  1
  Au  Au4  1  0.00000000  0.00000000  0.00000000  1
  Au  Au5  1  0.00000000  0.50000000  0.50000000  1
  Au  Au6  1  0.50000000  0.50000000  0.00000000  1
  Au  Au7  1  0.50000000  0.00000000  0.50000000  1
  Br  Br8  1  0.46307400  0.26423400  0.17740400  1
  Br  Br9  1  0.03692600  0.76423400  0.82259600  1
  Br  Br10  1  0.03692600  0.23576600  0.82259600  1
  Br  Br11  1  0.46307400  0.73576600  0.17740400  1
  Br  Br12  1  0.21328800  0.50000000  0.63493200  1
  Br  Br13  1  0.28671200  0.00000000  0.36506800  1
  Br  Br14  1  0.96307400  0.76423400  0.17740400  1
  Br  Br15  1  0.53692600  0.26423400  0.82259600  1
  Br  Br16  1  0.53692600  0.73576600  0.82259600  1
  Br  Br17  1  0.96307400  0.23576600  0.17740400  1
  Br  Br18  1  0.71328800  0.00000000  0.63493200  1
  Br  Br19  1  0.78671200  0.50000000  0.36506800  1
