# generated using pymatgen
data_K3H(SeO4)2
_symmetry_space_group_name_H-M   'P 1'
_cell_length_a   15.36485000
_cell_length_b   6.02612600
_cell_length_c   10.34552328
_cell_angle_alpha   90.00000000
_cell_angle_beta   103.51824683
_cell_angle_gamma   90.00000000
_symmetry_Int_Tables_number   1
_chemical_formula_structural   K3H(SeO4)2
_chemical_formula_sum   'K12 H4 Se8 O32'
_cell_volume   931.35935800
_cell_formula_units_Z   4
loop_
 _symmetry_equiv_pos_site_id
 _symmetry_equiv_pos_as_xyz
  1  'x, y, z'
loop_
 _atom_site_type_symbol
 _atom_site_label
 _atom_site_symmetry_multiplicity
 _atom_site_fract_x
 _atom_site_fract_y
 _atom_site_fract_z
 _atom_site_occupancy
  K  K0  1  0.00000000  0.24280500  0.75000000  1
  K  K1  1  0.00000000  0.75719500  0.25000000  1
  K  K2  1  0.80532900  0.26636300  0.34796400  1
  K  K3  1  0.69467100  0.76636300  0.15203600  1
  K  K4  1  0.80532900  0.73363700  0.84796400  1
  K  K5  1  0.69467100  0.23363700  0.65203600  1
  K  K6  1  0.50000000  0.74280500  0.75000000  1
  K  K7  1  0.50000000  0.25719500  0.25000000  1
  K  K8  1  0.30532900  0.76636300  0.34796400  1
  K  K9  1  0.19467100  0.26636300  0.15203600  1
  K  K10  1  0.30532900  0.23363700  0.84796400  1
  K  K11  1  0.19467100  0.73363700  0.65203600  1
  H  H12  1  0.00000000  0.00000000  0.00000000  1
  H  H13  1  0.00000000  0.00000000  0.50000000  1
  H  H14  1  0.50000000  0.50000000  0.00000000  1
  H  H15  1  0.50000000  0.50000000  0.50000000  1
  Se  Se16  1  0.88372800  0.77136000  0.53866100  1
  Se  Se17  1  0.61627200  0.27136000  0.96133900  1
  Se  Se18  1  0.61627200  0.72864000  0.46133900  1
  Se  Se19  1  0.88372800  0.22864000  0.03866100  1
  Se  Se20  1  0.38372800  0.27136000  0.53866100  1
  Se  Se21  1  0.11627200  0.77136000  0.96133900  1
  Se  Se22  1  0.11627200  0.22864000  0.46133900  1
  Se  Se23  1  0.38372800  0.72864000  0.03866100  1
  O  O24  1  0.87281600  0.46161100  0.11860800  1
  O  O25  1  0.62718400  0.96161100  0.38139200  1
  O  O26  1  0.62718400  0.03838900  0.88139200  1
  O  O27  1  0.87281600  0.53838900  0.61860800  1
  O  O28  1  0.84500850  0.25058250  0.87472500  1
  O  O29  1  0.65499150  0.75058250  0.62527500  1
  O  O30  1  0.65499150  0.24941750  0.12527500  1
  O  O31  1  0.84500850  0.74941750  0.37472500  1
  O  O32  1  0.84138650  0.99082150  0.60032700  1
  O  O33  1  0.65861350  0.49082150  0.89967300  1
  O  O34  1  0.65861350  0.50917850  0.39967300  1
  O  O35  1  0.84138650  0.00917850  0.10032700  1
  O  O36  1  0.99725950  0.82763650  0.56152500  1
  O  O37  1  0.50274050  0.32763650  0.93847500  1
  O  O38  1  0.50274050  0.67236350  0.43847500  1
  O  O39  1  0.99725950  0.17236350  0.06152500  1
  O  O40  1  0.37281600  0.96161100  0.11860800  1
  O  O41  1  0.12718400  0.46161100  0.38139200  1
  O  O42  1  0.12718400  0.53838900  0.88139200  1
  O  O43  1  0.37281600  0.03838900  0.61860800  1
  O  O44  1  0.34500850  0.75058250  0.87472500  1
  O  O45  1  0.15499150  0.25058250  0.62527500  1
  O  O46  1  0.15499150  0.74941750  0.12527500  1
  O  O47  1  0.34500850  0.24941750  0.37472500  1
  O  O48  1  0.34138650  0.49082150  0.60032700  1
  O  O49  1  0.15861350  0.99082150  0.89967300  1
  O  O50  1  0.15861350  0.00917850  0.39967300  1
  O  O51  1  0.34138650  0.50917850  0.10032700  1
  O  O52  1  0.49725950  0.32763650  0.56152500  1
  O  O53  1  0.00274050  0.82763650  0.93847500  1
  O  O54  1  0.00274050  0.17236350  0.43847500  1
  O  O55  1  0.49725950  0.67236350  0.06152500  1
