# generated using pymatgen
data_Sr(BiO2)2
_symmetry_space_group_name_H-M   'P 1'
_cell_length_a   20.26897800
_cell_length_b   4.38569600
_cell_length_c   6.43951780
_cell_angle_alpha   90.00000000
_cell_angle_beta   96.96828697
_cell_angle_gamma   90.00000000
_symmetry_Int_Tables_number   1
_chemical_formula_structural   Sr(BiO2)2
_chemical_formula_sum   'Sr4 Bi8 O16'
_cell_volume   568.20346923
_cell_formula_units_Z   4
loop_
 _symmetry_equiv_pos_site_id
 _symmetry_equiv_pos_as_xyz
  1  'x, y, z'
loop_
 _atom_site_type_symbol
 _atom_site_label
 _atom_site_symmetry_multiplicity
 _atom_site_fract_x
 _atom_site_fract_y
 _atom_site_fract_z
 _atom_site_occupancy
  Sr  Sr0  1  0.75903200  0.00000000  0.74586800  1
  Sr  Sr1  1  0.74096800  0.50000000  0.25413200  1
  Sr  Sr2  1  0.25903200  0.50000000  0.74586800  1
  Sr  Sr3  1  0.24096800  0.00000000  0.25413200  1
  Bi  Bi4  1  0.58614900  0.00000000  0.27658700  1
  Bi  Bi5  1  0.91385100  0.50000000  0.72341300  1
  Bi  Bi6  1  0.90079500  0.00000000  0.15947000  1
  Bi  Bi7  1  0.59920500  0.50000000  0.84053000  1
  Bi  Bi8  1  0.08614900  0.50000000  0.27658700  1
  Bi  Bi9  1  0.41385100  0.00000000  0.72341300  1
  Bi  Bi10  1  0.40079500  0.50000000  0.15947000  1
  Bi  Bi11  1  0.09920500  0.00000000  0.84053000  1
  O  O12  1  0.90170000  0.00000000  0.82002900  1
  O  O13  1  0.59830000  0.50000000  0.17997100  1
  O  O14  1  0.79899900  0.00000000  0.13569600  1
  O  O15  1  0.70100100  0.50000000  0.86430400  1
  O  O16  1  0.68472500  0.00000000  0.40332000  1
  O  O17  1  0.81527500  0.50000000  0.59668000  1
  O  O18  1  0.90880700  0.50000000  0.05941900  1
  O  O19  1  0.59119300  0.00000000  0.94058100  1
  O  O20  1  0.40170000  0.50000000  0.82002900  1
  O  O21  1  0.09830000  0.00000000  0.17997100  1
  O  O22  1  0.29899900  0.50000000  0.13569600  1
  O  O23  1  0.20100100  0.00000000  0.86430400  1
  O  O24  1  0.18472500  0.50000000  0.40332000  1
  O  O25  1  0.31527500  0.00000000  0.59668000  1
  O  O26  1  0.40880700  0.00000000  0.05941900  1
  O  O27  1  0.09119300  0.50000000  0.94058100  1
