# generated using pymatgen
data_K2ReH9
_symmetry_space_group_name_H-M   'P 1'
_cell_length_a   9.59676674
_cell_length_b   9.59676674
_cell_length_c   5.60728700
_cell_angle_alpha   90.00000000
_cell_angle_beta   90.00000000
_cell_angle_gamma   120.00000000
_symmetry_Int_Tables_number   1
_chemical_formula_structural   K2ReH9
_chemical_formula_sum   'K6 Re3 H27'
_cell_volume   447.23243686
_cell_formula_units_Z   3
loop_
 _symmetry_equiv_pos_site_id
 _symmetry_equiv_pos_as_xyz
  1  'x, y, z'
loop_
 _atom_site_type_symbol
 _atom_site_label
 _atom_site_symmetry_multiplicity
 _atom_site_fract_x
 _atom_site_fract_y
 _atom_site_fract_z
 _atom_site_occupancy
  K  K0  1  0.00000000  0.26155950  0.50000000  1
  K  K1  1  0.73844050  0.73844050  0.50000000  1
  K  K2  1  0.26155950  0.00000000  0.50000000  1
  K  K3  1  0.00000000  0.58886250  0.00000000  1
  K  K4  1  0.41113750  0.41113750  0.00000000  1
  K  K5  1  0.58886250  0.00000000  0.00000000  1
  Re  Re6  1  0.66666667  0.33333333  0.50000000  1
  Re  Re7  1  0.33333333  0.66666667  0.50000000  1
  Re  Re8  1  0.00000000  0.00000000  0.00000000  1
  H  H9  1  0.77617467  0.30805033  0.71993600  1
  H  H10  1  0.69194967  0.46812433  0.71993600  1
  H  H11  1  0.53187567  0.22382533  0.71993600  1
  H  H12  1  0.22382533  0.53187567  0.28006400  1
  H  H13  1  0.53187567  0.22382533  0.28006400  1
  H  H14  1  0.77617467  0.30805033  0.28006400  1
  H  H15  1  0.69194967  0.46812433  0.28006400  1
  H  H16  1  0.30805033  0.77617467  0.71993600  1
  H  H17  1  0.46812433  0.69194967  0.71993600  1
  H  H18  1  0.17572450  0.00000000  0.00000000  1
  H  H19  1  0.82427550  0.82427550  0.00000000  1
  H  H20  1  0.00000000  0.17572450  0.00000000  1
  H  H21  1  0.87292850  0.00000000  0.21351000  1
  H  H22  1  0.12707150  0.12707150  0.78649000  1
  H  H23  1  0.00000000  0.87292850  0.78649000  1
  H  H24  1  0.00000000  0.87292850  0.21351000  1
  H  H25  1  0.12707150  0.12707150  0.21351000  1
  H  H26  1  0.87292850  0.00000000  0.78649000  1
  H  H27  1  0.14288567  0.63148633  0.50000000  1
  H  H28  1  0.48860067  0.85711433  0.50000000  1
  H  H29  1  0.36851367  0.51139933  0.50000000  1
  H  H30  1  0.51139933  0.36851367  0.50000000  1
  H  H31  1  0.85711433  0.48860067  0.50000000  1
  H  H32  1  0.63148633  0.14288567  0.50000000  1
  H  H33  1  0.22382533  0.53187567  0.71993600  1
  H  H34  1  0.30805033  0.77617467  0.28006400  1
  H  H35  1  0.46812433  0.69194967  0.28006400  1
