# generated using pymatgen
data_ThB2O5
_symmetry_space_group_name_H-M   'P 1'
_cell_length_a   11.56906200
_cell_length_b   7.00449200
_cell_length_c   10.51945719
_cell_angle_alpha   90.00000000
_cell_angle_beta   101.67944686
_cell_angle_gamma   90.00000000
_symmetry_Int_Tables_number   1
_chemical_formula_structural   ThB2O5
_chemical_formula_sum   'Th8 B16 O40'
_cell_volume   834.79891859
_cell_formula_units_Z   8
loop_
 _symmetry_equiv_pos_site_id
 _symmetry_equiv_pos_as_xyz
  1  'x, y, z'
loop_
 _atom_site_type_symbol
 _atom_site_label
 _atom_site_symmetry_multiplicity
 _atom_site_fract_x
 _atom_site_fract_y
 _atom_site_fract_z
 _atom_site_occupancy
  Th  Th0  1  0.31698200  0.29523900  0.19198500  1
  Th  Th1  1  0.68301800  0.29523900  0.30801500  1
  Th  Th2  1  0.68301800  0.70476100  0.80801500  1
  Th  Th3  1  0.31698200  0.70476100  0.69198500  1
  Th  Th4  1  0.81698200  0.79523900  0.19198500  1
  Th  Th5  1  0.18301800  0.79523900  0.30801500  1
  Th  Th6  1  0.18301800  0.20476100  0.80801500  1
  Th  Th7  1  0.81698200  0.20476100  0.69198500  1
  B  B8  1  0.47638650  0.75449550  0.50335500  1
  B  B9  1  0.63514200  0.79925500  0.35844900  1
  B  B10  1  0.36485800  0.79925500  0.14155100  1
  B  B11  1  0.36485800  0.20074500  0.64155100  1
  B  B12  1  0.63514200  0.20074500  0.85844900  1
  B  B13  1  0.52361350  0.75449550  0.99664500  1
  B  B14  1  0.52361350  0.24550450  0.49664500  1
  B  B15  1  0.47638650  0.24550450  0.00335500  1
  B  B16  1  0.97638650  0.25449550  0.50335500  1
  B  B17  1  0.13514200  0.29925500  0.35844900  1
  B  B18  1  0.86485800  0.29925500  0.14155100  1
  B  B19  1  0.86485800  0.70074500  0.64155100  1
  B  B20  1  0.13514200  0.70074500  0.85844900  1
  B  B21  1  0.02361350  0.25449550  0.99664500  1
  B  B22  1  0.02361350  0.74550450  0.49664500  1
  B  B23  1  0.97638650  0.74550450  0.00335500  1
  O  O24  1  0.53995800  0.82008100  0.41584400  1
  O  O25  1  0.53995800  0.17991900  0.91584400  1
  O  O26  1  0.46004200  0.17991900  0.58415600  1
  O  O27  1  0.46004200  0.82008100  0.08415600  1
  O  O28  1  0.68320400  0.04169600  0.81128300  1
  O  O29  1  0.31679600  0.04169600  0.68871700  1
  O  O30  1  0.31679600  0.95830400  0.18871700  1
  O  O31  1  0.68320400  0.95830400  0.31128300  1
  O  O32  1  0.81490800  0.12753900  0.16354800  1
  O  O33  1  0.18509200  0.12753900  0.33645200  1
  O  O34  1  0.18509200  0.87246100  0.83645200  1
  O  O35  1  0.81490800  0.87246100  0.66354800  1
  O  O36  1  0.35483350  0.24740750  0.97074500  1
  O  O37  1  0.64516650  0.24740750  0.52925500  1
  O  O38  1  0.64516650  0.75259250  0.02925500  1
  O  O39  1  0.35483350  0.75259250  0.47074500  1
  O  O40  1  0.47530650  0.70045650  0.87129500  1
  O  O41  1  0.52469350  0.70045650  0.62870500  1
  O  O42  1  0.52469350  0.29954350  0.12870500  1
  O  O43  1  0.47530650  0.29954350  0.37129500  1
  O  O44  1  0.03995800  0.32008100  0.41584400  1
  O  O45  1  0.03995800  0.67991900  0.91584400  1
  O  O46  1  0.96004200  0.67991900  0.58415600  1
  O  O47  1  0.96004200  0.32008100  0.08415600  1
  O  O48  1  0.18320400  0.54169600  0.81128300  1
  O  O49  1  0.81679600  0.54169600  0.68871700  1
  O  O50  1  0.81679600  0.45830400  0.18871700  1
  O  O51  1  0.18320400  0.45830400  0.31128300  1
  O  O52  1  0.31490800  0.62753900  0.16354800  1
  O  O53  1  0.68509200  0.62753900  0.33645200  1
  O  O54  1  0.68509200  0.37246100  0.83645200  1
  O  O55  1  0.31490800  0.37246100  0.66354800  1
  O  O56  1  0.85483350  0.74740750  0.97074500  1
  O  O57  1  0.14516650  0.74740750  0.52925500  1
  O  O58  1  0.14516650  0.25259250  0.02925500  1
  O  O59  1  0.85483350  0.25259250  0.47074500  1
  O  O60  1  0.97530650  0.20045650  0.87129500  1
  O  O61  1  0.02469350  0.20045650  0.62870500  1
  O  O62  1  0.02469350  0.79954350  0.12870500  1
  O  O63  1  0.97530650  0.79954350  0.37129500  1
