# generated using pymatgen
data_In5Cl9
_symmetry_space_group_name_H-M   'P 1'
_cell_length_a   12.50685420
_cell_length_b   12.50685420
_cell_length_c   18.41501046
_cell_angle_alpha   90.00000000
_cell_angle_beta   90.00000000
_cell_angle_gamma   120.00000000
_symmetry_Int_Tables_number   1
_chemical_formula_structural   In5Cl9
_chemical_formula_sum   'In30 Cl54'
_cell_volume   2494.58769351
_cell_formula_units_Z   6
loop_
 _symmetry_equiv_pos_site_id
 _symmetry_equiv_pos_as_xyz
  1  'x, y, z'
loop_
 _atom_site_type_symbol
 _atom_site_label
 _atom_site_symmetry_multiplicity
 _atom_site_fract_x
 _atom_site_fract_y
 _atom_site_fract_z
 _atom_site_occupancy
  In  In0  1  0.33333333  0.66666667  0.31839467  1
  In  In1  1  0.33333333  0.66666667  0.51493867  1
  In  In2  1  0.33333333  0.66666667  0.01493867  1
  In  In3  1  0.33333333  0.66666667  0.81839467  1
  In  In4  1  0.99677767  0.33333333  0.08333333  1
  In  In5  1  0.66666667  0.66344433  0.08333333  1
  In  In6  1  0.33655567  0.00322233  0.08333333  1
  In  In7  1  0.66988900  0.00000000  0.25000000  1
  In  In8  1  0.00000000  0.66988900  0.25000000  1
  In  In9  1  0.33011100  0.33011100  0.25000000  1
  In  In10  1  0.00000000  0.00000000  0.65172800  1
  In  In11  1  1.00000000  0.00000000  0.84827200  1
  In  In12  1  0.00000000  0.00000000  0.34827200  1
  In  In13  1  0.00000000  0.00000000  0.15172800  1
  In  In14  1  0.66344433  0.66666667  0.41666667  1
  In  In15  1  0.33333333  0.99677767  0.41666667  1
  In  In16  1  0.00322233  0.33655567  0.41666667  1
  In  In17  1  0.33655567  0.33333333  0.58333333  1
  In  In18  1  0.66666667  0.00322233  0.58333333  1
  In  In19  1  0.99677767  0.66344433  0.58333333  1
  In  In20  1  0.66666667  0.33333333  0.98506133  1
  In  In21  1  0.66666667  0.33333333  0.18160533  1
  In  In22  1  0.66666667  0.33333333  0.68160533  1
  In  In23  1  0.66666667  0.33333333  0.48506133  1
  In  In24  1  0.33011100  0.00000000  0.75000000  1
  In  In25  1  0.00000000  0.33011100  0.75000000  1
  In  In26  1  0.66988900  0.66988900  0.75000000  1
  In  In27  1  0.00322233  0.66666667  0.91666667  1
  In  In28  1  0.33333333  0.33655567  0.91666667  1
  In  In29  1  0.66344433  0.99677767  0.91666667  1
  Cl  Cl30  1  0.82831400  0.00776500  0.09182600  1
  Cl  Cl31  1  0.99223500  0.82054900  0.09182600  1
  Cl  Cl32  1  0.17945100  0.17168600  0.09182600  1
  Cl  Cl33  1  0.15388233  0.65890167  0.07484067  1
  Cl  Cl34  1  0.34109833  0.49498067  0.07484067  1
  Cl  Cl35  1  0.50501933  0.84611767  0.07484067  1
  Cl  Cl36  1  0.83835267  0.32556833  0.24150733  1
  Cl  Cl37  1  0.67443167  0.51278433  0.24150733  1
  Cl  Cl38  1  0.48721567  0.16164733  0.24150733  1
  Cl  Cl39  1  0.51278433  0.67443167  0.25849267  1
  Cl  Cl40  1  0.33333333  0.50973567  0.41666667  1
  Cl  Cl41  1  0.17640233  0.66666667  0.41666667  1
  Cl  Cl42  1  0.49026433  0.82359767  0.41666667  1
  Cl  Cl43  1  0.33333333  0.82359767  0.91666667  1
  Cl  Cl44  1  0.49026433  0.66666667  0.91666667  1
  Cl  Cl45  1  0.17640233  0.50973567  0.91666667  1
  Cl  Cl46  1  0.16164733  0.48721567  0.25849267  1
  Cl  Cl47  1  0.32556833  0.83835267  0.25849267  1
  Cl  Cl48  1  0.49498067  0.34109833  0.42515933  1
  Cl  Cl49  1  0.65890167  0.15388233  0.42515933  1
  Cl  Cl50  1  0.84611767  0.50501933  0.42515933  1
  Cl  Cl51  1  0.82054900  0.99223500  0.40817400  1
  Cl  Cl52  1  0.00776500  0.82831400  0.40817400  1
  Cl  Cl53  1  0.17168600  0.17945100  0.40817400  1
  Cl  Cl54  1  0.50501933  0.65890167  0.57484067  1
  Cl  Cl55  1  0.34109833  0.84611767  0.57484067  1
  Cl  Cl56  1  0.15388233  0.49498067  0.57484067  1
  Cl  Cl57  1  0.17945100  0.00776500  0.59182600  1
  Cl  Cl58  1  0.00000000  0.84306900  0.75000000  1
  Cl  Cl59  1  0.84306900  0.00000000  0.75000000  1
  Cl  Cl60  1  0.15693100  0.15693100  0.75000000  1
  Cl  Cl61  1  0.00000000  0.15693100  0.25000000  1
  Cl  Cl62  1  0.15693100  0.00000000  0.25000000  1
  Cl  Cl63  1  0.84306900  0.84306900  0.25000000  1
  Cl  Cl64  1  0.82831400  0.82054900  0.59182600  1
  Cl  Cl65  1  0.99223500  0.17168600  0.59182600  1
  Cl  Cl66  1  0.16164733  0.67443167  0.75849267  1
  Cl  Cl67  1  0.32556833  0.48721567  0.75849267  1
  Cl  Cl68  1  0.51278433  0.83835267  0.75849267  1
  Cl  Cl69  1  0.48721567  0.32556833  0.74150733  1
  Cl  Cl70  1  0.67443167  0.16164733  0.74150733  1
  Cl  Cl71  1  0.83835267  0.51278433  0.74150733  1
  Cl  Cl72  1  0.17168600  0.99223500  0.90817400  1
  Cl  Cl73  1  0.00776500  0.17945100  0.90817400  1
  Cl  Cl74  1  0.82054900  0.82831400  0.90817400  1
  Cl  Cl75  1  0.84611767  0.34109833  0.92515933  1
  Cl  Cl76  1  0.66666667  0.17640233  0.08333333  1
  Cl  Cl77  1  0.50973567  0.33333333  0.08333333  1
  Cl  Cl78  1  0.82359767  0.49026433  0.08333333  1
  Cl  Cl79  1  0.66666667  0.49026433  0.58333333  1
  Cl  Cl80  1  0.82359767  0.33333333  0.58333333  1
  Cl  Cl81  1  0.50973567  0.17640233  0.58333333  1
  Cl  Cl82  1  0.49498067  0.15388233  0.92515933  1
  Cl  Cl83  1  0.65890167  0.50501933  0.92515933  1
