# generated using pymatgen
data_Ca12Be17O29
_symmetry_space_group_name_H-M   'P 1'
_cell_length_a   14.08757400
_cell_length_b   14.08757400
_cell_length_c   14.08757400
_cell_angle_alpha   90.00000000
_cell_angle_beta   90.00000000
_cell_angle_gamma   90.00000000
_symmetry_Int_Tables_number   1
_chemical_formula_structural   Ca12Be17O29
_chemical_formula_sum   'Ca48 Be68 O116'
_cell_volume   2795.81629025
_cell_formula_units_Z   4
loop_
 _symmetry_equiv_pos_site_id
 _symmetry_equiv_pos_as_xyz
  1  'x, y, z'
loop_
 _atom_site_type_symbol
 _atom_site_label
 _atom_site_symmetry_multiplicity
 _atom_site_fract_x
 _atom_site_fract_y
 _atom_site_fract_z
 _atom_site_occupancy
  Ca  Ca0  1  0.50000000  0.00000000  0.79336600  1
  Ca  Ca1  1  0.50000000  0.00000000  0.20663400  1
  Ca  Ca2  1  0.00000000  0.29336600  0.00000000  1
  Ca  Ca3  1  0.70663400  0.00000000  0.00000000  1
  Ca  Ca4  1  0.29336600  0.00000000  0.00000000  1
  Ca  Ca5  1  0.50000000  0.20663400  0.00000000  1
  Ca  Ca6  1  0.25000000  0.25000000  0.99589300  1
  Ca  Ca7  1  0.25000000  0.25000000  0.50410700  1
  Ca  Ca8  1  0.25000000  0.49589300  0.75000000  1
  Ca  Ca9  1  0.00410700  0.25000000  0.75000000  1
  Ca  Ca10  1  0.49589300  0.25000000  0.75000000  1
  Ca  Ca11  1  0.25000000  0.00410700  0.75000000  1
  Ca  Ca12  1  0.50000000  0.50000000  0.29336600  1
  Ca  Ca13  1  0.50000000  0.50000000  0.70663400  1
  Ca  Ca14  1  0.00000000  0.79336600  0.50000000  1
  Ca  Ca15  1  0.70663400  0.50000000  0.50000000  1
  Ca  Ca16  1  0.29336600  0.50000000  0.50000000  1
  Ca  Ca17  1  0.50000000  0.70663400  0.50000000  1
  Ca  Ca18  1  0.25000000  0.75000000  0.49589300  1
  Ca  Ca19  1  0.25000000  0.75000000  0.00410700  1
  Ca  Ca20  1  0.25000000  0.99589300  0.25000000  1
  Ca  Ca21  1  0.00410700  0.75000000  0.25000000  1
  Ca  Ca22  1  0.49589300  0.75000000  0.25000000  1
  Ca  Ca23  1  0.25000000  0.50410700  0.25000000  1
  Ca  Ca24  1  0.00000000  0.00000000  0.29336600  1
  Ca  Ca25  1  0.00000000  0.00000000  0.70663400  1
  Ca  Ca26  1  0.50000000  0.29336600  0.50000000  1
  Ca  Ca27  1  0.20663400  0.00000000  0.50000000  1
  Ca  Ca28  1  0.79336600  0.00000000  0.50000000  1
  Ca  Ca29  1  0.00000000  0.20663400  0.50000000  1
  Ca  Ca30  1  0.75000000  0.25000000  0.49589300  1
  Ca  Ca31  1  0.75000000  0.25000000  0.00410700  1
  Ca  Ca32  1  0.75000000  0.49589300  0.25000000  1
  Ca  Ca33  1  0.50410700  0.25000000  0.25000000  1
  Ca  Ca34  1  0.99589300  0.25000000  0.25000000  1
  Ca  Ca35  1  0.75000000  0.00410700  0.25000000  1
  Ca  Ca36  1  0.00000000  0.50000000  0.79336600  1
  Ca  Ca37  1  0.00000000  0.50000000  0.20663400  1
  Ca  Ca38  1  0.50000000  0.79336600  0.00000000  1
  Ca  Ca39  1  0.20663400  0.50000000  0.00000000  1
  Ca  Ca40  1  0.79336600  0.50000000  0.00000000  1
  Ca  Ca41  1  0.00000000  0.70663400  0.00000000  1
  Ca  Ca42  1  0.75000000  0.75000000  0.99589300  1
  Ca  Ca43  1  0.75000000  0.75000000  0.50410700  1
  Ca  Ca44  1  0.75000000  0.99589300  0.75000000  1
  Ca  Ca45  1  0.50410700  0.75000000  0.75000000  1
  Ca  Ca46  1  0.99589300  0.75000000  0.75000000  1
  Ca  Ca47  1  0.75000000  0.50410700  0.75000000  1
  Be  Be48  1  0.15742900  0.15742900  0.15742900  1
  Be  Be49  1  0.15874100  0.34125900  0.65874100  1
  Be  Be50  1  0.15874100  0.15874100  0.84125900  1
  Be  Be51  1  0.34125900  0.34125900  0.84125900  1
  Be  Be52  1  0.34125900  0.15874100  0.65874100  1
  Be  Be53  1  0.34257100  0.15742900  0.34257100  1
  Be  Be54  1  0.34257100  0.34257100  0.15742900  1
  Be  Be55  1  0.15742900  0.34257100  0.34257100  1
  Be  Be56  1  0.17410800  0.32589200  0.17410800  1
  Be  Be57  1  0.17410800  0.17410800  0.32589200  1
  Be  Be58  1  0.32589200  0.32589200  0.32589200  1
  Be  Be59  1  0.32589200  0.17410800  0.17410800  1
  Be  Be60  1  0.50000000  0.00000000  0.00000000  1
  Be  Be61  1  0.13780433  0.36219567  0.86219567  1
  Be  Be62  1  0.63780433  0.13780433  0.13780433  1
  Be  Be63  1  0.86219567  0.36219567  0.13780433  1
  Be  Be64  1  0.36219567  0.13780433  0.86219567  1
  Be  Be65  1  0.15742900  0.65742900  0.65742900  1
  Be  Be66  1  0.15874100  0.84125900  0.15874100  1
  Be  Be67  1  0.15874100  0.65874100  0.34125900  1
  Be  Be68  1  0.34125900  0.84125900  0.34125900  1
  Be  Be69  1  0.34125900  0.65874100  0.15874100  1
  Be  Be70  1  0.34257100  0.65742900  0.84257100  1
  Be  Be71  1  0.34257100  0.84257100  0.65742900  1
  Be  Be72  1  0.15742900  0.84257100  0.84257100  1
  Be  Be73  1  0.17410800  0.82589200  0.67410800  1
  Be  Be74  1  0.17410800  0.67410800  0.82589200  1
  Be  Be75  1  0.32589200  0.82589200  0.82589200  1
  Be  Be76  1  0.32589200  0.67410800  0.67410800  1
  Be  Be77  1  0.50000000  0.50000000  0.50000000  1
  Be  Be78  1  0.13780433  0.86219567  0.36219567  1
  Be  Be79  1  0.63780433  0.63780433  0.63780433  1
  Be  Be80  1  0.86219567  0.86219567  0.63780433  1
  Be  Be81  1  0.36219567  0.63780433  0.36219567  1
  Be  Be82  1  0.65742900  0.15742900  0.65742900  1
  Be  Be83  1  0.65874100  0.34125900  0.15874100  1
  Be  Be84  1  0.65874100  0.15874100  0.34125900  1
  Be  Be85  1  0.84125900  0.34125900  0.34125900  1
  Be  Be86  1  0.84125900  0.15874100  0.15874100  1
  Be  Be87  1  0.84257100  0.15742900  0.84257100  1
  Be  Be88  1  0.84257100  0.34257100  0.65742900  1
  Be  Be89  1  0.65742900  0.34257100  0.84257100  1
  Be  Be90  1  0.67410800  0.32589200  0.67410800  1
  Be  Be91  1  0.67410800  0.17410800  0.82589200  1
  Be  Be92  1  0.82589200  0.32589200  0.82589200  1
  Be  Be93  1  0.82589200  0.17410800  0.67410800  1
  Be  Be94  1  0.00000000  0.00000000  0.50000000  1
  Be  Be95  1  0.63780433  0.36219567  0.36219567  1
  Be  Be96  1  0.13780433  0.13780433  0.63780433  1
  Be  Be97  1  0.36219567  0.36219567  0.63780433  1
  Be  Be98  1  0.86219567  0.13780433  0.36219567  1
  Be  Be99  1  0.65742900  0.65742900  0.15742900  1
  Be  Be100  1  0.65874100  0.84125900  0.65874100  1
  Be  Be101  1  0.65874100  0.65874100  0.84125900  1
  Be  Be102  1  0.84125900  0.84125900  0.84125900  1
  Be  Be103  1  0.84125900  0.65874100  0.65874100  1
  Be  Be104  1  0.84257100  0.65742900  0.34257100  1
  Be  Be105  1  0.84257100  0.84257100  0.15742900  1
  Be  Be106  1  0.65742900  0.84257100  0.34257100  1
  Be  Be107  1  0.67410800  0.82589200  0.17410800  1
  Be  Be108  1  0.67410800  0.67410800  0.32589200  1
  Be  Be109  1  0.82589200  0.82589200  0.32589200  1
  Be  Be110  1  0.82589200  0.67410800  0.17410800  1
  Be  Be111  1  0.00000000  0.50000000  0.00000000  1
  Be  Be112  1  0.63780433  0.86219567  0.86219567  1
  Be  Be113  1  0.13780433  0.63780433  0.13780433  1
  Be  Be114  1  0.36219567  0.86219567  0.13780433  1
  Be  Be115  1  0.86219567  0.63780433  0.86219567  1
  O  O116  1  0.74922400  0.38563350  0.11436650  1
  O  O117  1  0.24922400  0.11436650  0.88563350  1
  O  O118  1  0.88563350  0.24922400  0.11436650  1
  O  O119  1  0.38563350  0.11436650  0.74922400  1
  O  O120  1  0.61436650  0.11436650  0.25077600  1
  O  O121  1  0.43088700  0.06911300  0.93088700  1
  O  O122  1  0.61436650  0.25077600  0.11436650  1
  O  O123  1  0.25077600  0.38563350  0.88563350  1
  O  O124  1  0.25000000  0.25000000  0.25000000  1
  O  O125  1  0.06911300  0.43088700  0.93088700  1
  O  O126  1  0.56911300  0.06911300  0.06911300  1
  O  O127  1  0.93088700  0.43088700  0.06911300  1
  O  O128  1  0.74921750  0.38642075  0.88642075  1
  O  O129  1  0.11357925  0.24921750  0.11357925  1
  O  O130  1  0.38642075  0.25078250  0.11357925  1
  O  O131  1  0.38642075  0.11357925  0.25078250  1
  O  O132  1  0.61357925  0.11357925  0.74921750  1
  O  O133  1  0.75078250  0.11357925  0.88642075  1
  O  O134  1  0.25078250  0.38642075  0.11357925  1
  O  O135  1  0.61357925  0.25078250  0.88642075  1
  O  O136  1  0.11357925  0.38642075  0.25078250  1
  O  O137  1  0.88642075  0.38642075  0.74921750  1
  O  O138  1  0.88642075  0.24921750  0.88642075  1
  O  O139  1  0.24921750  0.11357925  0.11357925  1
  O  O140  1  0.75077600  0.11436650  0.11436650  1
  O  O141  1  0.38563350  0.25077600  0.88563350  1
  O  O142  1  0.11436650  0.24922400  0.88563350  1
  O  O143  1  0.11436650  0.38563350  0.74922400  1
  O  O144  1  0.88563350  0.38563350  0.25077600  1
  O  O145  1  0.74922400  0.88563350  0.61436650  1
  O  O146  1  0.24922400  0.61436650  0.38563350  1
  O  O147  1  0.88563350  0.74922400  0.61436650  1
  O  O148  1  0.38563350  0.61436650  0.24922400  1
  O  O149  1  0.61436650  0.61436650  0.75077600  1
  O  O150  1  0.43088700  0.56911300  0.43088700  1
  O  O151  1  0.61436650  0.75077600  0.61436650  1
  O  O152  1  0.25077600  0.88563350  0.38563350  1
  O  O153  1  0.25000000  0.75000000  0.75000000  1
  O  O154  1  0.06911300  0.93088700  0.43088700  1
  O  O155  1  0.56911300  0.56911300  0.56911300  1
  O  O156  1  0.93088700  0.93088700  0.56911300  1
  O  O157  1  0.74921750  0.88642075  0.38642075  1
  O  O158  1  0.11357925  0.74921750  0.61357925  1
  O  O159  1  0.38642075  0.75078250  0.61357925  1
  O  O160  1  0.38642075  0.61357925  0.75078250  1
  O  O161  1  0.61357925  0.61357925  0.24921750  1
  O  O162  1  0.75078250  0.61357925  0.38642075  1
  O  O163  1  0.25078250  0.88642075  0.61357925  1
  O  O164  1  0.61357925  0.75078250  0.38642075  1
  O  O165  1  0.11357925  0.88642075  0.75078250  1
  O  O166  1  0.88642075  0.88642075  0.24921750  1
  O  O167  1  0.88642075  0.74921750  0.38642075  1
  O  O168  1  0.24921750  0.61357925  0.61357925  1
  O  O169  1  0.75077600  0.61436650  0.61436650  1
  O  O170  1  0.38563350  0.75077600  0.38563350  1
  O  O171  1  0.11436650  0.74922400  0.38563350  1
  O  O172  1  0.11436650  0.88563350  0.24922400  1
  O  O173  1  0.88563350  0.88563350  0.75077600  1
  O  O174  1  0.24922400  0.38563350  0.61436650  1
  O  O175  1  0.74922400  0.11436650  0.38563350  1
  O  O176  1  0.38563350  0.24922400  0.61436650  1
  O  O177  1  0.88563350  0.11436650  0.24922400  1
  O  O178  1  0.11436650  0.11436650  0.75077600  1
  O  O179  1  0.93088700  0.06911300  0.43088700  1
  O  O180  1  0.11436650  0.25077600  0.61436650  1
  O  O181  1  0.75077600  0.38563350  0.38563350  1
  O  O182  1  0.75000000  0.25000000  0.75000000  1
  O  O183  1  0.56911300  0.43088700  0.43088700  1
  O  O184  1  0.06911300  0.06911300  0.56911300  1
  O  O185  1  0.43088700  0.43088700  0.56911300  1
  O  O186  1  0.24921750  0.38642075  0.38642075  1
  O  O187  1  0.61357925  0.24921750  0.61357925  1
  O  O188  1  0.88642075  0.25078250  0.61357925  1
  O  O189  1  0.88642075  0.11357925  0.75078250  1
  O  O190  1  0.11357925  0.11357925  0.24921750  1
  O  O191  1  0.25078250  0.11357925  0.38642075  1
  O  O192  1  0.75078250  0.38642075  0.61357925  1
  O  O193  1  0.11357925  0.25078250  0.38642075  1
  O  O194  1  0.61357925  0.38642075  0.75078250  1
  O  O195  1  0.38642075  0.38642075  0.24921750  1
  O  O196  1  0.38642075  0.24921750  0.38642075  1
  O  O197  1  0.74921750  0.11357925  0.61357925  1
  O  O198  1  0.25077600  0.11436650  0.61436650  1
  O  O199  1  0.88563350  0.25077600  0.38563350  1
  O  O200  1  0.61436650  0.24922400  0.38563350  1
  O  O201  1  0.61436650  0.38563350  0.24922400  1
  O  O202  1  0.38563350  0.38563350  0.75077600  1
  O  O203  1  0.24922400  0.88563350  0.11436650  1
  O  O204  1  0.74922400  0.61436650  0.88563350  1
  O  O205  1  0.38563350  0.74922400  0.11436650  1
  O  O206  1  0.88563350  0.61436650  0.74922400  1
  O  O207  1  0.11436650  0.61436650  0.25077600  1
  O  O208  1  0.93088700  0.56911300  0.93088700  1
  O  O209  1  0.11436650  0.75077600  0.11436650  1
  O  O210  1  0.75077600  0.88563350  0.88563350  1
  O  O211  1  0.75000000  0.75000000  0.25000000  1
  O  O212  1  0.56911300  0.93088700  0.93088700  1
  O  O213  1  0.06911300  0.56911300  0.06911300  1
  O  O214  1  0.43088700  0.93088700  0.06911300  1
  O  O215  1  0.24921750  0.88642075  0.88642075  1
  O  O216  1  0.61357925  0.74921750  0.11357925  1
  O  O217  1  0.88642075  0.75078250  0.11357925  1
  O  O218  1  0.88642075  0.61357925  0.25078250  1
  O  O219  1  0.11357925  0.61357925  0.74921750  1
  O  O220  1  0.25078250  0.61357925  0.88642075  1
  O  O221  1  0.75078250  0.88642075  0.11357925  1
  O  O222  1  0.11357925  0.75078250  0.88642075  1
  O  O223  1  0.61357925  0.88642075  0.25078250  1
  O  O224  1  0.38642075  0.88642075  0.74921750  1
  O  O225  1  0.38642075  0.74921750  0.88642075  1
  O  O226  1  0.74921750  0.61357925  0.11357925  1
  O  O227  1  0.25077600  0.61436650  0.11436650  1
  O  O228  1  0.88563350  0.75077600  0.88563350  1
  O  O229  1  0.61436650  0.74922400  0.88563350  1
  O  O230  1  0.61436650  0.88563350  0.74922400  1
  O  O231  1  0.38563350  0.88563350  0.25077600  1
