# generated using pymatgen
data_Ca2PI
_symmetry_space_group_name_H-M   'P 1'
_cell_length_a   4.31041042
_cell_length_b   4.31041042
_cell_length_c   22.46376098
_cell_angle_alpha   90.00000000
_cell_angle_beta   90.00000000
_cell_angle_gamma   120.00000000
_symmetry_Int_Tables_number   1
_chemical_formula_structural   Ca2PI
_chemical_formula_sum   'Ca6 P3 I3'
_cell_volume   361.45176499
_cell_formula_units_Z   3
loop_
 _symmetry_equiv_pos_site_id
 _symmetry_equiv_pos_as_xyz
  1  'x, y, z'
loop_
 _atom_site_type_symbol
 _atom_site_label
 _atom_site_symmetry_multiplicity
 _atom_site_fract_x
 _atom_site_fract_y
 _atom_site_fract_z
 _atom_site_occupancy
  Ca  Ca0  1  0.00000000  0.00000000  0.22928000  1
  Ca  Ca1  1  0.66666667  0.33333333  0.10405333  1
  Ca  Ca2  1  0.66666667  0.33333333  0.56261333  1
  Ca  Ca3  1  0.33333333  0.66666667  0.43738667  1
  Ca  Ca4  1  0.33333333  0.66666667  0.89594667  1
  Ca  Ca5  1  0.00000000  0.00000000  0.77072000  1
  P  P6  1  0.33333333  0.66666667  0.16666667  1
  P  P7  1  1.00000000  1.00000000  0.50000000  1
  P  P8  1  0.66666667  0.33333333  0.83333333  1
  I  I9  1  0.00000000  0.00000000  0.00000000  1
  I  I10  1  0.66666667  0.33333333  0.33333333  1
  I  I11  1  0.33333333  0.66666667  0.66666667  1
