# generated using pymatgen
data_H5BrO2
_symmetry_space_group_name_H-M   'P 1'
_cell_length_a   4.26466800
_cell_length_b   12.62576400
_cell_length_c   6.97744498
_cell_angle_alpha   90.00000000
_cell_angle_beta   100.92783945
_cell_angle_gamma   90.00000000
_symmetry_Int_Tables_number   1
_chemical_formula_structural   H5BrO2
_chemical_formula_sum   'H20 Br4 O8'
_cell_volume   368.88572915
_cell_formula_units_Z   4
loop_
 _symmetry_equiv_pos_site_id
 _symmetry_equiv_pos_as_xyz
  1  'x, y, z'
loop_
 _atom_site_type_symbol
 _atom_site_label
 _atom_site_symmetry_multiplicity
 _atom_site_fract_x
 _atom_site_fract_y
 _atom_site_fract_z
 _atom_site_occupancy
  H  H0  1  0.77238200  0.39761600  0.09942100  1
  H  H1  1  0.22761800  0.89761600  0.40057900  1
  H  H2  1  0.22761800  0.60238400  0.90057900  1
  H  H3  1  0.77238200  0.10238400  0.59942100  1
  H  H4  1  0.78016800  0.51311800  0.19968300  1
  H  H5  1  0.21983200  0.01311800  0.30031700  1
  H  H6  1  0.21983200  0.48688200  0.80031700  1
  H  H7  1  0.78016800  0.98688200  0.69968300  1
  H  H8  1  0.61121100  0.35285300  0.57798300  1
  H  H9  1  0.38878900  0.85285300  0.92201700  1
  H  H10  1  0.38878900  0.64714700  0.42201700  1
  H  H11  1  0.61121100  0.14714700  0.07798300  1
  H  H12  1  0.57054400  0.09801600  0.83404100  1
  H  H13  1  0.42945600  0.59801600  0.66595900  1
  H  H14  1  0.42945600  0.90198400  0.16595900  1
  H  H15  1  0.57054400  0.40198400  0.33404100  1
  H  H16  1  0.30819800  0.19123600  0.91977300  1
  H  H17  1  0.69180200  0.69123600  0.58022700  1
  H  H18  1  0.69180200  0.80876400  0.08022700  1
  H  H19  1  0.30819800  0.30876400  0.41977300  1
  Br  Br20  1  0.97798200  0.16833600  0.34212300  1
  Br  Br21  1  0.02201800  0.66833600  0.15787700  1
  Br  Br22  1  0.02201800  0.83166400  0.65787700  1
  Br  Br23  1  0.97798200  0.33166400  0.84212300  1
  O  O24  1  0.68424300  0.44108000  0.19536800  1
  O  O25  1  0.31575700  0.94108000  0.30463200  1
  O  O26  1  0.31575700  0.55892000  0.80463200  1
  O  O27  1  0.68424300  0.05892000  0.69536800  1
  O  O28  1  0.44804800  0.37203100  0.45869000  1
  O  O29  1  0.55195200  0.87203100  0.04131000  1
  O  O30  1  0.55195200  0.62796900  0.54131000  1
  O  O31  1  0.44804800  0.12796900  0.95869000  1
