# generated using pymatgen
data_Mg3Si2H4O9
_symmetry_space_group_name_H-M   'P 1'
_cell_length_a   5.37139415
_cell_length_b   5.37139415
_cell_length_c   14.80712700
_cell_angle_alpha   90.00000000
_cell_angle_beta   90.00000000
_cell_angle_gamma   120.00000000
_symmetry_Int_Tables_number   1
_chemical_formula_structural   Mg3Si2H4O9
_chemical_formula_sum   'Mg6 Si4 H8 O18'
_cell_volume   369.97763881
_cell_formula_units_Z   2
loop_
 _symmetry_equiv_pos_site_id
 _symmetry_equiv_pos_as_xyz
  1  'x, y, z'
loop_
 _atom_site_type_symbol
 _atom_site_label
 _atom_site_symmetry_multiplicity
 _atom_site_fract_x
 _atom_site_fract_y
 _atom_site_fract_z
 _atom_site_occupancy
  Mg  Mg0  1  0.00000000  0.66874850  0.72241900  1
  Mg  Mg1  1  0.33125150  0.00000000  0.22241900  1
  Mg  Mg2  1  0.66874850  0.66874850  0.22241900  1
  Mg  Mg3  1  0.33125150  0.33125150  0.72241900  1
  Mg  Mg4  1  0.00000000  0.33125150  0.22241900  1
  Mg  Mg5  1  0.66874850  0.00000000  0.72241900  1
  Si  Si6  1  0.66666667  0.33333333  0.53215100  1
  Si  Si7  1  0.33333333  0.66666667  0.03215100  1
  Si  Si8  1  0.66666667  0.33333333  0.03215100  1
  Si  Si9  1  0.33333333  0.66666667  0.53215100  1
  H  H10  1  0.00000000  0.00000000  0.08249100  1
  H  H11  1  0.00000000  0.00000000  0.58249100  1
  H  H12  1  0.00000000  0.64883350  0.35393100  1
  H  H13  1  0.35116650  0.00000000  0.85393100  1
  H  H14  1  0.64883350  0.64883350  0.85393100  1
  H  H15  1  0.35116650  0.35116650  0.35393100  1
  H  H16  1  0.64883350  0.00000000  0.35393100  1
  H  H17  1  0.00000000  0.35116650  0.85393100  1
  O  O18  1  0.00000000  0.00000000  0.14778700  1
  O  O19  1  0.00000000  0.00000000  0.64778700  1
  O  O20  1  0.66666667  0.33333333  0.64086700  1
  O  O21  1  0.33333333  0.66666667  0.14086700  1
  O  O22  1  0.66666667  0.33333333  0.14086700  1
  O  O23  1  0.33333333  0.66666667  0.64086700  1
  O  O24  1  0.00000000  0.51183550  0.49076400  1
  O  O25  1  0.48816450  0.00000000  0.99076400  1
  O  O26  1  0.51183550  0.51183550  0.99076400  1
  O  O27  1  0.48816450  0.48816450  0.49076400  1
  O  O28  1  0.51183550  0.00000000  0.49076400  1
  O  O29  1  0.00000000  0.48816450  0.99076400  1
  O  O30  1  0.00000000  0.33614750  0.78854700  1
  O  O31  1  0.66385250  0.00000000  0.28854700  1
  O  O32  1  0.33614750  0.33614750  0.28854700  1
  O  O33  1  0.66385250  0.66385250  0.78854700  1
  O  O34  1  0.33614750  0.00000000  0.78854700  1
  O  O35  1  0.00000000  0.66385250  0.28854700  1
