# generated using pymatgen
data_Bi2TeO5
_symmetry_space_group_name_H-M   'P 1'
_cell_length_a   5.60780000
_cell_length_b   16.79955800
_cell_length_c   11.71846300
_cell_angle_alpha   90.00000000
_cell_angle_beta   90.00000000
_cell_angle_gamma   90.00000000
_symmetry_Int_Tables_number   1
_chemical_formula_structural   Bi2TeO5
_chemical_formula_sum   'Bi16 Te8 O40'
_cell_volume   1103.97954049
_cell_formula_units_Z   8
loop_
 _symmetry_equiv_pos_site_id
 _symmetry_equiv_pos_as_xyz
  1  'x, y, z'
loop_
 _atom_site_type_symbol
 _atom_site_label
 _atom_site_symmetry_multiplicity
 _atom_site_fract_x
 _atom_site_fract_y
 _atom_site_fract_z
 _atom_site_occupancy
  Bi  Bi0  1  0.00350700  0.25000000  0.61699800  1
  Bi  Bi1  1  0.50350700  0.25000000  0.38300200  1
  Bi  Bi2  1  0.48920300  0.25000000  0.87018900  1
  Bi  Bi3  1  0.98920300  0.25000000  0.12981100  1
  Bi  Bi4  1  0.96987550  0.08464750  0.39249800  1
  Bi  Bi5  1  0.46987550  0.41535250  0.60750200  1
  Bi  Bi6  1  0.46987550  0.08464750  0.60750200  1
  Bi  Bi7  1  0.96987550  0.41535250  0.39249800  1
  Bi  Bi8  1  0.50350700  0.75000000  0.61699800  1
  Bi  Bi9  1  0.00350700  0.75000000  0.38300200  1
  Bi  Bi10  1  0.98920300  0.75000000  0.87018900  1
  Bi  Bi11  1  0.48920300  0.75000000  0.12981100  1
  Bi  Bi12  1  0.46987550  0.58464750  0.39249800  1
  Bi  Bi13  1  0.96987550  0.91535250  0.60750200  1
  Bi  Bi14  1  0.96987550  0.58464750  0.60750200  1
  Bi  Bi15  1  0.46987550  0.91535250  0.39249800  1
  Te  Te16  1  0.47586300  0.08379100  0.13254100  1
  Te  Te17  1  0.97586300  0.41620900  0.86745900  1
  Te  Te18  1  0.97586300  0.08379100  0.86745900  1
  Te  Te19  1  0.47586300  0.41620900  0.13254100  1
  Te  Te20  1  0.97586300  0.58379100  0.13254100  1
  Te  Te21  1  0.47586300  0.91620900  0.86745900  1
  Te  Te22  1  0.47586300  0.58379100  0.86745900  1
  Te  Te23  1  0.97586300  0.91620900  0.13254100  1
  O  O24  1  0.28607950  0.15906450  0.21306100  1
  O  O25  1  0.78607950  0.34093550  0.78693900  1
  O  O26  1  0.78607950  0.15906450  0.78693900  1
  O  O27  1  0.28607950  0.34093550  0.21306100  1
  O  O28  1  0.69676050  0.16056450  0.48525800  1
  O  O29  1  0.19676050  0.33943550  0.51474200  1
  O  O30  1  0.19676050  0.16056450  0.51474200  1
  O  O31  1  0.69676050  0.33943550  0.48525800  1
  O  O32  1  0.35574600  0.25000000  0.70372800  1
  O  O33  1  0.85574600  0.25000000  0.29627200  1
  O  O34  1  0.71572200  0.15087900  0.06699800  1
  O  O35  1  0.21572200  0.34912100  0.93300200  1
  O  O36  1  0.64741450  0.45768950  0.25754800  1
  O  O37  1  0.14741450  0.04231050  0.74245200  1
  O  O38  1  0.14741450  0.45768950  0.74245200  1
  O  O39  1  0.64741450  0.04231050  0.25754800  1
  O  O40  1  0.26101300  0.00000000  0.50000000  1
  O  O41  1  0.76101300  0.00000000  0.50000000  1
  O  O42  1  0.71572200  0.34912100  0.06699800  1
  O  O43  1  0.21572200  0.15087900  0.93300200  1
  O  O44  1  0.78607950  0.65906450  0.21306100  1
  O  O45  1  0.28607950  0.84093550  0.78693900  1
  O  O46  1  0.28607950  0.65906450  0.78693900  1
  O  O47  1  0.78607950  0.84093550  0.21306100  1
  O  O48  1  0.19676050  0.66056450  0.48525800  1
  O  O49  1  0.69676050  0.83943550  0.51474200  1
  O  O50  1  0.69676050  0.66056450  0.51474200  1
  O  O51  1  0.19676050  0.83943550  0.48525800  1
  O  O52  1  0.85574600  0.75000000  0.70372800  1
  O  O53  1  0.35574600  0.75000000  0.29627200  1
  O  O54  1  0.21572200  0.65087900  0.06699800  1
  O  O55  1  0.71572200  0.84912100  0.93300200  1
  O  O56  1  0.14741450  0.95768950  0.25754800  1
  O  O57  1  0.64741450  0.54231050  0.74245200  1
  O  O58  1  0.64741450  0.95768950  0.74245200  1
  O  O59  1  0.14741450  0.54231050  0.25754800  1
  O  O60  1  0.76101300  0.50000000  0.50000000  1
  O  O61  1  0.26101300  0.50000000  0.50000000  1
  O  O62  1  0.21572200  0.84912100  0.06699800  1
  O  O63  1  0.71572200  0.65087900  0.93300200  1
