# generated using pymatgen
data_Cd2P3Cl
_symmetry_space_group_name_H-M   'P 1'
_cell_length_a   8.12214400
_cell_length_b   9.14722800
_cell_length_c   7.66724285
_cell_angle_alpha   90.00000000
_cell_angle_beta   100.45492707
_cell_angle_gamma   90.00000000
_symmetry_Int_Tables_number   1
_chemical_formula_structural   Cd2P3Cl
_chemical_formula_sum   'Cd8 P12 Cl4'
_cell_volume   560.18143629
_cell_formula_units_Z   4
loop_
 _symmetry_equiv_pos_site_id
 _symmetry_equiv_pos_as_xyz
  1  'x, y, z'
loop_
 _atom_site_type_symbol
 _atom_site_label
 _atom_site_symmetry_multiplicity
 _atom_site_fract_x
 _atom_site_fract_y
 _atom_site_fract_z
 _atom_site_occupancy
  Cd  Cd0  1  0.51360600  0.84627400  0.43276800  1
  Cd  Cd1  1  0.51360600  0.15372600  0.93276800  1
  Cd  Cd2  1  0.49570300  0.34642800  0.50048300  1
  Cd  Cd3  1  0.49570300  0.65357200  0.00048300  1
  Cd  Cd4  1  0.01360600  0.34627400  0.43276800  1
  Cd  Cd5  1  0.01360600  0.65372600  0.93276800  1
  Cd  Cd6  1  0.99570300  0.84642800  0.50048300  1
  Cd  Cd7  1  0.99570300  0.15357200  0.00048300  1
  P  P8  1  0.75478950  0.80514150  0.96713400  1
  P  P9  1  0.75478950  0.19485850  0.46713400  1
  P  P10  1  0.63970250  0.95476950  0.75274800  1
  P  P11  1  0.63970250  0.04523050  0.25274800  1
  P  P12  1  0.86963250  0.04517850  0.68150400  1
  P  P13  1  0.86963250  0.95482150  0.18150400  1
  P  P14  1  0.25478950  0.30514150  0.96713400  1
  P  P15  1  0.25478950  0.69485850  0.46713400  1
  P  P16  1  0.13970250  0.45476950  0.75274800  1
  P  P17  1  0.13970250  0.54523050  0.25274800  1
  P  P18  1  0.36963250  0.54517850  0.68150400  1
  P  P19  1  0.36963250  0.45482150  0.18150400  1
  Cl  Cl20  1  0.25556550  0.13610650  0.47336300  1
  Cl  Cl21  1  0.25556550  0.86389350  0.97336300  1
  Cl  Cl22  1  0.75556550  0.63610650  0.47336300  1
  Cl  Cl23  1  0.75556550  0.36389350  0.97336300  1
