# generated using pymatgen
data_LaNb5O14
_symmetry_space_group_name_H-M   'P 1'
_cell_length_a   3.92979900
_cell_length_b   12.66321000
_cell_length_c   20.45992900
_cell_angle_alpha   90.00000000
_cell_angle_beta   90.00000000
_cell_angle_gamma   90.00000000
_symmetry_Int_Tables_number   1
_chemical_formula_structural   LaNb5O14
_chemical_formula_sum   'La4 Nb20 O56'
_cell_volume   1018.16524686
_cell_formula_units_Z   4
loop_
 _symmetry_equiv_pos_site_id
 _symmetry_equiv_pos_as_xyz
  1  'x, y, z'
loop_
 _atom_site_type_symbol
 _atom_site_label
 _atom_site_symmetry_multiplicity
 _atom_site_fract_x
 _atom_site_fract_y
 _atom_site_fract_z
 _atom_site_occupancy
  La  La0  1  0.00404400  0.75000000  0.50000000  1
  La  La1  1  0.99595600  0.25000000  0.00000000  1
  La  La2  1  0.99595600  0.25000000  0.50000000  1
  La  La3  1  0.00404400  0.75000000  0.00000000  1
  Nb  Nb4  1  0.54872100  0.99963100  0.25000000  1
  Nb  Nb5  1  0.54872100  0.50036900  0.75000000  1
  Nb  Nb6  1  0.45127900  0.49963100  0.25000000  1
  Nb  Nb7  1  0.45127900  0.00036900  0.75000000  1
  Nb  Nb8  1  0.46638700  0.72563700  0.65576000  1
  Nb  Nb9  1  0.46638700  0.77436300  0.34424000  1
  Nb  Nb10  1  0.53361300  0.22563700  0.84424000  1
  Nb  Nb11  1  0.53361300  0.27436300  0.15576000  1
  Nb  Nb12  1  0.53361300  0.27436300  0.34424000  1
  Nb  Nb13  1  0.53361300  0.22563700  0.65576000  1
  Nb  Nb14  1  0.46638700  0.77436300  0.15576000  1
  Nb  Nb15  1  0.46638700  0.72563700  0.84424000  1
  Nb  Nb16  1  0.50092600  0.95827000  0.57717600  1
  Nb  Nb17  1  0.50092600  0.54173000  0.42282400  1
  Nb  Nb18  1  0.49907400  0.45827000  0.92282400  1
  Nb  Nb19  1  0.49907400  0.04173000  0.07717600  1
  Nb  Nb20  1  0.49907400  0.04173000  0.42282400  1
  Nb  Nb21  1  0.49907400  0.45827000  0.57717600  1
  Nb  Nb22  1  0.50092600  0.54173000  0.07717600  1
  Nb  Nb23  1  0.50092600  0.95827000  0.92282400  1
  O  O24  1  0.51533000  0.82469200  0.25000000  1
  O  O25  1  0.51533000  0.67530800  0.75000000  1
  O  O26  1  0.48467000  0.32469200  0.25000000  1
  O  O27  1  0.48467000  0.17530800  0.75000000  1
  O  O28  1  0.01271800  0.99596200  0.25000000  1
  O  O29  1  0.01271800  0.50403800  0.75000000  1
  O  O30  1  0.98728200  0.49596200  0.25000000  1
  O  O31  1  0.98728200  0.00403800  0.75000000  1
  O  O32  1  0.50746400  0.08746300  0.52695300  1
  O  O33  1  0.50746400  0.41253700  0.47304700  1
  O  O34  1  0.49253600  0.58746300  0.97304700  1
  O  O35  1  0.49253600  0.91253700  0.02695300  1
  O  O36  1  0.49253600  0.91253700  0.47304700  1
  O  O37  1  0.49253600  0.58746300  0.52695300  1
  O  O38  1  0.50746400  0.41253700  0.02695300  1
  O  O39  1  0.50746400  0.08746300  0.97304700  1
  O  O40  1  0.49733800  0.05787600  0.65383400  1
  O  O41  1  0.49733800  0.44212400  0.34616600  1
  O  O42  1  0.50266200  0.55787600  0.84616600  1
  O  O43  1  0.48069000  0.86982300  0.81446700  1
  O  O44  1  0.50266200  0.94212400  0.15383400  1
  O  O45  1  0.50266200  0.55787600  0.65383400  1
  O  O46  1  0.49733800  0.44212400  0.15383400  1
  O  O47  1  0.49733800  0.05787600  0.84616600  1
  O  O48  1  0.99716500  0.70909100  0.86227300  1
  O  O49  1  0.99716500  0.79090900  0.13772700  1
  O  O50  1  0.00283500  0.20909100  0.63772700  1
  O  O51  1  0.00283500  0.29090900  0.36227300  1
  O  O52  1  0.00283500  0.29090900  0.13772700  1
  O  O53  1  0.00283500  0.20909100  0.86227300  1
  O  O54  1  0.99716500  0.79090900  0.36227300  1
  O  O55  1  0.99716500  0.70909100  0.63772700  1
  O  O56  1  0.50585700  0.70906000  0.06680700  1
  O  O57  1  0.50585700  0.79094000  0.93319300  1
  O  O58  1  0.49414300  0.20906000  0.43319300  1
  O  O59  1  0.49414300  0.29094000  0.56680700  1
  O  O60  1  0.49414300  0.29094000  0.93319300  1
  O  O61  1  0.49414300  0.20906000  0.06680700  1
  O  O62  1  0.50585700  0.79094000  0.56680700  1
  O  O63  1  0.50585700  0.70906000  0.43319300  1
  O  O64  1  0.00057200  0.56616500  0.07357900  1
  O  O65  1  0.00057200  0.93383500  0.92642100  1
  O  O66  1  0.99942800  0.06616500  0.42642100  1
  O  O67  1  0.99942800  0.43383500  0.57357900  1
  O  O68  1  0.99942800  0.43383500  0.92642100  1
  O  O69  1  0.99942800  0.06616500  0.07357900  1
  O  O70  1  0.00057200  0.93383500  0.57357900  1
  O  O71  1  0.00057200  0.56616500  0.42642100  1
  O  O72  1  0.48069000  0.86982300  0.68553300  1
  O  O73  1  0.48069000  0.63017700  0.31446700  1
  O  O74  1  0.51931000  0.36982300  0.81446700  1
  O  O75  1  0.51931000  0.13017700  0.18553300  1
  O  O76  1  0.51931000  0.13017700  0.31446700  1
  O  O77  1  0.51931000  0.36982300  0.68553300  1
  O  O78  1  0.48069000  0.63017700  0.18553300  1
  O  O79  1  0.50266200  0.94212400  0.34616600  1
