# generated using pymatgen
data_LiH2N
_symmetry_space_group_name_H-M   'P 1'
_cell_length_a   5.08548000
_cell_length_b   5.08548000
_cell_length_c   10.52875400
_cell_angle_alpha   90.00000000
_cell_angle_beta   90.00000000
_cell_angle_gamma   90.00000000
_symmetry_Int_Tables_number   1
_chemical_formula_structural   LiH2N
_chemical_formula_sum   'Li8 H16 N8'
_cell_volume   272.29576074
_cell_formula_units_Z   8
loop_
 _symmetry_equiv_pos_site_id
 _symmetry_equiv_pos_as_xyz
  1  'x, y, z'
loop_
 _atom_site_type_symbol
 _atom_site_label
 _atom_site_symmetry_multiplicity
 _atom_site_fract_x
 _atom_site_fract_y
 _atom_site_fract_z
 _atom_site_occupancy
  Li  Li0  1  0.00000000  0.00000000  0.00000000  1
  Li  Li1  1  0.50000000  0.00000000  0.25000000  1
  Li  Li2  1  0.50000000  0.00000000  0.49211000  1
  Li  Li3  1  0.50000000  0.00000000  0.00789000  1
  Li  Li4  1  0.50000000  0.50000000  0.50000000  1
  Li  Li5  1  0.00000000  0.50000000  0.75000000  1
  Li  Li6  1  0.00000000  0.50000000  0.99211000  1
  Li  Li7  1  0.00000000  0.50000000  0.50789000  1
  H  H8  1  0.27359900  0.38359500  0.31048200  1
  H  H9  1  0.72640100  0.61640500  0.31048200  1
  H  H10  1  0.11640500  0.77359900  0.18951800  1
  H  H11  1  0.88359500  0.22640100  0.18951800  1
  H  H12  1  0.09263500  0.16530300  0.37664400  1
  H  H13  1  0.90736500  0.83469700  0.37664400  1
  H  H14  1  0.33469700  0.59263500  0.12335600  1
  H  H15  1  0.66530300  0.40736500  0.12335600  1
  H  H16  1  0.77359900  0.88359500  0.81048200  1
  H  H17  1  0.22640100  0.11640500  0.81048200  1
  H  H18  1  0.61640500  0.27359900  0.68951800  1
  H  H19  1  0.38359500  0.72640100  0.68951800  1
  H  H20  1  0.59263500  0.66530300  0.87664400  1
  H  H21  1  0.40736500  0.33469700  0.87664400  1
  H  H22  1  0.83469700  0.09263500  0.62335600  1
  H  H23  1  0.16530300  0.90736500  0.62335600  1
  N  N24  1  0.27263600  0.25390900  0.38579700  1
  N  N25  1  0.72736400  0.74609100  0.38579700  1
  N  N26  1  0.24609100  0.77263600  0.11420300  1
  N  N27  1  0.75390900  0.22736400  0.11420300  1
  N  N28  1  0.77263600  0.75390900  0.88579700  1
  N  N29  1  0.22736400  0.24609100  0.88579700  1
  N  N30  1  0.74609100  0.27263600  0.61420300  1
  N  N31  1  0.25390900  0.72736400  0.61420300  1
