# generated using pymatgen
data_NO2
_symmetry_space_group_name_H-M   'P 1'
_cell_length_a   8.20102800
_cell_length_b   8.20102800
_cell_length_c   8.20102800
_cell_angle_alpha   90.00000000
_cell_angle_beta   90.00000000
_cell_angle_gamma   90.00000000
_symmetry_Int_Tables_number   1
_chemical_formula_structural   NO2
_chemical_formula_sum   'N12 O24'
_cell_volume   551.57539416
_cell_formula_units_Z   12
loop_
 _symmetry_equiv_pos_site_id
 _symmetry_equiv_pos_as_xyz
  1  'x, y, z'
loop_
 _atom_site_type_symbol
 _atom_site_label
 _atom_site_symmetry_multiplicity
 _atom_site_fract_x
 _atom_site_fract_y
 _atom_site_fract_z
 _atom_site_occupancy
  N  N0  1  0.38720300  0.00000000  0.00000000  1
  N  N1  1  0.00000000  0.61279700  0.00000000  1
  N  N2  1  0.00000000  0.00000000  0.61279700  1
  N  N3  1  0.00000000  0.00000000  0.38720300  1
  N  N4  1  0.00000000  0.38720300  0.00000000  1
  N  N5  1  0.61279700  0.00000000  0.00000000  1
  N  N6  1  0.88720300  0.50000000  0.50000000  1
  N  N7  1  0.50000000  0.11279700  0.50000000  1
  N  N8  1  0.50000000  0.50000000  0.11279700  1
  N  N9  1  0.50000000  0.50000000  0.88720300  1
  N  N10  1  0.50000000  0.88720300  0.50000000  1
  N  N11  1  0.11279700  0.50000000  0.50000000  1
  O  O12  1  0.83039600  0.50000000  0.36460800  1
  O  O13  1  0.13539200  0.66960400  0.00000000  1
  O  O14  1  0.50000000  0.36460800  0.16960400  1
  O  O15  1  0.36460800  0.16960400  0.50000000  1
  O  O16  1  0.00000000  0.13539200  0.33039600  1
  O  O17  1  0.36460800  0.83039600  0.50000000  1
  O  O18  1  0.50000000  0.36460800  0.83039600  1
  O  O19  1  0.00000000  0.13539200  0.66960400  1
  O  O20  1  0.13539200  0.33039600  0.00000000  1
  O  O21  1  0.16960400  0.50000000  0.36460800  1
  O  O22  1  0.33039600  0.00000000  0.13539200  1
  O  O23  1  0.66960400  0.00000000  0.13539200  1
  O  O24  1  0.33039600  0.00000000  0.86460800  1
  O  O25  1  0.63539200  0.16960400  0.50000000  1
  O  O26  1  0.00000000  0.86460800  0.66960400  1
  O  O27  1  0.86460800  0.66960400  0.00000000  1
  O  O28  1  0.50000000  0.63539200  0.83039600  1
  O  O29  1  0.86460800  0.33039600  0.00000000  1
  O  O30  1  0.00000000  0.86460800  0.33039600  1
  O  O31  1  0.50000000  0.63539200  0.16960400  1
  O  O32  1  0.63539200  0.83039600  0.50000000  1
  O  O33  1  0.66960400  0.00000000  0.86460800  1
  O  O34  1  0.83039600  0.50000000  0.63539200  1
  O  O35  1  0.16960400  0.50000000  0.63539200  1
