# generated using pymatgen
data_LiMgH3
_symmetry_space_group_name_H-M   'P 1'
_cell_length_a   4.95851019
_cell_length_b   4.95851019
_cell_length_c   13.31317298
_cell_angle_alpha   90.00000000
_cell_angle_beta   90.00000000
_cell_angle_gamma   120.00000000
_symmetry_Int_Tables_number   1
_chemical_formula_structural   LiMgH3
_chemical_formula_sum   'Li6 Mg6 H18'
_cell_volume   283.47491088
_cell_formula_units_Z   6
loop_
 _symmetry_equiv_pos_site_id
 _symmetry_equiv_pos_as_xyz
  1  'x, y, z'
loop_
 _atom_site_type_symbol
 _atom_site_label
 _atom_site_symmetry_multiplicity
 _atom_site_fract_x
 _atom_site_fract_y
 _atom_site_fract_z
 _atom_site_occupancy
  Li  Li0  1  0.66666667  0.33333333  0.04439633  1
  Li  Li1  1  0.00000000  0.00000000  0.21106300  1
  Li  Li2  1  0.33333333  0.66666667  0.37772967  1
  Li  Li3  1  0.66666667  0.33333333  0.54439633  1
  Li  Li4  1  0.00000000  0.00000000  0.71106300  1
  Li  Li5  1  0.33333333  0.66666667  0.87772967  1
  Mg  Mg6  1  0.00000000  0.00000000  0.00081400  1
  Mg  Mg7  1  0.33333333  0.66666667  0.16748067  1
  Mg  Mg8  1  0.66666667  0.33333333  0.33414733  1
  Mg  Mg9  1  0.00000000  0.00000000  0.50081400  1
  Mg  Mg10  1  0.33333333  0.66666667  0.66748067  1
  Mg  Mg11  1  0.66666667  0.33333333  0.83414733  1
  H  H12  1  0.62903167  0.65904133  0.26944133  1
  H  H13  1  0.03000967  0.37096833  0.26944133  1
  H  H14  1  0.34095867  0.96999033  0.26944133  1
  H  H15  1  0.00762533  0.70430167  0.10277467  1
  H  H16  1  0.29569833  0.30332367  0.10277467  1
  H  H17  1  0.69667633  0.99237467  0.10277467  1
  H  H18  1  0.29569833  0.99237467  0.60277467  1
  H  H19  1  0.69667633  0.70430167  0.60277467  1
  H  H20  1  0.00762533  0.30332367  0.60277467  1
  H  H21  1  0.67429200  0.03763500  0.43610800  1
  H  H22  1  0.96236500  0.63665700  0.43610800  1
  H  H23  1  0.36334300  0.32570800  0.43610800  1
  H  H24  1  0.96236500  0.32570800  0.93610800  1
  H  H25  1  0.36334300  0.03763500  0.93610800  1
  H  H26  1  0.67429200  0.63665700  0.93610800  1
  H  H27  1  0.34095867  0.37096833  0.76944133  1
  H  H28  1  0.62903167  0.96999033  0.76944133  1
  H  H29  1  0.03000967  0.65904133  0.76944133  1
