# generated using pymatgen
data_Na4BeAlSi4ClO12
_symmetry_space_group_name_H-M   'P 1'
_cell_length_a   8.73148000
_cell_length_b   8.73148000
_cell_length_c   8.95934600
_cell_angle_alpha   90.00000000
_cell_angle_beta   90.00000000
_cell_angle_gamma   90.00000000
_symmetry_Int_Tables_number   1
_chemical_formula_structural   Na4BeAlSi4ClO12
_chemical_formula_sum   'Na8 Be2 Al2 Si8 Cl2 O24'
_cell_volume   683.04927706
_cell_formula_units_Z   2
loop_
 _symmetry_equiv_pos_site_id
 _symmetry_equiv_pos_as_xyz
  1  'x, y, z'
loop_
 _atom_site_type_symbol
 _atom_site_label
 _atom_site_symmetry_multiplicity
 _atom_site_fract_x
 _atom_site_fract_y
 _atom_site_fract_z
 _atom_site_occupancy
  Na  Na0  1  0.69727550  0.34382050  0.31882250  1
  Na  Na1  1  0.30272450  0.65617950  0.31882250  1
  Na  Na2  1  0.84382050  0.80272450  0.18117750  1
  Na  Na3  1  0.15617950  0.19727550  0.18117750  1
  Na  Na4  1  0.19727550  0.84382050  0.81882250  1
  Na  Na5  1  0.80272450  0.15617950  0.81882250  1
  Na  Na6  1  0.34382050  0.30272450  0.68117750  1
  Na  Na7  1  0.65617950  0.69727550  0.68117750  1
  Be  Be8  1  0.00000000  0.50000000  0.25000000  1
  Be  Be9  1  0.50000000  0.00000000  0.75000000  1
  Al  Al10  1  0.50000000  0.00000000  0.25000000  1
  Al  Al11  1  0.00000000  0.50000000  0.75000000  1
  Si  Si12  1  0.24644600  0.51288700  0.00451300  1
  Si  Si13  1  0.01288700  0.25355400  0.49548700  1
  Si  Si14  1  0.25355400  0.98711300  0.50451300  1
  Si  Si15  1  0.48711300  0.24644600  0.99548700  1
  Si  Si16  1  0.74644600  0.01288700  0.50451300  1
  Si  Si17  1  0.51288700  0.75355400  0.99548700  1
  Si  Si18  1  0.75355400  0.48711300  0.00451300  1
  Si  Si19  1  0.98711300  0.74644600  0.49548700  1
  Cl  Cl20  1  0.00000000  0.00000000  0.00000000  1
  Cl  Cl21  1  0.50000000  0.50000000  0.50000000  1
  O  O22  1  0.96151250  0.34753550  0.35046950  1
  O  O23  1  0.86606100  0.15057400  0.55792500  1
  O  O24  1  0.34942600  0.36606100  0.94207500  1
  O  O25  1  0.34753550  0.03848750  0.64953050  1
  O  O26  1  0.53848750  0.15246450  0.85046950  1
  O  O27  1  0.63393900  0.34942600  0.05792500  1
  O  O28  1  0.15246450  0.46151250  0.14953050  1
  O  O29  1  0.42434150  0.14829850  0.13792450  1
  O  O30  1  0.14829850  0.57565850  0.86207550  1
  O  O31  1  0.35170150  0.92434150  0.36207550  1
  O  O32  1  0.07565850  0.35170150  0.63792450  1
  O  O33  1  0.15057400  0.13393900  0.44207500  1
  O  O34  1  0.46151250  0.84753550  0.85046950  1
  O  O35  1  0.36606100  0.65057400  0.05792500  1
  O  O36  1  0.84942600  0.86606100  0.44207500  1
  O  O37  1  0.84753550  0.53848750  0.14953050  1
  O  O38  1  0.03848750  0.65246450  0.35046950  1
  O  O39  1  0.13393900  0.84942600  0.55792500  1
  O  O40  1  0.65246450  0.96151250  0.64953050  1
  O  O41  1  0.92434150  0.64829850  0.63792450  1
  O  O42  1  0.64829850  0.07565850  0.36207550  1
  O  O43  1  0.85170150  0.42434150  0.86207550  1
  O  O44  1  0.57565850  0.85170150  0.13792450  1
  O  O45  1  0.65057400  0.63393900  0.94207500  1
