# generated using pymatgen
data_Li2TeO3
_symmetry_space_group_name_H-M   'P 1'
_cell_length_a   5.22672000
_cell_length_b   9.63231200
_cell_length_c   14.08794421
_cell_angle_alpha   90.00000000
_cell_angle_beta   94.97667586
_cell_angle_gamma   90.00000000
_symmetry_Int_Tables_number   1
_chemical_formula_structural   Li2TeO3
_chemical_formula_sum   'Li16 Te8 O24'
_cell_volume   706.58930046
_cell_formula_units_Z   8
loop_
 _symmetry_equiv_pos_site_id
 _symmetry_equiv_pos_as_xyz
  1  'x, y, z'
loop_
 _atom_site_type_symbol
 _atom_site_label
 _atom_site_symmetry_multiplicity
 _atom_site_fract_x
 _atom_site_fract_y
 _atom_site_fract_z
 _atom_site_occupancy
  Li  Li0  1  0.20340650  0.74993950  0.31715200  1
  Li  Li1  1  0.79659350  0.74993950  0.18284800  1
  Li  Li2  1  0.29659350  0.75006050  0.68284800  1
  Li  Li3  1  0.70340650  0.75006050  0.81715200  1
  Li  Li4  1  0.79634800  0.93572600  0.68457600  1
  Li  Li5  1  0.20365200  0.93572600  0.81542400  1
  Li  Li6  1  0.70365200  0.56427400  0.31542400  1
  Li  Li7  1  0.29634800  0.56427400  0.18457600  1
  Li  Li8  1  0.70340650  0.24993950  0.31715200  1
  Li  Li9  1  0.29659350  0.24993950  0.18284800  1
  Li  Li10  1  0.79659350  0.25006050  0.68284800  1
  Li  Li11  1  0.20340650  0.25006050  0.81715200  1
  Li  Li12  1  0.29634800  0.43572600  0.68457600  1
  Li  Li13  1  0.70365200  0.43572600  0.81542400  1
  Li  Li14  1  0.20365200  0.06427400  0.31542400  1
  Li  Li15  1  0.79634800  0.06427400  0.18457600  1
  Te  Te16  1  0.73406150  0.90675850  0.40610800  1
  Te  Te17  1  0.26593850  0.90675850  0.09389200  1
  Te  Te18  1  0.76593850  0.59324150  0.59389200  1
  Te  Te19  1  0.23406150  0.59324150  0.90610800  1
  Te  Te20  1  0.23406150  0.40675850  0.40610800  1
  Te  Te21  1  0.76593850  0.40675850  0.09389200  1
  Te  Te22  1  0.26593850  0.09324150  0.59389200  1
  Te  Te23  1  0.73406150  0.09324150  0.90610800  1
  O  O24  1  0.37400900  0.90825400  0.38285900  1
  O  O25  1  0.82530100  0.94341900  0.82923900  1
  O  O26  1  0.67469900  0.55658100  0.17076100  1
  O  O27  1  0.32530100  0.55658100  0.32923900  1
  O  O28  1  0.32303950  0.74228250  0.82789200  1
  O  O29  1  0.67696050  0.74228250  0.67210800  1
  O  O30  1  0.17696050  0.75771750  0.17210800  1
  O  O31  1  0.82303950  0.75771750  0.32789200  1
  O  O32  1  0.12599100  0.59174600  0.61714100  1
  O  O33  1  0.87400900  0.59174600  0.88285900  1
  O  O34  1  0.17469900  0.94341900  0.67076100  1
  O  O35  1  0.62599100  0.90825400  0.11714100  1
  O  O36  1  0.87400900  0.40825400  0.38285900  1
  O  O37  1  0.32530100  0.44341900  0.82923900  1
  O  O38  1  0.17469900  0.05658100  0.17076100  1
  O  O39  1  0.82530100  0.05658100  0.32923900  1
  O  O40  1  0.82303950  0.24228250  0.82789200  1
  O  O41  1  0.17696050  0.24228250  0.67210800  1
  O  O42  1  0.67696050  0.25771750  0.17210800  1
  O  O43  1  0.32303950  0.25771750  0.32789200  1
  O  O44  1  0.62599100  0.09174600  0.61714100  1
  O  O45  1  0.37400900  0.09174600  0.88285900  1
  O  O46  1  0.67469900  0.44341900  0.67076100  1
  O  O47  1  0.12599100  0.40825400  0.11714100  1
