# generated using pymatgen
data_RbB10H9
_symmetry_space_group_name_H-M   'P 1'
_cell_length_a   7.30088900
_cell_length_b   12.71810600
_cell_length_c   19.06721500
_cell_angle_alpha   90.00000000
_cell_angle_beta   90.00000000
_cell_angle_gamma   90.00000000
_symmetry_Int_Tables_number   1
_chemical_formula_structural   RbB10H9
_chemical_formula_sum   'Rb8 B80 H72'
_cell_volume   1770.45727040
_cell_formula_units_Z   8
loop_
 _symmetry_equiv_pos_site_id
 _symmetry_equiv_pos_as_xyz
  1  'x, y, z'
loop_
 _atom_site_type_symbol
 _atom_site_label
 _atom_site_symmetry_multiplicity
 _atom_site_fract_x
 _atom_site_fract_y
 _atom_site_fract_z
 _atom_site_occupancy
  Rb  Rb0  1  0.17022300  0.12656500  0.58066700  1
  Rb  Rb1  1  0.82977700  0.87343500  0.08066700  1
  Rb  Rb2  1  0.32977700  0.62656500  0.58066700  1
  Rb  Rb3  1  0.67022300  0.37343500  0.08066700  1
  Rb  Rb4  1  0.82485600  0.86609100  0.41842000  1
  Rb  Rb5  1  0.17514400  0.13390900  0.91842000  1
  Rb  Rb6  1  0.67514400  0.36609100  0.41842000  1
  Rb  Rb7  1  0.32485600  0.63390900  0.91842000  1
  B  B8  1  0.43377300  0.30002600  0.81726000  1
  B  B9  1  0.56622700  0.69997400  0.31726000  1
  B  B10  1  0.06622700  0.80002600  0.81726000  1
  B  B11  1  0.93377300  0.19997400  0.31726000  1
  B  B12  1  0.63991700  0.31027600  0.77801000  1
  B  B13  1  0.36008300  0.68972400  0.27801000  1
  B  B14  1  0.86008300  0.81027600  0.77801000  1
  B  B15  1  0.13991700  0.18972400  0.27801000  1
  B  B16  1  0.60157000  0.21778700  0.84909400  1
  B  B17  1  0.39843000  0.78221300  0.34909400  1
  B  B18  1  0.89843000  0.71778700  0.84909400  1
  B  B19  1  0.10157000  0.28221300  0.34909400  1
  B  B20  1  0.50734800  0.32708600  0.90025900  1
  B  B21  1  0.49265200  0.67291400  0.40025900  1
  B  B22  1  0.99265200  0.82708600  0.90025900  1
  B  B23  1  0.00734800  0.17291400  0.40025900  1
  B  B24  1  0.54283000  0.41766600  0.82851800  1
  B  B25  1  0.45717000  0.58233400  0.32851800  1
  B  B26  1  0.95717000  0.91766600  0.82851800  1
  B  B27  1  0.04283000  0.08233400  0.32851800  1
  B  B28  1  0.83059900  0.26412900  0.83008600  1
  B  B29  1  0.16940100  0.73587100  0.33008600  1
  B  B30  1  0.66940100  0.76412900  0.83008600  1
  B  B31  1  0.33059900  0.23587100  0.33008600  1
  B  B32  1  0.73674500  0.27861200  0.91723600  1
  B  B33  1  0.26325500  0.72138800  0.41723600  1
  B  B34  1  0.76325500  0.77861200  0.91723600  1
  B  B35  1  0.23674500  0.22138800  0.41723600  1
  B  B36  1  0.69579000  0.41940300  0.90297200  1
  B  B37  1  0.30421000  0.58059700  0.40297200  1
  B  B38  1  0.80421000  0.91940300  0.90297200  1
  B  B39  1  0.19579000  0.08059700  0.40297200  1
  B  B40  1  0.78731600  0.40295700  0.81510800  1
  B  B41  1  0.21268400  0.59704300  0.31510800  1
  B  B42  1  0.71268400  0.90295700  0.81510800  1
  B  B43  1  0.28731600  0.09704300  0.31510800  1
  B  B44  1  0.90347600  0.36055500  0.88616000  1
  B  B45  1  0.09652400  0.63944500  0.38616000  1
  B  B46  1  0.59652400  0.86055500  0.88616000  1
  B  B47  1  0.40347600  0.13944500  0.38616000  1
  B  B48  1  0.60324100  0.39857100  0.60987000  1
  B  B49  1  0.39675900  0.60142900  0.10987000  1
  B  B50  1  0.89675900  0.89857100  0.60987000  1
  B  B51  1  0.10324100  0.10142900  0.10987000  1
  B  B52  1  0.67572400  0.49559500  0.66542200  1
  B  B53  1  0.32427600  0.50440500  0.16542200  1
  B  B54  1  0.82427600  0.99559500  0.66542200  1
  B  B55  1  0.17572400  0.00440500  0.16542200  1
  B  B56  1  0.77019500  0.47984400  0.57819500  1
  B  B57  1  0.22980500  0.52015600  0.07819500  1
  B  B58  1  0.72980500  0.97984400  0.57819500  1
  B  B59  1  0.27019500  0.02015600  0.07819500  1
  B  B60  1  0.81090100  0.33938700  0.59354700  1
  B  B61  1  0.18909900  0.66061300  0.09354700  1
  B  B62  1  0.68909900  0.83938700  0.59354700  1
  B  B63  1  0.31090100  0.16061300  0.09354700  1
  B  B64  1  0.71917700  0.35695800  0.68117300  1
  B  B65  1  0.28082300  0.64304200  0.18117300  1
  B  B66  1  0.78082300  0.85695800  0.68117300  1
  B  B67  1  0.21917700  0.14304200  0.18117300  1
  B  B68  1  0.90465300  0.54170900  0.64612400  1
  B  B69  1  0.09534700  0.45829100  0.14612400  1
  B  B70  1  0.59534700  0.04170900  0.64612400  1
  B  B71  1  0.40465300  0.95829100  0.14612400  1
  B  B72  1  0.99953600  0.43178800  0.59551800  1
  B  B73  1  0.00046400  0.56821200  0.09551800  1
  B  B74  1  0.50046400  0.93178800  0.59551800  1
  B  B75  1  0.49953600  0.06821200  0.09551800  1
  B  B76  1  0.96368200  0.34225000  0.66795700  1
  B  B77  1  0.03631800  0.65775000  0.16795700  1
  B  B78  1  0.53631800  0.84225000  0.66795700  1
  B  B79  1  0.46368200  0.15775000  0.16795700  1
  B  B80  1  0.86634100  0.45006300  0.71785000  1
  B  B81  1  0.13365900  0.54993700  0.21785000  1
  B  B82  1  0.63365900  0.95006300  0.71785000  1
  B  B83  1  0.36634100  0.04993700  0.21785000  1
  B  B84  1  0.07242600  0.46005600  0.67848100  1
  B  B85  1  0.92757400  0.53994400  0.17848100  1
  B  B86  1  0.42757400  0.96005600  0.67848100  1
  B  B87  1  0.57242600  0.03994400  0.17848100  1
  H  H88  1  0.61676800  0.28495300  0.71172400  1
  H  H89  1  0.38323200  0.71504700  0.21172400  1
  H  H90  1  0.88323200  0.78495300  0.71172400  1
  H  H91  1  0.11676800  0.21504700  0.21172400  1
  H  H92  1  0.88851700  0.47543300  0.78426100  1
  H  H93  1  0.11148300  0.52456700  0.28426100  1
  H  H94  1  0.61148300  0.97543300  0.78426100  1
  H  H95  1  0.38851700  0.02456700  0.28426100  1
  H  H96  1  0.28569200  0.28110200  0.79404400  1
  H  H97  1  0.71430800  0.71889800  0.29404400  1
  H  H98  1  0.21430800  0.78110200  0.79404400  1
  H  H99  1  0.78569200  0.21889800  0.29404400  1
  H  H100  1  0.57603500  0.12472500  0.85087700  1
  H  H101  1  0.42396500  0.87527500  0.35087700  1
  H  H102  1  0.92396500  0.62472500  0.85087700  1
  H  H103  1  0.07603500  0.37527500  0.35087700  1
  H  H104  1  0.39687700  0.32917100  0.94709600  1
  H  H105  1  0.60312300  0.67082900  0.44709600  1
  H  H106  1  0.10312300  0.82917100  0.94709600  1
  H  H107  1  0.89687700  0.17082900  0.44709600  1
  H  H108  1  0.47107700  0.49747300  0.80980700  1
  H  H109  1  0.52892300  0.50252700  0.30980700  1
  H  H110  1  0.02892300  0.99747300  0.80980700  1
  H  H111  1  0.97107700  0.00252700  0.30980700  1
  H  H112  1  0.93593300  0.20404400  0.80356000  1
  H  H113  1  0.06406700  0.79595600  0.30356000  1
  H  H114  1  0.56406700  0.70404400  0.80356000  1
  H  H115  1  0.43593300  0.29595600  0.30356000  1
  H  H116  1  0.76625600  0.22812100  0.96949300  1
  H  H117  1  0.23374400  0.77187900  0.46949300  1
  H  H118  1  0.73374400  0.72812100  0.96949300  1
  H  H119  1  0.26625600  0.27187900  0.46949300  1
  H  H120  1  0.69046000  0.49376300  0.94186900  1
  H  H121  1  0.30954000  0.50623700  0.44186900  1
  H  H122  1  0.80954000  0.99376300  0.94186900  1
  H  H123  1  0.19046000  0.00623700  0.44186900  1
  H  H124  1  0.05323800  0.38049900  0.90757500  1
  H  H125  1  0.94676200  0.61950100  0.40757500  1
  H  H126  1  0.44676200  0.88049900  0.90757500  1
  H  H127  1  0.55323800  0.11950100  0.40757500  1
  H  H128  1  0.45327500  0.37789300  0.58870500  1
  H  H129  1  0.54672500  0.62210700  0.08870500  1
  H  H130  1  0.04672500  0.87789300  0.58870500  1
  H  H131  1  0.95327500  0.12210700  0.08870500  1
  H  H132  1  0.57063100  0.55587600  0.69190700  1
  H  H133  1  0.42936900  0.44412400  0.19190700  1
  H  H134  1  0.92936900  0.05587600  0.69190700  1
  H  H135  1  0.07063100  0.94412400  0.19190700  1
  H  H136  1  0.74209400  0.52928500  0.52544500  1
  H  H137  1  0.25790600  0.47071500  0.02544500  1
  H  H138  1  0.75790600  0.02928500  0.52544500  1
  H  H139  1  0.24209400  0.97071500  0.02544500  1
  H  H140  1  0.81608600  0.26432100  0.55536600  1
  H  H141  1  0.18391400  0.73567900  0.05536600  1
  H  H142  1  0.68391400  0.76432100  0.55536600  1
  H  H143  1  0.31608600  0.23567900  0.05536600  1
  H  H144  1  0.92952500  0.63486300  0.64378200  1
  H  H145  1  0.07047500  0.36513700  0.14378200  1
  H  H146  1  0.57047500  0.13486300  0.64378200  1
  H  H147  1  0.42952500  0.86513700  0.14378200  1
  H  H148  1  0.10889200  0.42933300  0.54840400  1
  H  H149  1  0.89110800  0.57066700  0.04840400  1
  H  H150  1  0.39110800  0.92933300  0.54840400  1
  H  H151  1  0.60889200  0.07066700  0.04840400  1
  H  H152  1  0.03572900  0.26300700  0.68749600  1
  H  H153  1  0.96427100  0.73699300  0.18749600  1
  H  H154  1  0.46427100  0.76300700  0.68749600  1
  H  H155  1  0.53572900  0.23699300  0.18749600  1
  H  H156  1  0.22046400  0.47932300  0.70166000  1
  H  H157  1  0.77953600  0.52067700  0.20166000  1
  H  H158  1  0.27953600  0.97932300  0.70166000  1
  H  H159  1  0.72046400  0.02067700  0.20166000  1
