# generated using pymatgen
data_Sb8(PbS5)3
_symmetry_space_group_name_H-M   'P 1'
_cell_length_a   13.59133400
_cell_length_b   11.73068000
_cell_length_c   18.19712215
_cell_angle_alpha   90.00000000
_cell_angle_beta   95.85969551
_cell_angle_gamma   90.00000000
_symmetry_Int_Tables_number   1
_chemical_formula_structural   Sb8(PbS5)3
_chemical_formula_sum   'Sb32 Pb12 S60'
_cell_volume   2886.10942628
_cell_formula_units_Z   4
loop_
 _symmetry_equiv_pos_site_id
 _symmetry_equiv_pos_as_xyz
  1  'x, y, z'
loop_
 _atom_site_type_symbol
 _atom_site_label
 _atom_site_symmetry_multiplicity
 _atom_site_fract_x
 _atom_site_fract_y
 _atom_site_fract_z
 _atom_site_occupancy
  Sb  Sb0  1  0.41099600  0.44946700  0.07292900  1
  Sb  Sb1  1  0.58900400  0.44946700  0.42707100  1
  Sb  Sb2  1  0.58900400  0.55053300  0.92707100  1
  Sb  Sb3  1  0.41099600  0.55053300  0.57292900  1
  Sb  Sb4  1  0.86107850  0.74327150  0.43464100  1
  Sb  Sb5  1  0.13892150  0.74327150  0.06535900  1
  Sb  Sb6  1  0.13892150  0.25672850  0.56535900  1
  Sb  Sb7  1  0.86107850  0.25672850  0.93464100  1
  Sb  Sb8  1  0.12952500  0.36641800  0.99905800  1
  Sb  Sb9  1  0.87047500  0.36641800  0.50094200  1
  Sb  Sb10  1  0.87047500  0.63358200  0.00094200  1
  Sb  Sb11  1  0.12952500  0.63358200  0.49905800  1
  Sb  Sb12  1  0.09337250  0.31797150  0.34155600  1
  Sb  Sb13  1  0.90662750  0.31797150  0.15844400  1
  Sb  Sb14  1  0.90662750  0.68202850  0.65844400  1
  Sb  Sb15  1  0.09337250  0.68202850  0.84155600  1
  Sb  Sb16  1  0.91099600  0.94946700  0.07292900  1
  Sb  Sb17  1  0.08900400  0.94946700  0.42707100  1
  Sb  Sb18  1  0.08900400  0.05053300  0.92707100  1
  Sb  Sb19  1  0.91099600  0.05053300  0.57292900  1
  Sb  Sb20  1  0.36107850  0.24327150  0.43464100  1
  Sb  Sb21  1  0.63892150  0.24327150  0.06535900  1
  Sb  Sb22  1  0.63892150  0.75672850  0.56535900  1
  Sb  Sb23  1  0.36107850  0.75672850  0.93464100  1
  Sb  Sb24  1  0.62952500  0.86641800  0.99905800  1
  Sb  Sb25  1  0.37047500  0.86641800  0.50094200  1
  Sb  Sb26  1  0.37047500  0.13358200  0.00094200  1
  Sb  Sb27  1  0.62952500  0.13358200  0.49905800  1
  Sb  Sb28  1  0.59337250  0.81797150  0.34155600  1
  Sb  Sb29  1  0.40662750  0.81797150  0.15844400  1
  Sb  Sb30  1  0.40662750  0.18202850  0.65844400  1
  Sb  Sb31  1  0.59337250  0.18202850  0.84155600  1
  Pb  Pb32  1  0.68980650  0.57173650  0.16213500  1
  Pb  Pb33  1  0.31019350  0.57173650  0.33786500  1
  Pb  Pb34  1  0.31019350  0.42826350  0.83786500  1
  Pb  Pb35  1  0.68980650  0.42826350  0.66213500  1
  Pb  Pb36  1  0.00000000  0.62537400  0.25000000  1
  Pb  Pb37  1  0.00000000  0.37462600  0.75000000  1
  Pb  Pb38  1  0.18980650  0.07173650  0.16213500  1
  Pb  Pb39  1  0.81019350  0.07173650  0.33786500  1
  Pb  Pb40  1  0.81019350  0.92826350  0.83786500  1
  Pb  Pb41  1  0.18980650  0.92826350  0.66213500  1
  Pb  Pb42  1  0.50000000  0.12537400  0.25000000  1
  Pb  Pb43  1  0.50000000  0.87462600  0.75000000  1
  S  S44  1  0.00000000  0.18386300  0.25000000  1
  S  S45  1  0.00000000  0.81613700  0.75000000  1
  S  S46  1  0.93473700  0.86902600  0.34235500  1
  S  S47  1  0.06526300  0.86902600  0.15764500  1
  S  S48  1  0.06526300  0.13097400  0.65764500  1
  S  S49  1  0.93473700  0.13097400  0.84235500  1
  S  S50  1  0.02965850  0.14074150  0.03651800  1
  S  S51  1  0.97034150  0.14074150  0.46348200  1
  S  S52  1  0.97034150  0.85925850  0.96348200  1
  S  S53  1  0.02965850  0.85925850  0.53651800  1
  S  S54  1  0.81053350  0.76147050  0.09718700  1
  S  S55  1  0.18946650  0.76147050  0.40281300  1
  S  S56  1  0.18946650  0.23852950  0.90281300  1
  S  S57  1  0.81053350  0.23852950  0.59718700  1
  S  S58  1  0.97213850  0.57801550  0.41119600  1
  S  S59  1  0.02786150  0.57801550  0.08880400  1
  S  S60  1  0.02786150  0.42198450  0.58880400  1
  S  S61  1  0.97213850  0.42198450  0.91119600  1
  S  S62  1  0.72868600  0.67516400  0.33697100  1
  S  S63  1  0.27131400  0.67516400  0.16302900  1
  S  S64  1  0.27131400  0.32483600  0.66302900  1
  S  S65  1  0.72868600  0.32483600  0.83697100  1
  S  S66  1  0.23591100  0.53006200  0.96274900  1
  S  S67  1  0.76408900  0.53006200  0.53725100  1
  S  S68  1  0.76408900  0.46993800  0.03725100  1
  S  S69  1  0.23591100  0.46993800  0.46274900  1
  S  S70  1  0.14530400  0.54513700  0.75130400  1
  S  S71  1  0.85469600  0.54513700  0.74869600  1
  S  S72  1  0.85469600  0.45486300  0.24869600  1
  S  S73  1  0.14530400  0.45486300  0.25130400  1
  S  S74  1  0.50000000  0.68386300  0.25000000  1
  S  S75  1  0.50000000  0.31613700  0.75000000  1
  S  S76  1  0.43473700  0.36902600  0.34235500  1
  S  S77  1  0.56526300  0.36902600  0.15764500  1
  S  S78  1  0.56526300  0.63097400  0.65764500  1
  S  S79  1  0.43473700  0.63097400  0.84235500  1
  S  S80  1  0.52965850  0.64074150  0.03651800  1
  S  S81  1  0.47034150  0.64074150  0.46348200  1
  S  S82  1  0.47034150  0.35925850  0.96348200  1
  S  S83  1  0.52965850  0.35925850  0.53651800  1
  S  S84  1  0.31053350  0.26147050  0.09718700  1
  S  S85  1  0.68946650  0.26147050  0.40281300  1
  S  S86  1  0.68946650  0.73852950  0.90281300  1
  S  S87  1  0.31053350  0.73852950  0.59718700  1
  S  S88  1  0.47213850  0.07801550  0.41119600  1
  S  S89  1  0.52786150  0.07801550  0.08880400  1
  S  S90  1  0.52786150  0.92198450  0.58880400  1
  S  S91  1  0.47213850  0.92198450  0.91119600  1
  S  S92  1  0.22868600  0.17516400  0.33697100  1
  S  S93  1  0.77131400  0.17516400  0.16302900  1
  S  S94  1  0.77131400  0.82483600  0.66302900  1
  S  S95  1  0.22868600  0.82483600  0.83697100  1
  S  S96  1  0.73591100  0.03006200  0.96274900  1
  S  S97  1  0.26408900  0.03006200  0.53725100  1
  S  S98  1  0.26408900  0.96993800  0.03725100  1
  S  S99  1  0.73591100  0.96993800  0.46274900  1
  S  S100  1  0.64530400  0.04513700  0.75130400  1
  S  S101  1  0.35469600  0.04513700  0.74869600  1
  S  S102  1  0.35469600  0.95486300  0.24869600  1
  S  S103  1  0.64530400  0.95486300  0.25130400  1
