# generated using pymatgen
data_Ba2As2Se5
_symmetry_space_group_name_H-M   'P 1'
_cell_length_a   9.59548100
_cell_length_b   12.62787200
_cell_length_c   10.27203908
_cell_angle_alpha   90.00000000
_cell_angle_beta   117.18709576
_cell_angle_gamma   90.00000000
_symmetry_Int_Tables_number   1
_chemical_formula_structural   Ba2As2Se5
_chemical_formula_sum   'Ba8 As8 Se20'
_cell_volume   1107.15635910
_cell_formula_units_Z   4
loop_
 _symmetry_equiv_pos_site_id
 _symmetry_equiv_pos_as_xyz
  1  'x, y, z'
loop_
 _atom_site_type_symbol
 _atom_site_label
 _atom_site_symmetry_multiplicity
 _atom_site_fract_x
 _atom_site_fract_y
 _atom_site_fract_z
 _atom_site_occupancy
  Ba  Ba0  1  0.17631600  0.93124900  0.34609500  1
  Ba  Ba1  1  0.82368400  0.43124900  0.65390500  1
  Ba  Ba2  1  0.67039900  0.93449600  0.35609500  1
  Ba  Ba3  1  0.32960100  0.43449600  0.64390500  1
  Ba  Ba4  1  0.41637300  0.78070400  0.83994900  1
  Ba  Ba5  1  0.58362700  0.28070400  0.16005100  1
  Ba  Ba6  1  0.92384900  0.77323300  0.85917800  1
  Ba  Ba7  1  0.07615100  0.27323300  0.14082200  1
  As  As8  1  0.76556600  0.62362600  0.24839400  1
  As  As9  1  0.78094700  0.51072600  0.99199800  1
  As  As10  1  0.21905300  0.01072600  0.00800200  1
  As  As11  1  0.23443400  0.12362600  0.75160600  1
  As  As12  1  0.60283700  0.08161100  0.73718300  1
  As  As13  1  0.39716300  0.58161100  0.26281700  1
  As  As14  1  0.03586400  0.69852400  0.51252500  1
  As  As15  1  0.96413600  0.19852400  0.48747500  1
  Se  Se16  1  0.33849900  0.16524300  0.57153700  1
  Se  Se17  1  0.66150100  0.66524300  0.42846300  1
  Se  Se18  1  0.49375600  0.55308200  0.07499600  1
  Se  Se19  1  0.50624400  0.05308200  0.92500400  1
  Se  Se20  1  0.95138600  0.38007000  0.39458400  1
  Se  Se21  1  0.29847800  0.83159000  0.10056400  1
  Se  Se22  1  0.04861400  0.88007000  0.60541600  1
  Se  Se23  1  0.70152200  0.33159000  0.89943600  1
  Se  Se24  1  0.37181700  0.10439900  0.23685500  1
  Se  Se25  1  0.62818300  0.60439900  0.76314500  1
  Se  Se26  1  0.11530400  0.60431200  0.73920100  1
  Se  Se27  1  0.88469600  0.10431200  0.26079900  1
  Se  Se28  1  0.78401700  0.79088200  0.14041400  1
  Se  Se29  1  0.21598300  0.29088200  0.85958600  1
  Se  Se30  1  0.43588900  0.40646500  0.36752700  1
  Se  Se31  1  0.56411100  0.90646500  0.63247300  1
  Se  Se32  1  0.73511700  0.18455900  0.52322100  1
  Se  Se33  1  0.26488300  0.68455900  0.47677900  1
  Se  Se34  1  0.04130500  0.51992800  0.01335200  1
  Se  Se35  1  0.95869500  0.01992800  0.98664800  1
