# generated using pymatgen
data_Ca3Al2H6S(OF)8
_symmetry_space_group_name_H-M   'P 1'
_cell_length_a   14.10545600
_cell_length_b   8.70304400
_cell_length_c   10.10521302
_cell_angle_alpha   90.00000000
_cell_angle_beta   93.48247295
_cell_angle_gamma   90.00000000
_symmetry_Int_Tables_number   1
_chemical_formula_structural   Ca3Al2H6S(OF)8
_chemical_formula_sum   'Ca12 Al8 H24 S4 O32 F32'
_cell_volume   1238.22932335
_cell_formula_units_Z   4
loop_
 _symmetry_equiv_pos_site_id
 _symmetry_equiv_pos_as_xyz
  1  'x, y, z'
loop_
 _atom_site_type_symbol
 _atom_site_label
 _atom_site_symmetry_multiplicity
 _atom_site_fract_x
 _atom_site_fract_y
 _atom_site_fract_z
 _atom_site_occupancy
  Ca  Ca0  1  0.50000000  0.47017300  0.75000000  1
  Ca  Ca1  1  0.50000000  0.52982700  0.25000000  1
  Ca  Ca2  1  0.24690500  0.78109700  0.69309600  1
  Ca  Ca3  1  0.75309500  0.78109700  0.80690400  1
  Ca  Ca4  1  0.75309500  0.21890300  0.30690400  1
  Ca  Ca5  1  0.24690500  0.21890300  0.19309600  1
  Ca  Ca6  1  0.00000000  0.97017300  0.75000000  1
  Ca  Ca7  1  0.00000000  0.02982700  0.25000000  1
  Ca  Ca8  1  0.74690500  0.28109700  0.69309600  1
  Ca  Ca9  1  0.25309500  0.28109700  0.80690400  1
  Ca  Ca10  1  0.25309500  0.71890300  0.30690400  1
  Ca  Ca11  1  0.74690500  0.71890300  0.19309600  1
  Al  Al12  1  0.79829550  0.89902350  0.48702200  1
  Al  Al13  1  0.20170450  0.89902350  0.01297800  1
  Al  Al14  1  0.79829550  0.10097650  0.98702200  1
  Al  Al15  1  0.20170450  0.10097650  0.51297800  1
  Al  Al16  1  0.29829550  0.39902350  0.48702200  1
  Al  Al17  1  0.70170450  0.39902350  0.01297800  1
  Al  Al18  1  0.29829550  0.60097650  0.98702200  1
  Al  Al19  1  0.70170450  0.60097650  0.51297800  1
  H  H20  1  0.36958400  0.86192500  0.92596100  1
  H  H21  1  0.63041600  0.86192500  0.57403900  1
  H  H22  1  0.63041600  0.13807500  0.07403900  1
  H  H23  1  0.36958400  0.13807500  0.42596100  1
  H  H24  1  0.55358150  0.13186750  0.63146200  1
  H  H25  1  0.44641850  0.13186750  0.86853800  1
  H  H26  1  0.44641850  0.86813250  0.36853800  1
  H  H27  1  0.55358150  0.86813250  0.13146200  1
  H  H28  1  0.56322250  0.25974550  0.52311300  1
  H  H29  1  0.43677750  0.25974550  0.97688700  1
  H  H30  1  0.43677750  0.74025450  0.47688700  1
  H  H31  1  0.56322250  0.74025450  0.02311300  1
  H  H32  1  0.86958400  0.36192500  0.92596100  1
  H  H33  1  0.13041600  0.36192500  0.57403900  1
  H  H34  1  0.13041600  0.63807500  0.07403900  1
  H  H35  1  0.86958400  0.63807500  0.42596100  1
  H  H36  1  0.05358150  0.63186750  0.63146200  1
  H  H37  1  0.94641850  0.63186750  0.86853800  1
  H  H38  1  0.94641850  0.36813250  0.36853800  1
  H  H39  1  0.05358150  0.36813250  0.13146200  1
  H  H40  1  0.06322250  0.75974550  0.52311300  1
  H  H41  1  0.93677750  0.75974550  0.97688700  1
  H  H42  1  0.93677750  0.24025450  0.47688700  1
  H  H43  1  0.06322250  0.24025450  0.02311300  1
  S  S44  1  0.50000000  0.15506900  0.25000000  1
  S  S45  1  0.50000000  0.84493100  0.75000000  1
  S  S46  1  0.00000000  0.65506900  0.25000000  1
  S  S47  1  0.00000000  0.34493100  0.75000000  1
  O  O48  1  0.30793450  0.81005550  0.93618800  1
  O  O49  1  0.69206550  0.81005550  0.56381200  1
  O  O50  1  0.69206550  0.18994450  0.06381200  1
  O  O51  1  0.30793450  0.18994450  0.43618800  1
  O  O52  1  0.57299550  0.24095650  0.61875900  1
  O  O53  1  0.42700450  0.24095650  0.88124100  1
  O  O54  1  0.42700450  0.75904350  0.38124100  1
  O  O55  1  0.57299550  0.75904350  0.11875900  1
  O  O56  1  0.46298900  0.94224900  0.85570800  1
  O  O57  1  0.42303000  0.25766600  0.18968000  1
  O  O58  1  0.53701100  0.05775100  0.14429200  1
  O  O59  1  0.46298900  0.05775100  0.35570800  1
  O  O60  1  0.42303000  0.74233400  0.68968000  1
  O  O61  1  0.57697000  0.74233400  0.81032000  1
  O  O62  1  0.57697000  0.25766600  0.31032000  1
  O  O63  1  0.53701100  0.94224900  0.64429200  1
  O  O64  1  0.80793450  0.31005550  0.93618800  1
  O  O65  1  0.19206550  0.31005550  0.56381200  1
  O  O66  1  0.19206550  0.68994450  0.06381200  1
  O  O67  1  0.80793450  0.68994450  0.43618800  1
  O  O68  1  0.07299550  0.74095650  0.61875900  1
  O  O69  1  0.92700450  0.74095650  0.88124100  1
  O  O70  1  0.92700450  0.25904350  0.38124100  1
  O  O71  1  0.07299550  0.25904350  0.11875900  1
  O  O72  1  0.96298900  0.44224900  0.85570800  1
  O  O73  1  0.92303000  0.75766600  0.18968000  1
  O  O74  1  0.03701100  0.55775100  0.14429200  1
  O  O75  1  0.96298900  0.55775100  0.35570800  1
  O  O76  1  0.92303000  0.24233400  0.68968000  1
  O  O77  1  0.07697000  0.24233400  0.81032000  1
  O  O78  1  0.07697000  0.75766600  0.31032000  1
  O  O79  1  0.03701100  0.44224900  0.64429200  1
  F  F80  1  0.85995250  0.11819250  0.15203000  1
  F  F81  1  0.26394000  0.05894800  0.67856100  1
  F  F82  1  0.26394000  0.94105200  0.17856100  1
  F  F83  1  0.73606000  0.94105200  0.32143900  1
  F  F84  1  0.76513700  0.09886500  0.52362200  1
  F  F85  1  0.23486300  0.09886500  0.97637800  1
  F  F86  1  0.23486300  0.90113500  0.47637800  1
  F  F87  1  0.76513700  0.90113500  0.02362200  1
  F  F88  1  0.90924800  0.04629100  0.92243200  1
  F  F89  1  0.09075200  0.04629100  0.57756800  1
  F  F90  1  0.09075200  0.95370900  0.07756800  1
  F  F91  1  0.90924800  0.95370900  0.42243200  1
  F  F92  1  0.14004750  0.88180750  0.84797000  1
  F  F93  1  0.85995250  0.88180750  0.65203000  1
  F  F94  1  0.14004750  0.11819250  0.34797000  1
  F  F95  1  0.73606000  0.05894800  0.82143900  1
  F  F96  1  0.35995250  0.61819250  0.15203000  1
  F  F97  1  0.76394000  0.55894800  0.67856100  1
  F  F98  1  0.76394000  0.44105200  0.17856100  1
  F  F99  1  0.23606000  0.44105200  0.32143900  1
  F  F100  1  0.26513700  0.59886500  0.52362200  1
  F  F101  1  0.73486300  0.59886500  0.97637800  1
  F  F102  1  0.73486300  0.40113500  0.47637800  1
  F  F103  1  0.26513700  0.40113500  0.02362200  1
  F  F104  1  0.40924800  0.54629100  0.92243200  1
  F  F105  1  0.59075200  0.54629100  0.57756800  1
  F  F106  1  0.59075200  0.45370900  0.07756800  1
  F  F107  1  0.40924800  0.45370900  0.42243200  1
  F  F108  1  0.64004750  0.38180750  0.84797000  1
  F  F109  1  0.35995250  0.38180750  0.65203000  1
  F  F110  1  0.64004750  0.61819250  0.34797000  1
  F  F111  1  0.23606000  0.55894800  0.82143900  1
