# generated using pymatgen
data_Bi2MoO6
_symmetry_space_group_name_H-M   'P 1'
_cell_length_a   5.65596200
_cell_length_b   22.85529700
_cell_length_c   17.48922452
_cell_angle_alpha   90.00000000
_cell_angle_beta   90.53257082
_cell_angle_gamma   90.00000000
_symmetry_Int_Tables_number   1
_chemical_formula_structural   Bi2MoO6
_chemical_formula_sum   'Bi32 Mo16 O96'
_cell_volume   2260.71150101
_cell_formula_units_Z   16
loop_
 _symmetry_equiv_pos_site_id
 _symmetry_equiv_pos_as_xyz
  1  'x, y, z'
loop_
 _atom_site_type_symbol
 _atom_site_label
 _atom_site_symmetry_multiplicity
 _atom_site_fract_x
 _atom_site_fract_y
 _atom_site_fract_z
 _atom_site_occupancy
  Bi  Bi0  1  0.01930300  0.80497300  0.09337900  1
  Bi  Bi1  1  0.48069700  0.30497300  0.90662100  1
  Bi  Bi2  1  0.98069700  0.19502700  0.90662100  1
  Bi  Bi3  1  0.51930300  0.69502700  0.09337900  1
  Bi  Bi4  1  0.00179800  0.92994100  0.25985700  1
  Bi  Bi5  1  0.49820200  0.42994100  0.74014300  1
  Bi  Bi6  1  0.99820200  0.07005900  0.74014300  1
  Bi  Bi7  1  0.50179800  0.57005900  0.25985700  1
  Bi  Bi8  1  0.44154100  0.81145800  0.25703800  1
  Bi  Bi9  1  0.05845900  0.31145800  0.74296200  1
  Bi  Bi10  1  0.55845900  0.18854200  0.74296200  1
  Bi  Bi11  1  0.94154100  0.68854200  0.25703800  1
  Bi  Bi12  1  0.50477900  0.92990900  0.41025900  1
  Bi  Bi13  1  0.99522100  0.42990900  0.58974100  1
  Bi  Bi14  1  0.49522100  0.07009100  0.58974100  1
  Bi  Bi15  1  0.00477900  0.57009100  0.41025900  1
  Bi  Bi16  1  0.93535500  0.80845300  0.40958600  1
  Bi  Bi17  1  0.56464500  0.30845300  0.59041400  1
  Bi  Bi18  1  0.06464500  0.19154700  0.59041400  1
  Bi  Bi19  1  0.43535500  0.69154700  0.40958600  1
  Bi  Bi20  1  0.52571700  0.80613200  0.57320900  1
  Bi  Bi21  1  0.97428300  0.30613200  0.42679100  1
  Bi  Bi22  1  0.47428300  0.19386800  0.42679100  1
  Bi  Bi23  1  0.02571700  0.69386800  0.57320900  1
  Bi  Bi24  1  0.99963700  0.80470800  0.74193000  1
  Bi  Bi25  1  0.50036300  0.30470800  0.25807000  1
  Bi  Bi26  1  0.00036300  0.19529200  0.25807000  1
  Bi  Bi27  1  0.49963700  0.69529200  0.74193000  1
  Bi  Bi28  1  0.00041600  0.93566400  0.91111900  1
  Bi  Bi29  1  0.49958400  0.43566400  0.08888100  1
  Bi  Bi30  1  0.99958400  0.06433600  0.08888100  1
  Bi  Bi31  1  0.50041600  0.56433600  0.91111900  1
  Mo  Mo32  1  0.49370100  0.94410200  0.08247900  1
  Mo  Mo33  1  0.00629900  0.44410200  0.91752100  1
  Mo  Mo34  1  0.50629900  0.05589800  0.91752100  1
  Mo  Mo35  1  0.99370100  0.55589800  0.08247900  1
  Mo  Mo36  1  0.99750800  0.93250500  0.58322500  1
  Mo  Mo37  1  0.50249200  0.43250500  0.41677500  1
  Mo  Mo38  1  0.00249200  0.06749500  0.41677500  1
  Mo  Mo39  1  0.49750800  0.56749500  0.58322500  1
  Mo  Mo40  1  0.50732600  0.93903800  0.76691900  1
  Mo  Mo41  1  0.99267400  0.43903800  0.23308100  1
  Mo  Mo42  1  0.49267400  0.06096200  0.23308100  1
  Mo  Mo43  1  0.00732600  0.56096200  0.76691900  1
  Mo  Mo44  1  0.51506600  0.81678700  0.91570000  1
  Mo  Mo45  1  0.98493400  0.31678700  0.08430000  1
  Mo  Mo46  1  0.48493400  0.18321300  0.08430000  1
  Mo  Mo47  1  0.01506600  0.68321300  0.91570000  1
  O  O48  1  0.30737900  0.89943800  0.02350500  1
  O  O49  1  0.19262100  0.39943800  0.97649500  1
  O  O50  1  0.69262100  0.10056200  0.97649500  1
  O  O51  1  0.80737900  0.60056200  0.02350500  1
  O  O52  1  0.73258600  0.97814500  0.02783600  1
  O  O53  1  0.76741400  0.47814500  0.97216400  1
  O  O54  1  0.26741400  0.02185500  0.97216400  1
  O  O55  1  0.23258600  0.52185500  0.02783600  1
  O  O56  1  0.75113000  0.75600600  0.15291100  1
  O  O57  1  0.74887000  0.25600600  0.84708900  1
  O  O58  1  0.24887000  0.24399400  0.84708900  1
  O  O59  1  0.25113000  0.74399400  0.15291100  1
  O  O60  1  0.74517000  0.88217000  0.32611500  1
  O  O61  1  0.75483000  0.38217000  0.67388500  1
  O  O62  1  0.25483000  0.11783000  0.67388500  1
  O  O63  1  0.24517000  0.61783000  0.32611500  1
  O  O64  1  0.73437700  0.75016600  0.33157300  1
  O  O65  1  0.76562300  0.25016600  0.66842700  1
  O  O66  1  0.26562300  0.24983400  0.66842700  1
  O  O67  1  0.23437700  0.74983400  0.33157300  1
  O  O68  1  0.12481100  0.99214000  0.63598900  1
  O  O69  1  0.37518900  0.49214000  0.36401100  1
  O  O70  1  0.87518900  0.00786000  0.36401100  1
  O  O71  1  0.62481100  0.50786000  0.63598900  1
  O  O72  1  0.19797300  0.90693700  0.51142800  1
  O  O73  1  0.30202700  0.40693700  0.48857200  1
  O  O74  1  0.80202700  0.09306300  0.48857200  1
  O  O75  1  0.69797300  0.59306300  0.51142800  1
  O  O76  1  0.77211700  0.74879200  0.51235100  1
  O  O77  1  0.72788300  0.24879200  0.48764900  1
  O  O78  1  0.22788300  0.25120800  0.48764900  1
  O  O79  1  0.27211700  0.75120800  0.51235100  1
  O  O80  1  0.74246900  0.96030900  0.53561500  1
  O  O81  1  0.75753100  0.46030900  0.46438500  1
  O  O82  1  0.25753100  0.03969100  0.46438500  1
  O  O83  1  0.24246900  0.53969100  0.53561500  1
  O  O84  1  0.91069200  0.86693000  0.63835600  1
  O  O85  1  0.58930800  0.36693000  0.36164400  1
  O  O86  1  0.08930800  0.13307000  0.36164400  1
  O  O87  1  0.41069200  0.63307000  0.63835600  1
  O  O88  1  0.25375100  0.75172500  0.67920600  1
  O  O89  1  0.24624900  0.25172500  0.32079400  1
  O  O90  1  0.74624900  0.24827500  0.32079400  1
  O  O91  1  0.75375100  0.74827500  0.67920600  1
  O  O92  1  0.62500300  0.99285700  0.70479500  1
  O  O93  1  0.87499700  0.49285700  0.29520500  1
  O  O94  1  0.37499700  0.00714300  0.29520500  1
  O  O95  1  0.12500300  0.50714300  0.70479500  1
  O  O96  1  0.25919200  0.97366500  0.81936800  1
  O  O97  1  0.24080800  0.47366500  0.18063200  1
  O  O98  1  0.74080800  0.02633500  0.18063200  1
  O  O99  1  0.75919200  0.52633500  0.81936800  1
  O  O100  1  0.76352100  0.89993600  0.81264200  1
  O  O101  1  0.73647900  0.39993600  0.18735800  1
  O  O102  1  0.23647900  0.10006400  0.18735800  1
  O  O103  1  0.26352100  0.60006400  0.81264200  1
  O  O104  1  0.62715000  0.77143200  0.83927200  1
  O  O105  1  0.87285000  0.27143200  0.16072800  1
  O  O106  1  0.37285000  0.22856800  0.16072800  1
  O  O107  1  0.12715000  0.72856800  0.83927200  1
  O  O108  1  0.27952500  0.86086900  0.87246800  1
  O  O109  1  0.22047500  0.36086900  0.12753200  1
  O  O110  1  0.72047500  0.13913100  0.12753200  1
  O  O111  1  0.77952500  0.63913100  0.87246800  1
  O  O112  1  0.28609800  0.99243300  0.13320200  1
  O  O113  1  0.21390200  0.49243300  0.86679800  1
  O  O114  1  0.71390200  0.00756700  0.86679800  1
  O  O115  1  0.78609800  0.50756700  0.13320200  1
  O  O116  1  0.10801000  0.85168700  0.19746700  1
  O  O117  1  0.39199000  0.35168700  0.80253300  1
  O  O118  1  0.89199000  0.14831300  0.80253300  1
  O  O119  1  0.60801000  0.64831300  0.19746700  1
  O  O120  1  0.62973700  0.89641000  0.15024800  1
  O  O121  1  0.87026300  0.39641000  0.84975200  1
  O  O122  1  0.37026300  0.10359000  0.84975200  1
  O  O123  1  0.12973700  0.60359000  0.15024800  1
  O  O124  1  0.24718800  0.88315900  0.33693900  1
  O  O125  1  0.25281200  0.38315900  0.66306100  1
  O  O126  1  0.75281200  0.11684100  0.66306100  1
  O  O127  1  0.74718800  0.61684100  0.33693900  1
  O  O128  1  0.60241600  0.84697400  0.46025500  1
  O  O129  1  0.89758400  0.34697400  0.53974500  1
  O  O130  1  0.39758400  0.15302600  0.53974500  1
  O  O131  1  0.10241600  0.65302600  0.46025500  1
  O  O132  1  0.37894400  0.88478800  0.70789900  1
  O  O133  1  0.12105600  0.38478800  0.29210100  1
  O  O134  1  0.62105600  0.11521200  0.29210100  1
  O  O135  1  0.87894400  0.61521200  0.70789900  1
  O  O136  1  0.38920100  0.77275100  0.98872700  1
  O  O137  1  0.11079900  0.27275100  0.01127300  1
  O  O138  1  0.61079900  0.22724900  0.01127300  1
  O  O139  1  0.88920100  0.72724900  0.98872700  1
  O  O140  1  0.75955200  0.85672500  0.95918300  1
  O  O141  1  0.74044800  0.35672500  0.04081700  1
  O  O142  1  0.24044800  0.14327500  0.04081700  1
  O  O143  1  0.25955200  0.64327500  0.95918300  1
