# generated using pymatgen
data_Cd4As2I3
_symmetry_space_group_name_H-M   'P 1'
_cell_length_a   13.30855200
_cell_length_b   13.30855200
_cell_length_c   13.30855200
_cell_angle_alpha   90.00000000
_cell_angle_beta   90.00000000
_cell_angle_gamma   90.00000000
_symmetry_Int_Tables_number   1
_chemical_formula_structural   Cd4As2I3
_chemical_formula_sum   'Cd32 As16 I24'
_cell_volume   2357.17820862
_cell_formula_units_Z   8
loop_
 _symmetry_equiv_pos_site_id
 _symmetry_equiv_pos_as_xyz
  1  'x, y, z'
loop_
 _atom_site_type_symbol
 _atom_site_label
 _atom_site_symmetry_multiplicity
 _atom_site_fract_x
 _atom_site_fract_y
 _atom_site_fract_z
 _atom_site_occupancy
  Cd  Cd0  1  0.03396300  0.00089800  0.25605600  1
  Cd  Cd1  1  0.25605600  0.03396300  0.00089800  1
  Cd  Cd2  1  0.00089800  0.25605600  0.03396300  1
  Cd  Cd3  1  0.49910200  0.74394400  0.53396300  1
  Cd  Cd4  1  0.75605600  0.46603700  0.99910200  1
  Cd  Cd5  1  0.99910200  0.75605600  0.46603700  1
  Cd  Cd6  1  0.24394400  0.96603700  0.50089800  1
  Cd  Cd7  1  0.74394400  0.53396300  0.49910200  1
  Cd  Cd8  1  0.50089800  0.24394400  0.96603700  1
  Cd  Cd9  1  0.53396300  0.49910200  0.74394400  1
  Cd  Cd10  1  0.96603700  0.50089800  0.24394400  1
  Cd  Cd11  1  0.46603700  0.99910200  0.75605600  1
  Cd  Cd12  1  0.96603700  0.99910200  0.74394400  1
  Cd  Cd13  1  0.74394400  0.96603700  0.99910200  1
  Cd  Cd14  1  0.99910200  0.74394400  0.96603700  1
  Cd  Cd15  1  0.50089800  0.25605600  0.46603700  1
  Cd  Cd16  1  0.24394400  0.53396300  0.00089800  1
  Cd  Cd17  1  0.00089800  0.24394400  0.53396300  1
  Cd  Cd18  1  0.75605600  0.03396300  0.49910200  1
  Cd  Cd19  1  0.25605600  0.46603700  0.50089800  1
  Cd  Cd20  1  0.49910200  0.75605600  0.03396300  1
  Cd  Cd21  1  0.46603700  0.50089800  0.25605600  1
  Cd  Cd22  1  0.03396300  0.49910200  0.75605600  1
  Cd  Cd23  1  0.53396300  0.00089800  0.24394400  1
  Cd  Cd24  1  0.22143300  0.22143300  0.22143300  1
  Cd  Cd25  1  0.27856700  0.77856700  0.72143300  1
  Cd  Cd26  1  0.72143300  0.27856700  0.77856700  1
  Cd  Cd27  1  0.77856700  0.72143300  0.27856700  1
  Cd  Cd28  1  0.77856700  0.77856700  0.77856700  1
  Cd  Cd29  1  0.72143300  0.22143300  0.27856700  1
  Cd  Cd30  1  0.27856700  0.72143300  0.22143300  1
  Cd  Cd31  1  0.22143300  0.27856700  0.72143300  1
  As  As32  1  0.10828700  0.10828700  0.10828700  1
  As  As33  1  0.39171300  0.89171300  0.60828700  1
  As  As34  1  0.60828700  0.39171300  0.89171300  1
  As  As35  1  0.89171300  0.60828700  0.39171300  1
  As  As36  1  0.89171300  0.89171300  0.89171300  1
  As  As37  1  0.60828700  0.10828700  0.39171300  1
  As  As38  1  0.39171300  0.60828700  0.10828700  1
  As  As39  1  0.10828700  0.39171300  0.60828700  1
  As  As40  1  0.44656300  0.44656300  0.44656300  1
  As  As41  1  0.05343700  0.55343700  0.94656300  1
  As  As42  1  0.94656300  0.05343700  0.55343700  1
  As  As43  1  0.55343700  0.94656300  0.05343700  1
  As  As44  1  0.55343700  0.55343700  0.55343700  1
  As  As45  1  0.94656300  0.44656300  0.05343700  1
  As  As46  1  0.05343700  0.94656300  0.44656300  1
  As  As47  1  0.44656300  0.05343700  0.94656300  1
  I  I48  1  0.18611300  0.43815100  0.26212300  1
  I  I49  1  0.26212300  0.18611300  0.43815100  1
  I  I50  1  0.43815100  0.26212300  0.18611300  1
  I  I51  1  0.06184900  0.73787700  0.68611300  1
  I  I52  1  0.76212300  0.31388700  0.56184900  1
  I  I53  1  0.56184900  0.76212300  0.31388700  1
  I  I54  1  0.23787700  0.81388700  0.93815100  1
  I  I55  1  0.73787700  0.68611300  0.06184900  1
  I  I56  1  0.93815100  0.23787700  0.81388700  1
  I  I57  1  0.68611300  0.06184900  0.73787700  1
  I  I58  1  0.81388700  0.93815100  0.23787700  1
  I  I59  1  0.31388700  0.56184900  0.76212300  1
  I  I60  1  0.81388700  0.56184900  0.73787700  1
  I  I61  1  0.73787700  0.81388700  0.56184900  1
  I  I62  1  0.56184900  0.73787700  0.81388700  1
  I  I63  1  0.93815100  0.26212300  0.31388700  1
  I  I64  1  0.23787700  0.68611300  0.43815100  1
  I  I65  1  0.43815100  0.23787700  0.68611300  1
  I  I66  1  0.76212300  0.18611300  0.06184900  1
  I  I67  1  0.26212300  0.31388700  0.93815100  1
  I  I68  1  0.06184900  0.76212300  0.18611300  1
  I  I69  1  0.31388700  0.93815100  0.26212300  1
  I  I70  1  0.18611300  0.06184900  0.76212300  1
  I  I71  1  0.68611300  0.43815100  0.23787700  1
