# generated using pymatgen
data_TiO2
_symmetry_space_group_name_H-M   'P 1'
_cell_length_a   8.43835000
_cell_length_b   8.43835000
_cell_length_c   8.43835000
_cell_angle_alpha   90.00000000
_cell_angle_beta   90.00000000
_cell_angle_gamma   90.00000000
_symmetry_Int_Tables_number   1
_chemical_formula_structural   TiO2
_chemical_formula_sum   'Ti16 O32'
_cell_volume   600.85904661
_cell_formula_units_Z   16
loop_
 _symmetry_equiv_pos_site_id
 _symmetry_equiv_pos_as_xyz
  1  'x, y, z'
loop_
 _atom_site_type_symbol
 _atom_site_label
 _atom_site_symmetry_multiplicity
 _atom_site_fract_x
 _atom_site_fract_y
 _atom_site_fract_z
 _atom_site_occupancy
  Ti  Ti0  1  0.37500000  0.87500000  0.12500000  1
  Ti  Ti1  1  0.12500000  0.87500000  0.37500000  1
  Ti  Ti2  1  0.37500000  0.62500000  0.37500000  1
  Ti  Ti3  1  0.12500000  0.62500000  0.12500000  1
  Ti  Ti4  1  0.37500000  0.37500000  0.62500000  1
  Ti  Ti5  1  0.12500000  0.37500000  0.87500000  1
  Ti  Ti6  1  0.37500000  0.12500000  0.87500000  1
  Ti  Ti7  1  0.12500000  0.12500000  0.62500000  1
  Ti  Ti8  1  0.87500000  0.87500000  0.62500000  1
  Ti  Ti9  1  0.62500000  0.87500000  0.87500000  1
  Ti  Ti10  1  0.87500000  0.62500000  0.87500000  1
  Ti  Ti11  1  0.62500000  0.62500000  0.62500000  1
  Ti  Ti12  1  0.87500000  0.37500000  0.12500000  1
  Ti  Ti13  1  0.62500000  0.37500000  0.37500000  1
  Ti  Ti14  1  0.87500000  0.12500000  0.37500000  1
  Ti  Ti15  1  0.62500000  0.12500000  0.12500000  1
  O  O16  1  0.39079900  0.39079900  0.39079900  1
  O  O17  1  0.10920100  0.39079900  0.10920100  1
  O  O18  1  0.10920100  0.10920100  0.39079900  1
  O  O19  1  0.39079900  0.10920100  0.10920100  1
  O  O20  1  0.64079900  0.14079900  0.35920100  1
  O  O21  1  0.85920100  0.14079900  0.14079900  1
  O  O22  1  0.14079900  0.85920100  0.14079900  1
  O  O23  1  0.35920100  0.85920100  0.35920100  1
  O  O24  1  0.39079900  0.89079900  0.89079900  1
  O  O25  1  0.10920100  0.89079900  0.60920100  1
  O  O26  1  0.10920100  0.60920100  0.89079900  1
  O  O27  1  0.39079900  0.60920100  0.60920100  1
  O  O28  1  0.64079900  0.64079900  0.85920100  1
  O  O29  1  0.85920100  0.64079900  0.64079900  1
  O  O30  1  0.14079900  0.35920100  0.64079900  1
  O  O31  1  0.35920100  0.35920100  0.85920100  1
  O  O32  1  0.89079900  0.39079900  0.89079900  1
  O  O33  1  0.60920100  0.39079900  0.60920100  1
  O  O34  1  0.60920100  0.10920100  0.89079900  1
  O  O35  1  0.89079900  0.10920100  0.60920100  1
  O  O36  1  0.14079900  0.14079900  0.85920100  1
  O  O37  1  0.35920100  0.14079900  0.64079900  1
  O  O38  1  0.64079900  0.85920100  0.64079900  1
  O  O39  1  0.85920100  0.85920100  0.85920100  1
  O  O40  1  0.89079900  0.89079900  0.39079900  1
  O  O41  1  0.60920100  0.89079900  0.10920100  1
  O  O42  1  0.60920100  0.60920100  0.39079900  1
  O  O43  1  0.89079900  0.60920100  0.10920100  1
  O  O44  1  0.14079900  0.64079900  0.35920100  1
  O  O45  1  0.35920100  0.64079900  0.14079900  1
  O  O46  1  0.64079900  0.35920100  0.14079900  1
  O  O47  1  0.85920100  0.35920100  0.35920100  1
