# generated using pymatgen
data_Lu(ClO4)3
_symmetry_space_group_name_H-M   'P 1'
_cell_length_a   8.23915186
_cell_length_b   8.23915186
_cell_length_c   24.20480689
_cell_angle_alpha   90.00000000
_cell_angle_beta   90.00000000
_cell_angle_gamma   120.00000000
_symmetry_Int_Tables_number   1
_chemical_formula_structural   Lu(ClO4)3
_chemical_formula_sum   'Lu6 Cl18 O72'
_cell_volume   1422.97499714
_cell_formula_units_Z   6
loop_
 _symmetry_equiv_pos_site_id
 _symmetry_equiv_pos_as_xyz
  1  'x, y, z'
loop_
 _atom_site_type_symbol
 _atom_site_label
 _atom_site_symmetry_multiplicity
 _atom_site_fract_x
 _atom_site_fract_y
 _atom_site_fract_z
 _atom_site_occupancy
  Lu  Lu0  1  0.66666667  0.33333333  0.27497233  1
  Lu  Lu1  1  0.33333333  0.66666667  0.10830567  1
  Lu  Lu2  1  0.33333333  0.66666667  0.60830567  1
  Lu  Lu3  1  0.00000000  0.00000000  0.44163900  1
  Lu  Lu4  1  0.00000000  0.00000000  0.94163900  1
  Lu  Lu5  1  0.66666667  0.33333333  0.77497233  1
  Cl  Cl6  1  0.36928633  0.36183967  0.16657567  1
  Cl  Cl7  1  0.99255333  0.63071367  0.16657567  1
  Cl  Cl8  1  0.63816033  0.00744667  0.16657567  1
  Cl  Cl9  1  0.32588667  0.02850633  0.33324233  1
  Cl  Cl10  1  0.70261967  0.67411333  0.33324233  1
  Cl  Cl11  1  0.97149367  0.29738033  0.33324233  1
  Cl  Cl12  1  0.03595300  0.69517300  0.49990900  1
  Cl  Cl13  1  0.65922000  0.96404700  0.49990900  1
  Cl  Cl14  1  0.30482700  0.34078000  0.49990900  1
  Cl  Cl15  1  0.99255333  0.36183967  0.66657567  1
  Cl  Cl16  1  0.36928633  0.00744667  0.66657567  1
  Cl  Cl17  1  0.63816033  0.63071367  0.66657567  1
  Cl  Cl18  1  0.70261967  0.02850633  0.83324233  1
  Cl  Cl19  1  0.32588667  0.29738033  0.83324233  1
  Cl  Cl20  1  0.97149367  0.67411333  0.83324233  1
  Cl  Cl21  1  0.65922000  0.69517300  0.99990900  1
  Cl  Cl22  1  0.03595300  0.34078000  0.99990900  1
  Cl  Cl23  1  0.30482700  0.96404700  0.99990900  1
  O  O24  1  0.51089033  0.41700267  0.21055067  1
  O  O25  1  0.90611233  0.48910967  0.21055067  1
  O  O26  1  0.58299733  0.09388767  0.21055067  1
  O  O27  1  0.57277900  0.75033600  0.04388400  1
  O  O28  1  0.17755700  0.42722100  0.04388400  1
  O  O29  1  0.24966400  0.82244300  0.04388400  1
  O  O30  1  0.24438567  0.43745733  0.18037733  1
  O  O31  1  0.19307167  0.75561433  0.18037733  1
  O  O32  1  0.16828867  0.39739633  0.32526733  1
  O  O33  1  0.60260367  0.77089233  0.32526733  1
  O  O34  1  0.22910767  0.83171133  0.32526733  1
  O  O35  1  0.83495533  0.10422567  0.15860067  1
  O  O36  1  0.89577433  0.73072967  0.15860067  1
  O  O37  1  0.26927033  0.16504467  0.15860067  1
  O  O38  1  0.86724200  0.20000200  0.28251600  1
  O  O39  1  0.79999800  0.66724000  0.28251600  1
  O  O40  1  0.33276000  0.13275800  0.28251600  1
  O  O41  1  0.53390867  0.00057333  0.11584933  1
  O  O42  1  0.99942667  0.53333533  0.11584933  1
  O  O43  1  0.46666467  0.46609133  0.11584933  1
  O  O44  1  0.22920933  0.08894767  0.01371067  1
  O  O45  1  0.91105233  0.14026167  0.01371067  1
  O  O46  1  0.85973833  0.77079067  0.01371067  1
  O  O47  1  0.56254267  0.80692833  0.18037733  1
  O  O48  1  0.17755700  0.75033600  0.54388400  1
  O  O49  1  0.57277900  0.82244300  0.54388400  1
  O  O50  1  0.24966400  0.42722100  0.54388400  1
  O  O51  1  0.23944567  0.08366933  0.37721733  1
  O  O52  1  0.84422367  0.76055433  0.37721733  1
  O  O53  1  0.91633067  0.15577633  0.37721733  1
  O  O54  1  0.91105233  0.77079067  0.51371067  1
  O  O55  1  0.85973833  0.08894767  0.51371067  1
  O  O56  1  0.83495533  0.73072967  0.65860067  1
  O  O57  1  0.26927033  0.10422567  0.65860067  1
  O  O58  1  0.89577433  0.16504467  0.65860067  1
  O  O59  1  0.50162200  0.43755900  0.49193400  1
  O  O60  1  0.56244100  0.06406300  0.49193400  1
  O  O61  1  0.93593700  0.49837800  0.49193400  1
  O  O62  1  0.53390867  0.53333533  0.61584933  1
  O  O63  1  0.46666467  0.00057333  0.61584933  1
  O  O64  1  0.99942667  0.46609133  0.61584933  1
  O  O65  1  0.20057533  0.33390667  0.44918267  1
  O  O66  1  0.66609333  0.86666867  0.44918267  1
  O  O67  1  0.13333133  0.79942467  0.44918267  1
  O  O68  1  0.89587600  0.42228100  0.34704400  1
  O  O69  1  0.57771900  0.47359500  0.34704400  1
  O  O70  1  0.52640500  0.10412400  0.34704400  1
  O  O71  1  0.22920933  0.14026167  0.51371067  1
  O  O72  1  0.84422367  0.08366933  0.87721733  1
  O  O73  1  0.23944567  0.15577633  0.87721733  1
  O  O74  1  0.91633067  0.76055433  0.87721733  1
  O  O75  1  0.90611233  0.41700267  0.71055067  1
  O  O76  1  0.51089033  0.09388767  0.71055067  1
  O  O77  1  0.58299733  0.48910967  0.71055067  1
  O  O78  1  0.57771900  0.10412400  0.84704400  1
  O  O79  1  0.52640500  0.42228100  0.84704400  1
  O  O80  1  0.50162200  0.06406300  0.99193400  1
  O  O81  1  0.93593700  0.43755900  0.99193400  1
  O  O82  1  0.56244100  0.49837800  0.99193400  1
  O  O83  1  0.16828867  0.77089233  0.82526733  1
  O  O84  1  0.22910767  0.39739633  0.82526733  1
  O  O85  1  0.60260367  0.83171133  0.82526733  1
  O  O86  1  0.20057533  0.86666867  0.94918267  1
  O  O87  1  0.13333133  0.33390667  0.94918267  1
  O  O88  1  0.66609333  0.79942467  0.94918267  1
  O  O89  1  0.86724200  0.66724000  0.78251600  1
  O  O90  1  0.33276000  0.20000200  0.78251600  1
  O  O91  1  0.79999800  0.13275800  0.78251600  1
  O  O92  1  0.56254267  0.75561433  0.68037733  1
  O  O93  1  0.24438567  0.80692833  0.68037733  1
  O  O94  1  0.19307167  0.43745733  0.68037733  1
  O  O95  1  0.89587600  0.47359500  0.84704400  1
