# generated using pymatgen
data_BH4N
_symmetry_space_group_name_H-M   'P 1'
_cell_length_a   4.48553400
_cell_length_b   11.32438100
_cell_length_c   12.40461600
_cell_angle_alpha   90.00000000
_cell_angle_beta   90.00000000
_cell_angle_gamma   90.00000000
_symmetry_Int_Tables_number   1
_chemical_formula_structural   BH4N
_chemical_formula_sum   'B12 H48 N12'
_cell_volume   630.10358431
_cell_formula_units_Z   12
loop_
 _symmetry_equiv_pos_site_id
 _symmetry_equiv_pos_as_xyz
  1  'x, y, z'
loop_
 _atom_site_type_symbol
 _atom_site_label
 _atom_site_symmetry_multiplicity
 _atom_site_fract_x
 _atom_site_fract_y
 _atom_site_fract_z
 _atom_site_occupancy
  B  B0  1  0.85453200  0.75000000  0.88500400  1
  B  B1  1  0.85453200  0.25000000  0.61499600  1
  B  B2  1  0.14546800  0.25000000  0.11499600  1
  B  B3  1  0.14546800  0.75000000  0.38500400  1
  B  B4  1  0.85095700  0.13191300  0.42766900  1
  B  B5  1  0.85095700  0.86808700  0.07233100  1
  B  B6  1  0.14904300  0.63191300  0.57233100  1
  B  B7  1  0.14904300  0.36808700  0.92766900  1
  B  B8  1  0.14904300  0.86808700  0.57233100  1
  B  B9  1  0.14904300  0.13191300  0.92766900  1
  B  B10  1  0.85095700  0.36808700  0.42766900  1
  B  B11  1  0.85095700  0.63191300  0.07233100  1
  H  H12  1  0.16676300  0.75000000  0.70607600  1
  H  H13  1  0.16676300  0.25000000  0.79392400  1
  H  H14  1  0.83323700  0.25000000  0.29392400  1
  H  H15  1  0.83323700  0.75000000  0.20607600  1
  H  H16  1  0.47927300  0.75000000  0.63987700  1
  H  H17  1  0.47927300  0.25000000  0.86012300  1
  H  H18  1  0.52072700  0.25000000  0.36012300  1
  H  H19  1  0.52072700  0.75000000  0.13987700  1
  H  H20  1  0.73757200  0.04666500  0.38314300  1
  H  H21  1  0.73757200  0.95333500  0.11685700  1
  H  H22  1  0.26242800  0.54666500  0.61685700  1
  H  H23  1  0.26242800  0.45333500  0.88314300  1
  H  H24  1  0.26242800  0.95333500  0.61685700  1
  H  H25  1  0.26242800  0.04666500  0.88314300  1
  H  H26  1  0.73757200  0.45333500  0.38314300  1
  H  H27  1  0.73757200  0.54666500  0.11685700  1
  H  H28  1  0.12317800  0.12738900  0.42509600  1
  H  H29  1  0.83073400  0.06333000  0.58726900  1
  H  H30  1  0.12317800  0.87261100  0.07490400  1
  H  H31  1  0.87682200  0.37261100  0.92509600  1
  H  H32  1  0.87682200  0.87261100  0.57490400  1
  H  H33  1  0.87682200  0.12738900  0.92509600  1
  H  H34  1  0.12317800  0.37261100  0.42509600  1
  H  H35  1  0.12317800  0.62738900  0.07490400  1
  H  H36  1  0.12702400  0.75000000  0.88083600  1
  H  H37  1  0.12702400  0.25000000  0.61916400  1
  H  H38  1  0.87297600  0.25000000  0.11916400  1
  H  H39  1  0.87297600  0.75000000  0.38083600  1
  H  H40  1  0.74298300  0.75000000  0.79511600  1
  H  H41  1  0.74298300  0.25000000  0.70488400  1
  H  H42  1  0.25701700  0.25000000  0.20488400  1
  H  H43  1  0.25701700  0.75000000  0.29511600  1
  H  H44  1  0.52135200  0.62885500  0.94486000  1
  H  H45  1  0.52135200  0.37114500  0.55514000  1
  H  H46  1  0.47864800  0.12885500  0.05514000  1
  H  H47  1  0.47864800  0.87114500  0.44486000  1
  H  H48  1  0.47864800  0.37114500  0.05514000  1
  H  H49  1  0.47864800  0.62885500  0.44486000  1
  H  H50  1  0.52135200  0.87114500  0.94486000  1
  H  H51  1  0.52135200  0.12885500  0.55514000  1
  H  H52  1  0.83073400  0.56333000  0.91273100  1
  H  H53  1  0.83073400  0.43667000  0.58726900  1
  H  H54  1  0.16926600  0.06333000  0.08726900  1
  H  H55  1  0.16926600  0.93667000  0.41273100  1
  H  H56  1  0.16926600  0.43667000  0.08726900  1
  H  H57  1  0.16926600  0.56333000  0.41273100  1
  H  H58  1  0.83073400  0.93667000  0.91273100  1
  H  H59  1  0.87682200  0.62738900  0.57490400  1
  N  N60  1  0.74907900  0.13753100  0.54990300  1
  N  N61  1  0.74907900  0.86246900  0.95009700  1
  N  N62  1  0.25092100  0.63753100  0.45009700  1
  N  N63  1  0.25092100  0.36246900  0.04990300  1
  N  N64  1  0.25092100  0.86246900  0.45009700  1
  N  N65  1  0.25092100  0.13753100  0.04990300  1
  N  N66  1  0.74907900  0.36246900  0.54990300  1
  N  N67  1  0.74907900  0.63753100  0.95009700  1
  N  N68  1  0.74805700  0.75000000  0.12913300  1
  N  N69  1  0.74805700  0.25000000  0.37086700  1
  N  N70  1  0.25194300  0.25000000  0.87086700  1
  N  N71  1  0.25194300  0.75000000  0.62913300  1
