# generated using pymatgen
data_Cs3MgH5
_symmetry_space_group_name_H-M   'P 1'
_cell_length_a   8.43329100
_cell_length_b   8.43329100
_cell_length_c   12.84082400
_cell_angle_alpha   90.00000000
_cell_angle_beta   90.00000000
_cell_angle_gamma   90.00000000
_symmetry_Int_Tables_number   1
_chemical_formula_structural   Cs3MgH5
_chemical_formula_sum   'Cs12 Mg4 H20'
_cell_volume   913.24450185
_cell_formula_units_Z   4
loop_
 _symmetry_equiv_pos_site_id
 _symmetry_equiv_pos_as_xyz
  1  'x, y, z'
loop_
 _atom_site_type_symbol
 _atom_site_label
 _atom_site_symmetry_multiplicity
 _atom_site_fract_x
 _atom_site_fract_y
 _atom_site_fract_z
 _atom_site_occupancy
  Cs  Cs0  1  0.00000000  0.50000000  0.49625600  1
  Cs  Cs1  1  0.50000000  0.00000000  0.00374400  1
  Cs  Cs2  1  0.50000000  0.00000000  0.50374400  1
  Cs  Cs3  1  0.00000000  0.50000000  0.99625600  1
  Cs  Cs4  1  0.68022600  0.68022600  0.75000000  1
  Cs  Cs5  1  0.81977400  0.18022600  0.75000000  1
  Cs  Cs6  1  0.18022600  0.81977400  0.75000000  1
  Cs  Cs7  1  0.31977400  0.31977400  0.75000000  1
  Cs  Cs8  1  0.81977400  0.81977400  0.25000000  1
  Cs  Cs9  1  0.68022600  0.31977400  0.25000000  1
  Cs  Cs10  1  0.31977400  0.68022600  0.25000000  1
  Cs  Cs11  1  0.18022600  0.18022600  0.25000000  1
  Mg  Mg12  1  0.00000000  0.00000000  0.50000000  1
  Mg  Mg13  1  0.50000000  0.50000000  0.50000000  1
  Mg  Mg14  1  0.50000000  0.50000000  0.00000000  1
  Mg  Mg15  1  0.00000000  0.00000000  0.00000000  1
  H  H16  1  0.00000000  0.50000000  0.74133400  1
  H  H17  1  0.50000000  0.00000000  0.75866600  1
  H  H18  1  0.50000000  0.00000000  0.25866600  1
  H  H19  1  0.00000000  0.50000000  0.24133400  1
  H  H20  1  0.38533400  0.63416400  0.58757300  1
  H  H21  1  0.61466600  0.36583600  0.58757300  1
  H  H22  1  0.63416400  0.38533400  0.91242700  1
  H  H23  1  0.13416400  0.11466600  0.58757300  1
  H  H24  1  0.86583600  0.88533400  0.58757300  1
  H  H25  1  0.11466600  0.13416400  0.91242700  1
  H  H26  1  0.88533400  0.86583600  0.91242700  1
  H  H27  1  0.36583600  0.61466600  0.91242700  1
  H  H28  1  0.11466600  0.86583600  0.41242700  1
  H  H29  1  0.88533400  0.13416400  0.41242700  1
  H  H30  1  0.86583600  0.11466600  0.08757300  1
  H  H31  1  0.36583600  0.38533400  0.41242700  1
  H  H32  1  0.13416400  0.88533400  0.08757300  1
  H  H33  1  0.61466600  0.63416400  0.08757300  1
  H  H34  1  0.38533400  0.36583600  0.08757300  1
  H  H35  1  0.63416400  0.61466600  0.41242700  1
