# generated using pymatgen
data_ZrPbO3
_symmetry_space_group_name_H-M   'P 1'
_cell_length_a   5.96139400
_cell_length_b   6.13396600
_cell_length_c   4.17635600
_cell_angle_alpha   90.00000000
_cell_angle_beta   90.00000000
_cell_angle_gamma   90.00000000
_symmetry_Int_Tables_number   1
_chemical_formula_structural   ZrPbO3
_chemical_formula_sum   'Zr2 Pb2 O6'
_cell_volume   152.71676019
_cell_formula_units_Z   2
loop_
 _symmetry_equiv_pos_site_id
 _symmetry_equiv_pos_as_xyz
  1  'x, y, z'
loop_
 _atom_site_type_symbol
 _atom_site_label
 _atom_site_symmetry_multiplicity
 _atom_site_fract_x
 _atom_site_fract_y
 _atom_site_fract_z
 _atom_site_occupancy
  Zr  Zr0  1  0.50000000  0.00688300  0.50000000  1
  Zr  Zr1  1  0.00000000  0.50688300  0.50000000  1
  Pb  Pb2  1  0.50000000  0.44502200  0.00000000  1
  Pb  Pb3  1  0.00000000  0.94502200  0.00000000  1
  O  O4  1  0.23444000  0.79759400  0.50000000  1
  O  O5  1  0.76556000  0.79759400  0.50000000  1
  O  O6  1  0.50000000  0.05990600  0.00000000  1
  O  O7  1  0.73444000  0.29759400  0.50000000  1
  O  O8  1  0.26556000  0.29759400  0.50000000  1
  O  O9  1  0.00000000  0.55990600  0.00000000  1
