# generated using pymatgen
data_Tl4Te3Pb
_symmetry_space_group_name_H-M   'P 1'
_cell_length_a   8.99642400
_cell_length_b   8.99642400
_cell_length_c   13.49127400
_cell_angle_alpha   90.00000000
_cell_angle_beta   90.00000000
_cell_angle_gamma   90.00000000
_symmetry_Int_Tables_number   1
_chemical_formula_structural   Tl4Te3Pb
_chemical_formula_sum   'Tl16 Te12 Pb4'
_cell_volume   1091.92496020
_cell_formula_units_Z   4
loop_
 _symmetry_equiv_pos_site_id
 _symmetry_equiv_pos_as_xyz
  1  'x, y, z'
loop_
 _atom_site_type_symbol
 _atom_site_label
 _atom_site_symmetry_multiplicity
 _atom_site_fract_x
 _atom_site_fract_y
 _atom_site_fract_z
 _atom_site_occupancy
  Tl  Tl0  1  0.35319300  0.85319300  0.15757800  1
  Tl  Tl1  1  0.85319300  0.35319300  0.34242200  1
  Tl  Tl2  1  0.64680700  0.14680700  0.15757800  1
  Tl  Tl3  1  0.85319300  0.64680700  0.15757800  1
  Tl  Tl4  1  0.14680700  0.35319300  0.15757800  1
  Tl  Tl5  1  0.64680700  0.85319300  0.34242200  1
  Tl  Tl6  1  0.35319300  0.14680700  0.34242200  1
  Tl  Tl7  1  0.14680700  0.64680700  0.34242200  1
  Tl  Tl8  1  0.85319300  0.35319300  0.65757800  1
  Tl  Tl9  1  0.35319300  0.85319300  0.84242200  1
  Tl  Tl10  1  0.14680700  0.64680700  0.65757800  1
  Tl  Tl11  1  0.35319300  0.14680700  0.65757800  1
  Tl  Tl12  1  0.64680700  0.85319300  0.65757800  1
  Tl  Tl13  1  0.14680700  0.35319300  0.84242200  1
  Tl  Tl14  1  0.85319300  0.64680700  0.84242200  1
  Tl  Tl15  1  0.64680700  0.14680700  0.84242200  1
  Te  Te16  1  0.33568500  0.16431500  0.00000000  1
  Te  Te17  1  0.66431500  0.16431500  0.50000000  1
  Te  Te18  1  0.50000000  0.50000000  0.25000000  1
  Te  Te19  1  0.00000000  0.00000000  0.25000000  1
  Te  Te20  1  0.83568500  0.33568500  0.00000000  1
  Te  Te21  1  0.66431500  0.83568500  0.00000000  1
  Te  Te22  1  0.83568500  0.66431500  0.50000000  1
  Te  Te23  1  0.16431500  0.66431500  0.00000000  1
  Te  Te24  1  0.00000000  0.00000000  0.75000000  1
  Te  Te25  1  0.50000000  0.50000000  0.75000000  1
  Te  Te26  1  0.33568500  0.83568500  0.50000000  1
  Te  Te27  1  0.16431500  0.33568500  0.50000000  1
  Pb  Pb28  1  0.00000000  0.00000000  0.00000000  1
  Pb  Pb29  1  0.50000000  0.50000000  0.00000000  1
  Pb  Pb30  1  0.50000000  0.50000000  0.50000000  1
  Pb  Pb31  1  0.00000000  0.00000000  0.50000000  1
