# generated using pymatgen
data_Ca11InSb9
_symmetry_space_group_name_H-M   'P 1'
_cell_length_a   11.94210600
_cell_length_b   12.62564400
_cell_length_c   16.86358000
_cell_angle_alpha   90.00000000
_cell_angle_beta   90.00000000
_cell_angle_gamma   90.00000000
_symmetry_Int_Tables_number   1
_chemical_formula_structural   Ca11InSb9
_chemical_formula_sum   'Ca44 In4 Sb36'
_cell_volume   2542.63627424
_cell_formula_units_Z   4
loop_
 _symmetry_equiv_pos_site_id
 _symmetry_equiv_pos_as_xyz
  1  'x, y, z'
loop_
 _atom_site_type_symbol
 _atom_site_label
 _atom_site_symmetry_multiplicity
 _atom_site_fract_x
 _atom_site_fract_y
 _atom_site_fract_z
 _atom_site_occupancy
  Ca  Ca0  1  0.57253950  0.77824750  0.65395150  1
  Ca  Ca1  1  0.42746050  0.22175250  0.65395150  1
  Ca  Ca2  1  0.92746050  0.27824750  0.65395150  1
  Ca  Ca3  1  0.07253950  0.72175250  0.65395150  1
  Ca  Ca4  1  0.31745150  0.94635350  0.62523050  1
  Ca  Ca5  1  0.68254850  0.05364650  0.62523050  1
  Ca  Ca6  1  0.68254850  0.94635350  0.12523050  1
  Ca  Ca7  1  0.31745150  0.05364650  0.12523050  1
  Ca  Ca8  1  0.58699750  0.77370150  0.33651250  1
  Ca  Ca9  1  0.41300250  0.22629850  0.33651250  1
  Ca  Ca10  1  0.91300250  0.27370150  0.33651250  1
  Ca  Ca11  1  0.08699750  0.72629850  0.33651250  1
  Ca  Ca12  1  0.31565450  0.94205650  0.36695750  1
  Ca  Ca13  1  0.68434550  0.05794350  0.36695750  1
  Ca  Ca14  1  0.68434550  0.94205650  0.86695750  1
  Ca  Ca15  1  0.31565450  0.05794350  0.86695750  1
  Ca  Ca16  1  0.66366850  0.32408350  0.49513850  1
  Ca  Ca17  1  0.33633150  0.67591650  0.49513850  1
  Ca  Ca18  1  0.83633150  0.82408350  0.49513850  1
  Ca  Ca19  1  0.16366850  0.17591650  0.49513850  1
  Ca  Ca20  1  0.00000000  0.00000000  0.66941400  1
  Ca  Ca21  1  0.00000000  0.00000000  0.16941400  1
  Ca  Ca22  1  0.07253950  0.27824750  0.15395150  1
  Ca  Ca23  1  0.92746050  0.72175250  0.15395150  1
  Ca  Ca24  1  0.42746050  0.77824750  0.15395150  1
  Ca  Ca25  1  0.57253950  0.22175250  0.15395150  1
  Ca  Ca26  1  0.81745150  0.44635350  0.12523050  1
  Ca  Ca27  1  0.18254850  0.55364650  0.12523050  1
  Ca  Ca28  1  0.18254850  0.44635350  0.62523050  1
  Ca  Ca29  1  0.81745150  0.55364650  0.62523050  1
  Ca  Ca30  1  0.08699750  0.27370150  0.83651250  1
  Ca  Ca31  1  0.91300250  0.72629850  0.83651250  1
  Ca  Ca32  1  0.41300250  0.77370150  0.83651250  1
  Ca  Ca33  1  0.58699750  0.22629850  0.83651250  1
  Ca  Ca34  1  0.81565450  0.44205650  0.86695750  1
  Ca  Ca35  1  0.18434550  0.55794350  0.86695750  1
  Ca  Ca36  1  0.18434550  0.44205650  0.36695750  1
  Ca  Ca37  1  0.81565450  0.55794350  0.36695750  1
  Ca  Ca38  1  0.16366850  0.82408350  0.99513850  1
  Ca  Ca39  1  0.83633150  0.17591650  0.99513850  1
  Ca  Ca40  1  0.33633150  0.32408350  0.99513850  1
  Ca  Ca41  1  0.66366850  0.67591650  0.99513850  1
  Ca  Ca42  1  0.50000000  0.50000000  0.16941400  1
  Ca  Ca43  1  0.50000000  0.50000000  0.66941400  1
  In  In44  1  0.00000000  0.00000000  0.38641300  1
  In  In45  1  0.00000000  0.00000000  0.88641300  1
  In  In46  1  0.50000000  0.50000000  0.88641300  1
  In  In47  1  0.50000000  0.50000000  0.38641300  1
  Sb  Sb48  1  0.13495200  0.88059100  0.50112300  1
  Sb  Sb49  1  0.86504800  0.11940900  0.50112300  1
  Sb  Sb50  1  0.36504800  0.38059100  0.50112300  1
  Sb  Sb51  1  0.63495200  0.61940900  0.50112300  1
  Sb  Sb52  1  0.50000000  0.00000000  0.74751200  1
  Sb  Sb53  1  0.50000000  0.00000000  0.24751200  1
  Sb  Sb54  1  0.82421050  0.82329850  0.67846950  1
  Sb  Sb55  1  0.17578950  0.17670150  0.67846950  1
  Sb  Sb56  1  0.17578950  0.82329850  0.17846950  1
  Sb  Sb57  1  0.82421050  0.17670150  0.17846950  1
  Sb  Sb58  1  0.53551900  0.89076000  0.49295500  1
  Sb  Sb59  1  0.46448100  0.10924000  0.49295500  1
  Sb  Sb60  1  0.96448100  0.39076000  0.49295500  1
  Sb  Sb61  1  0.03551900  0.60924000  0.49295500  1
  Sb  Sb62  1  0.84699000  0.85539700  0.30395300  1
  Sb  Sb63  1  0.15301000  0.14460300  0.30395300  1
  Sb  Sb64  1  0.15301000  0.85539700  0.80395300  1
  Sb  Sb65  1  0.84699000  0.14460300  0.80395300  1
  Sb  Sb66  1  0.63495200  0.38059100  0.00112300  1
  Sb  Sb67  1  0.36504800  0.61940900  0.00112300  1
  Sb  Sb68  1  0.86504800  0.88059100  0.00112300  1
  Sb  Sb69  1  0.13495200  0.11940900  0.00112300  1
  Sb  Sb70  1  0.00000000  0.50000000  0.24751200  1
  Sb  Sb71  1  0.00000000  0.50000000  0.74751200  1
  Sb  Sb72  1  0.32421050  0.32329850  0.17846950  1
  Sb  Sb73  1  0.67578950  0.67670150  0.17846950  1
  Sb  Sb74  1  0.67578950  0.32329850  0.67846950  1
  Sb  Sb75  1  0.32421050  0.67670150  0.67846950  1
  Sb  Sb76  1  0.03551900  0.39076000  0.99295500  1
  Sb  Sb77  1  0.96448100  0.60924000  0.99295500  1
  Sb  Sb78  1  0.46448100  0.89076000  0.99295500  1
  Sb  Sb79  1  0.53551900  0.10924000  0.99295500  1
  Sb  Sb80  1  0.34699000  0.35539700  0.80395300  1
  Sb  Sb81  1  0.65301000  0.64460300  0.80395300  1
  Sb  Sb82  1  0.65301000  0.35539700  0.30395300  1
  Sb  Sb83  1  0.34699000  0.64460300  0.30395300  1
