# generated using pymatgen
data_Li4Ge9O20
_symmetry_space_group_name_H-M   'P 1'
_cell_length_a   12.61173200
_cell_length_b   8.11031600
_cell_length_c   7.60146441
_cell_angle_alpha   90.00000000
_cell_angle_beta   90.60402603
_cell_angle_gamma   90.00000000
_symmetry_Int_Tables_number   1
_chemical_formula_structural   Li4Ge9O20
_chemical_formula_sum   'Li8 Ge18 O40'
_cell_volume   777.47358299
_cell_formula_units_Z   2
loop_
 _symmetry_equiv_pos_site_id
 _symmetry_equiv_pos_as_xyz
  1  'x, y, z'
loop_
 _atom_site_type_symbol
 _atom_site_label
 _atom_site_symmetry_multiplicity
 _atom_site_fract_x
 _atom_site_fract_y
 _atom_site_fract_z
 _atom_site_occupancy
  Li  Li0  1  0.79301500  0.86050700  0.38198700  1
  Li  Li1  1  0.20698500  0.86050700  0.61801300  1
  Li  Li2  1  0.50000000  0.17198600  0.00000000  1
  Li  Li3  1  0.50000000  0.79038300  0.00000000  1
  Li  Li4  1  0.29301500  0.36050700  0.38198700  1
  Li  Li5  1  0.70698500  0.36050700  0.61801300  1
  Li  Li6  1  0.00000000  0.67198600  0.00000000  1
  Li  Li7  1  0.00000000  0.29038300  0.00000000  1
  Ge  Ge8  1  0.65152650  0.00081950  0.70897700  1
  Ge  Ge9  1  0.34847350  0.00081950  0.29102300  1
  Ge  Ge10  1  0.23583450  0.15680050  0.95042100  1
  Ge  Ge11  1  0.76416550  0.15680050  0.04957900  1
  Ge  Ge12  1  0.89965100  0.98363700  0.75985700  1
  Ge  Ge13  1  0.10034900  0.98363700  0.24014300  1
  Ge  Ge14  1  0.40515700  0.08675400  0.66957000  1
  Ge  Ge15  1  0.59484300  0.08675400  0.33043000  1
  Ge  Ge16  1  0.50000000  0.73358700  0.50000000  1
  Ge  Ge17  1  0.15152650  0.50081950  0.70897700  1
  Ge  Ge18  1  0.84847350  0.50081950  0.29102300  1
  Ge  Ge19  1  0.73583450  0.65680050  0.95042100  1
  Ge  Ge20  1  0.26416550  0.65680050  0.04957900  1
  Ge  Ge21  1  0.39965100  0.48363700  0.75985700  1
  Ge  Ge22  1  0.60034900  0.48363700  0.24014300  1
  Ge  Ge23  1  0.90515700  0.58675400  0.66957000  1
  Ge  Ge24  1  0.09484300  0.58675400  0.33043000  1
  Ge  Ge25  1  0.00000000  0.23358700  0.50000000  1
  O  O26  1  0.61187700  0.16990800  0.54498200  1
  O  O27  1  0.38812300  0.16990800  0.45501800  1
  O  O28  1  0.67409250  0.17754150  0.87047900  1
  O  O29  1  0.32590750  0.17754150  0.12952100  1
  O  O30  1  0.69129400  0.85211200  0.88402500  1
  O  O31  1  0.48915800  0.59613400  0.31868500  1
  O  O32  1  0.51084200  0.59613400  0.68131500  1
  O  O33  1  0.50641050  0.97290350  0.78532400  1
  O  O34  1  0.49358950  0.97290350  0.21467600  1
  O  O35  1  0.56726600  0.27606600  0.20116700  1
  O  O36  1  0.43273400  0.27606600  0.79883300  1
  O  O37  1  0.11324200  0.07760500  0.03029500  1
  O  O38  1  0.88675800  0.07760500  0.96970500  1
  O  O39  1  0.61733300  0.85815500  0.49869900  1
  O  O40  1  0.38266700  0.85815500  0.50130100  1
  O  O41  1  0.20813900  0.00153900  0.38722600  1
  O  O42  1  0.79186100  0.00153900  0.61277400  1
  O  O43  1  0.72002950  0.03289050  0.23031800  1
  O  O44  1  0.27997050  0.03289050  0.76968200  1
  O  O45  1  0.30870600  0.85211200  0.11597500  1
  O  O46  1  0.11187700  0.66990800  0.54498200  1
  O  O47  1  0.88812300  0.66990800  0.45501800  1
  O  O48  1  0.17409250  0.67754150  0.87047900  1
  O  O49  1  0.82590750  0.67754150  0.12952100  1
  O  O50  1  0.19129400  0.35211200  0.88402500  1
  O  O51  1  0.98915800  0.09613400  0.31868500  1
  O  O52  1  0.01084200  0.09613400  0.68131500  1
  O  O53  1  0.00641050  0.47290350  0.78532400  1
  O  O54  1  0.99358950  0.47290350  0.21467600  1
  O  O55  1  0.06726600  0.77606600  0.20116700  1
  O  O56  1  0.93273400  0.77606600  0.79883300  1
  O  O57  1  0.61324200  0.57760500  0.03029500  1
  O  O58  1  0.38675800  0.57760500  0.96970500  1
  O  O59  1  0.11733300  0.35815500  0.49869900  1
  O  O60  1  0.88266700  0.35815500  0.50130100  1
  O  O61  1  0.70813900  0.50153900  0.38722600  1
  O  O62  1  0.29186100  0.50153900  0.61277400  1
  O  O63  1  0.22002950  0.53289050  0.23031800  1
  O  O64  1  0.77997050  0.53289050  0.76968200  1
  O  O65  1  0.80870600  0.35211200  0.11597500  1
