# generated using pymatgen
data_SO2
_symmetry_space_group_name_H-M   'P 1'
_cell_length_a   6.49898200
_cell_length_b   6.98743200
_cell_length_c   6.69126600
_cell_angle_alpha   90.00000000
_cell_angle_beta   90.00000000
_cell_angle_gamma   90.00000000
_symmetry_Int_Tables_number   1
_chemical_formula_structural   SO2
_chemical_formula_sum   'S4 O8'
_cell_volume   303.85838375
_cell_formula_units_Z   4
loop_
 _symmetry_equiv_pos_site_id
 _symmetry_equiv_pos_as_xyz
  1  'x, y, z'
loop_
 _atom_site_type_symbol
 _atom_site_label
 _atom_site_symmetry_multiplicity
 _atom_site_fract_x
 _atom_site_fract_y
 _atom_site_fract_z
 _atom_site_occupancy
  S  S0  1  0.50000000  0.85990200  0.50000000  1
  S  S1  1  0.50000000  0.35990200  0.00000000  1
  S  S2  1  0.00000000  0.35990200  0.50000000  1
  S  S3  1  0.00000000  0.85990200  0.00000000  1
  O  O4  1  0.63899900  0.96745400  0.62647900  1
  O  O5  1  0.36100100  0.96745400  0.37352100  1
  O  O6  1  0.13899900  0.96745400  0.87352100  1
  O  O7  1  0.86100100  0.96745400  0.12647900  1
  O  O8  1  0.13899900  0.46745400  0.62647900  1
  O  O9  1  0.86100100  0.46745400  0.37352100  1
  O  O10  1  0.63899900  0.46745400  0.87352100  1
  O  O11  1  0.36100100  0.46745400  0.12647900  1
