# generated using pymatgen
data_TmCl3
_symmetry_space_group_name_H-M   'P 1'
_cell_length_a   6.65788783
_cell_length_b   6.65788783
_cell_length_c   18.04341707
_cell_angle_alpha   90.00000000
_cell_angle_beta   90.00000000
_cell_angle_gamma   120.00000000
_symmetry_Int_Tables_number   1
_chemical_formula_structural   TmCl3
_chemical_formula_sum   'Tm6 Cl18'
_cell_volume   692.66360317
_cell_formula_units_Z   6
loop_
 _symmetry_equiv_pos_site_id
 _symmetry_equiv_pos_as_xyz
  1  'x, y, z'
loop_
 _atom_site_type_symbol
 _atom_site_label
 _atom_site_symmetry_multiplicity
 _atom_site_fract_x
 _atom_site_fract_y
 _atom_site_fract_z
 _atom_site_occupancy
  Tm  Tm0  1  0.33333333  0.66666667  0.16666667  1
  Tm  Tm1  1  0.00000000  0.00000000  0.00000000  1
  Tm  Tm2  1  1.00000000  0.00000000  0.50000000  1
  Tm  Tm3  1  0.66666667  0.33333333  0.33333333  1
  Tm  Tm4  1  0.66666667  0.33333333  0.83333333  1
  Tm  Tm5  1  0.33333333  0.66666667  0.66666667  1
  Cl  Cl6  1  0.66666667  0.97621033  0.08333333  1
  Cl  Cl7  1  0.02378967  0.69045633  0.08333333  1
  Cl  Cl8  1  0.35712300  0.00000000  0.25000000  1
  Cl  Cl9  1  0.64287700  0.64287700  0.25000000  1
  Cl  Cl10  1  0.00000000  0.35712300  0.25000000  1
  Cl  Cl11  1  0.30954367  0.33333333  0.08333333  1
  Cl  Cl12  1  0.33333333  0.30954367  0.41666667  1
  Cl  Cl13  1  0.69045633  0.02378967  0.41666667  1
  Cl  Cl14  1  0.02378967  0.33333333  0.58333333  1
  Cl  Cl15  1  0.30954367  0.97621033  0.58333333  1
  Cl  Cl16  1  0.66666667  0.69045633  0.58333333  1
  Cl  Cl17  1  0.97621033  0.66666667  0.41666667  1
  Cl  Cl18  1  0.00000000  0.64287700  0.75000000  1
  Cl  Cl19  1  0.35712300  0.35712300  0.75000000  1
  Cl  Cl20  1  0.69045633  0.66666667  0.91666667  1
  Cl  Cl21  1  0.97621033  0.30954367  0.91666667  1
  Cl  Cl22  1  0.33333333  0.02378967  0.91666667  1
  Cl  Cl23  1  0.64287700  0.00000000  0.75000000  1
