# generated using pymatgen
data_EuVO4
_symmetry_space_group_name_H-M   'P 1'
_cell_length_a   7.39547600
_cell_length_b   7.39547600
_cell_length_c   6.48814200
_cell_angle_alpha   90.00000000
_cell_angle_beta   90.00000000
_cell_angle_gamma   90.00000000
_symmetry_Int_Tables_number   1
_chemical_formula_structural   EuVO4
_chemical_formula_sum   'Eu4 V4 O16'
_cell_volume   354.85637386
_cell_formula_units_Z   4
loop_
 _symmetry_equiv_pos_site_id
 _symmetry_equiv_pos_as_xyz
  1  'x, y, z'
loop_
 _atom_site_type_symbol
 _atom_site_label
 _atom_site_symmetry_multiplicity
 _atom_site_fract_x
 _atom_site_fract_y
 _atom_site_fract_z
 _atom_site_occupancy
  Eu  Eu0  1  0.50000000  0.00000000  0.75000000  1
  Eu  Eu1  1  0.00000000  0.00000000  0.50000000  1
  Eu  Eu2  1  0.00000000  0.50000000  0.25000000  1
  Eu  Eu3  1  0.50000000  0.50000000  0.00000000  1
  V  V4  1  0.50000000  0.50000000  0.50000000  1
  V  V5  1  0.50000000  0.00000000  0.25000000  1
  V  V6  1  0.00000000  0.00000000  0.00000000  1
  V  V7  1  0.00000000  0.50000000  0.75000000  1
  O  O8  1  0.00000000  0.68167000  0.57932000  1
  O  O9  1  0.81833000  0.00000000  0.82932000  1
  O  O10  1  0.68167000  0.50000000  0.32932000  1
  O  O11  1  0.00000000  0.31833000  0.57932000  1
  O  O12  1  0.68167000  0.00000000  0.42068000  1
  O  O13  1  0.50000000  0.31833000  0.67068000  1
  O  O14  1  0.00000000  0.18167000  0.17068000  1
  O  O15  1  0.31833000  0.00000000  0.42068000  1
  O  O16  1  0.50000000  0.18167000  0.07932000  1
  O  O17  1  0.31833000  0.50000000  0.32932000  1
  O  O18  1  0.18167000  0.00000000  0.82932000  1
  O  O19  1  0.50000000  0.81833000  0.07932000  1
  O  O20  1  0.18167000  0.50000000  0.92068000  1
  O  O21  1  0.00000000  0.81833000  0.17068000  1
  O  O22  1  0.50000000  0.68167000  0.67068000  1
  O  O23  1  0.81833000  0.50000000  0.92068000  1
