# generated using pymatgen
data_Rb2P3
_symmetry_space_group_name_H-M   'P 1'
_cell_length_a   9.09389400
_cell_length_b   9.79425400
_cell_length_c   14.88426800
_cell_angle_alpha   90.00000000
_cell_angle_beta   90.00000000
_cell_angle_gamma   90.00000000
_symmetry_Int_Tables_number   1
_chemical_formula_structural   Rb2P3
_chemical_formula_sum   'Rb16 P24'
_cell_volume   1325.71060818
_cell_formula_units_Z   8
loop_
 _symmetry_equiv_pos_site_id
 _symmetry_equiv_pos_as_xyz
  1  'x, y, z'
loop_
 _atom_site_type_symbol
 _atom_site_label
 _atom_site_symmetry_multiplicity
 _atom_site_fract_x
 _atom_site_fract_y
 _atom_site_fract_z
 _atom_site_occupancy
  Rb  Rb0  1  0.75000000  0.75000000  0.25000000  1
  Rb  Rb1  1  0.75000000  0.25000000  0.25000000  1
  Rb  Rb2  1  0.50000000  0.22313200  0.00000000  1
  Rb  Rb3  1  0.50000000  0.77686800  0.00000000  1
  Rb  Rb4  1  0.75000000  0.25000000  0.75000000  1
  Rb  Rb5  1  0.75000000  0.75000000  0.75000000  1
  Rb  Rb6  1  0.50000000  0.72313200  0.50000000  1
  Rb  Rb7  1  0.50000000  0.27686800  0.50000000  1
  Rb  Rb8  1  0.25000000  0.75000000  0.75000000  1
  Rb  Rb9  1  0.25000000  0.25000000  0.75000000  1
  Rb  Rb10  1  0.00000000  0.22313200  0.50000000  1
  Rb  Rb11  1  0.00000000  0.77686800  0.50000000  1
  Rb  Rb12  1  0.25000000  0.25000000  0.25000000  1
  Rb  Rb13  1  0.25000000  0.75000000  0.25000000  1
  Rb  Rb14  1  0.00000000  0.72313200  0.00000000  1
  Rb  Rb15  1  0.00000000  0.27686800  0.00000000  1
  P  P16  1  0.50000000  0.00000000  0.35342100  1
  P  P17  1  0.00000000  0.00000000  0.14657900  1
  P  P18  1  0.70628750  0.00000000  0.42710650  1
  P  P19  1  0.20628750  0.00000000  0.07289350  1
  P  P20  1  0.79371250  0.00000000  0.07289350  1
  P  P21  1  0.29371250  0.00000000  0.42710650  1
  P  P22  1  0.50000000  0.50000000  0.85342100  1
  P  P23  1  0.00000000  0.50000000  0.64657900  1
  P  P24  1  0.70628750  0.50000000  0.92710650  1
  P  P25  1  0.20628750  0.50000000  0.57289350  1
  P  P26  1  0.79371250  0.50000000  0.57289350  1
  P  P27  1  0.29371250  0.50000000  0.92710650  1
  P  P28  1  0.00000000  0.00000000  0.85342100  1
  P  P29  1  0.50000000  0.00000000  0.64657900  1
  P  P30  1  0.20628750  0.00000000  0.92710650  1
  P  P31  1  0.70628750  0.00000000  0.57289350  1
  P  P32  1  0.29371250  0.00000000  0.57289350  1
  P  P33  1  0.79371250  0.00000000  0.92710650  1
  P  P34  1  0.00000000  0.50000000  0.35342100  1
  P  P35  1  0.50000000  0.50000000  0.14657900  1
  P  P36  1  0.20628750  0.50000000  0.42710650  1
  P  P37  1  0.70628750  0.50000000  0.07289350  1
  P  P38  1  0.29371250  0.50000000  0.07289350  1
  P  P39  1  0.79371250  0.50000000  0.42710650  1
