# generated using pymatgen
data_Rb2Cd3Te4
_symmetry_space_group_name_H-M   'P 1'
_cell_length_a   14.83864600
_cell_length_b   15.68236800
_cell_length_c   13.22769839
_cell_angle_alpha   90.00000000
_cell_angle_beta   115.98556578
_cell_angle_gamma   90.00000000
_symmetry_Int_Tables_number   1
_chemical_formula_structural   Rb2Cd3Te4
_chemical_formula_sum   'Rb16 Cd24 Te32'
_cell_volume   2766.96541667
_cell_formula_units_Z   8
loop_
 _symmetry_equiv_pos_site_id
 _symmetry_equiv_pos_as_xyz
  1  'x, y, z'
loop_
 _atom_site_type_symbol
 _atom_site_label
 _atom_site_symmetry_multiplicity
 _atom_site_fract_x
 _atom_site_fract_y
 _atom_site_fract_z
 _atom_site_occupancy
  Rb  Rb0  1  0.00000000  0.00000000  0.00000000  1
  Rb  Rb1  1  0.75352000  0.00182500  0.63705200  1
  Rb  Rb2  1  0.75352000  0.99817500  0.13705200  1
  Rb  Rb3  1  0.24648000  0.99817500  0.36294800  1
  Rb  Rb4  1  0.50000000  0.00216300  0.75000000  1
  Rb  Rb5  1  0.50000000  0.99783700  0.25000000  1
  Rb  Rb6  1  0.00000000  0.00000000  0.50000000  1
  Rb  Rb7  1  0.24648000  0.00182500  0.86294800  1
  Rb  Rb8  1  0.50000000  0.50000000  0.00000000  1
  Rb  Rb9  1  0.25352000  0.50182500  0.63705200  1
  Rb  Rb10  1  0.25352000  0.49817500  0.13705200  1
  Rb  Rb11  1  0.74648000  0.49817500  0.36294800  1
  Rb  Rb12  1  0.00000000  0.50216300  0.75000000  1
  Rb  Rb13  1  0.00000000  0.49783700  0.25000000  1
  Rb  Rb14  1  0.50000000  0.50000000  0.50000000  1
  Rb  Rb15  1  0.74648000  0.50182500  0.86294800  1
  Cd  Cd16  1  0.64814250  0.24024350  0.19873700  1
  Cd  Cd17  1  0.38661000  0.26198200  0.58955400  1
  Cd  Cd18  1  0.61339000  0.73801800  0.41044600  1
  Cd  Cd19  1  0.38661000  0.73801800  0.08955400  1
  Cd  Cd20  1  0.35185750  0.24024350  0.30126300  1
  Cd  Cd21  1  0.35185750  0.75975650  0.80126300  1
  Cd  Cd22  1  0.64814250  0.75975650  0.69873700  1
  Cd  Cd23  1  0.61876900  0.24018400  0.45649200  1
  Cd  Cd24  1  0.38123100  0.24018400  0.04350800  1
  Cd  Cd25  1  0.38123100  0.75981600  0.54350800  1
  Cd  Cd26  1  0.61876900  0.75981600  0.95649200  1
  Cd  Cd27  1  0.61339000  0.26198200  0.91044600  1
  Cd  Cd28  1  0.14814250  0.74024350  0.19873700  1
  Cd  Cd29  1  0.88661000  0.76198200  0.58955400  1
  Cd  Cd30  1  0.11339000  0.23801800  0.41044600  1
  Cd  Cd31  1  0.88661000  0.23801800  0.08955400  1
  Cd  Cd32  1  0.85185750  0.74024350  0.30126300  1
  Cd  Cd33  1  0.85185750  0.25975650  0.80126300  1
  Cd  Cd34  1  0.14814250  0.25975650  0.69873700  1
  Cd  Cd35  1  0.11876900  0.74018400  0.45649200  1
  Cd  Cd36  1  0.88123100  0.74018400  0.04350800  1
  Cd  Cd37  1  0.88123100  0.25981600  0.54350800  1
  Cd  Cd38  1  0.11876900  0.25981600  0.95649200  1
  Cd  Cd39  1  0.11339000  0.76198200  0.91044600  1
  Te  Te40  1  0.48102250  0.13891150  0.49785400  1
  Te  Te41  1  0.51897750  0.13891150  0.00214600  1
  Te  Te42  1  0.51897750  0.86108850  0.50214600  1
  Te  Te43  1  0.48102250  0.86108850  0.99785400  1
  Te  Te44  1  0.50000000  0.65716200  0.75000000  1
  Te  Te45  1  0.50000000  0.34283800  0.25000000  1
  Te  Te46  1  0.50000000  0.38295400  0.75000000  1
  Te  Te47  1  0.50000000  0.61704600  0.25000000  1
  Te  Te48  1  0.24967550  0.85619650  0.12072300  1
  Te  Te49  1  0.75032450  0.14380350  0.87927700  1
  Te  Te50  1  0.24967550  0.14380350  0.62072300  1
  Te  Te51  1  0.74974250  0.13504350  0.39250000  1
  Te  Te52  1  0.25025750  0.13504350  0.10750000  1
  Te  Te53  1  0.25025750  0.86495650  0.60750000  1
  Te  Te54  1  0.74974250  0.86495650  0.89250000  1
  Te  Te55  1  0.75032450  0.85619650  0.37927700  1
  Te  Te56  1  0.98102250  0.63891150  0.49785400  1
  Te  Te57  1  0.01897750  0.63891150  0.00214600  1
  Te  Te58  1  0.01897750  0.36108850  0.50214600  1
  Te  Te59  1  0.98102250  0.36108850  0.99785400  1
  Te  Te60  1  0.00000000  0.15716200  0.75000000  1
  Te  Te61  1  0.00000000  0.84283800  0.25000000  1
  Te  Te62  1  0.00000000  0.88295400  0.75000000  1
  Te  Te63  1  0.00000000  0.11704600  0.25000000  1
  Te  Te64  1  0.74967550  0.35619650  0.12072300  1
  Te  Te65  1  0.25032450  0.64380350  0.87927700  1
  Te  Te66  1  0.74967550  0.64380350  0.62072300  1
  Te  Te67  1  0.24974250  0.63504350  0.39250000  1
  Te  Te68  1  0.75025750  0.63504350  0.10750000  1
  Te  Te69  1  0.75025750  0.36495650  0.60750000  1
  Te  Te70  1  0.24974250  0.36495650  0.89250000  1
  Te  Te71  1  0.25032450  0.35619650  0.37927700  1
