# generated using pymatgen
data_KP(HO2)2
_symmetry_space_group_name_H-M   'P 1'
_cell_length_a   7.35092100
_cell_length_b   7.48220273
_cell_length_c   7.50498229
_cell_angle_alpha   87.86862719
_cell_angle_beta   87.05385220
_cell_angle_gamma   89.37040173
_symmetry_Int_Tables_number   1
_chemical_formula_structural   KP(HO2)2
_chemical_formula_sum   'K4 P4 H8 O16'
_cell_volume   411.93432642
_cell_formula_units_Z   4
loop_
 _symmetry_equiv_pos_site_id
 _symmetry_equiv_pos_as_xyz
  1  'x, y, z'
loop_
 _atom_site_type_symbol
 _atom_site_label
 _atom_site_symmetry_multiplicity
 _atom_site_fract_x
 _atom_site_fract_y
 _atom_site_fract_z
 _atom_site_occupancy
  K  K0  1  0.06022700  0.82078100  0.69257900  1
  K  K1  1  0.93977300  0.17921900  0.30742100  1
  K  K2  1  0.64430600  0.24669400  0.79921200  1
  K  K3  1  0.35569400  0.75330600  0.20078800  1
  P  P4  1  0.56603300  0.75303600  0.69836500  1
  P  P5  1  0.43396700  0.24696400  0.30163500  1
  P  P6  1  0.11152700  0.27650300  0.79243700  1
  P  P7  1  0.88847300  0.72349700  0.20756300  1
  H  H8  1  0.27421900  0.13656100  0.00299600  1
  H  H9  1  0.34302500  0.56034400  0.78508100  1
  H  H10  1  0.71994700  0.59004800  0.48680200  1
  H  H11  1  0.28005300  0.40995200  0.51319800  1
  H  H12  1  0.65697500  0.43965600  0.21491900  1
  H  H13  1  0.50000000  0.00000000  0.50000000  1
  H  H14  1  0.72578100  0.86343900  0.99700400  1
  H  H15  1  0.00000000  0.50000000  0.00000000  1
  O  O16  1  0.00515700  0.65322400  0.04478300  1
  O  O17  1  0.99484300  0.34677600  0.95521700  1
  O  O18  1  0.31997600  0.12084100  0.20170000  1
  O  O19  1  0.00073100  0.81417600  0.34034300  1
  O  O20  1  0.99926900  0.18582400  0.65965700  1
  O  O21  1  0.75069300  0.87180600  0.12949400  1
  O  O22  1  0.24930700  0.12819400  0.87050600  1
  O  O23  1  0.68002400  0.87915900  0.79830000  1
  O  O24  1  0.42116500  0.66199300  0.83601700  1
  O  O25  1  0.77114200  0.56867800  0.29721500  1
  O  O26  1  0.22885800  0.43132200  0.70278500  1
  O  O27  1  0.68402300  0.59118500  0.62444200  1
  O  O28  1  0.57883500  0.33800700  0.16398300  1
  O  O29  1  0.53470400  0.15415200  0.45676800  1
  O  O30  1  0.46529600  0.84584800  0.54323200  1
  O  O31  1  0.31597700  0.40881500  0.37555800  1
