# generated using pymatgen
data_Ti(CuS)4
_symmetry_space_group_name_H-M   'P 1'
_cell_length_a   5.44247000
_cell_length_b   5.44247000
_cell_length_c   10.61089800
_cell_angle_alpha   90.00000000
_cell_angle_beta   90.00000000
_cell_angle_gamma   90.00000000
_symmetry_Int_Tables_number   1
_chemical_formula_structural   Ti(CuS)4
_chemical_formula_sum   'Ti2 Cu8 S8'
_cell_volume   314.29988882
_cell_formula_units_Z   2
loop_
 _symmetry_equiv_pos_site_id
 _symmetry_equiv_pos_as_xyz
  1  'x, y, z'
loop_
 _atom_site_type_symbol
 _atom_site_label
 _atom_site_symmetry_multiplicity
 _atom_site_fract_x
 _atom_site_fract_y
 _atom_site_fract_z
 _atom_site_occupancy
  Ti  Ti0  1  0.00000000  0.00000000  0.00000000  1
  Ti  Ti1  1  0.50000000  0.50000000  0.50000000  1
  Cu  Cu2  1  0.50000000  0.00000000  0.00000000  1
  Cu  Cu3  1  0.00000000  0.50000000  0.00000000  1
  Cu  Cu4  1  0.00000000  0.00000000  0.25814800  1
  Cu  Cu5  1  0.50000000  0.50000000  0.24185200  1
  Cu  Cu6  1  0.00000000  0.50000000  0.50000000  1
  Cu  Cu7  1  0.50000000  0.00000000  0.50000000  1
  Cu  Cu8  1  0.50000000  0.50000000  0.75814800  1
  Cu  Cu9  1  0.00000000  0.00000000  0.74185200  1
  S  S10  1  0.75579250  0.75579250  0.12541750  1
  S  S11  1  0.25579250  0.74420750  0.37458250  1
  S  S12  1  0.74420750  0.25579250  0.37458250  1
  S  S13  1  0.24420750  0.24420750  0.12541750  1
  S  S14  1  0.25579250  0.25579250  0.62541750  1
  S  S15  1  0.75579250  0.24420750  0.87458250  1
  S  S16  1  0.24420750  0.75579250  0.87458250  1
  S  S17  1  0.74420750  0.74420750  0.62541750  1
