# generated using pymatgen
data_Y2Ti2S2O5
_symmetry_space_group_name_H-M   'P 1'
_cell_length_a   3.79600400
_cell_length_b   3.79600400
_cell_length_c   23.09066000
_cell_angle_alpha   90.00000000
_cell_angle_beta   90.00000000
_cell_angle_gamma   90.00000000
_symmetry_Int_Tables_number   1
_chemical_formula_structural   Y2Ti2S2O5
_chemical_formula_sum   'Y4 Ti4 S4 O10'
_cell_volume   332.72824500
_cell_formula_units_Z   2
loop_
 _symmetry_equiv_pos_site_id
 _symmetry_equiv_pos_as_xyz
  1  'x, y, z'
loop_
 _atom_site_type_symbol
 _atom_site_label
 _atom_site_symmetry_multiplicity
 _atom_site_fract_x
 _atom_site_fract_y
 _atom_site_fract_z
 _atom_site_occupancy
  Y  Y0  1  0.50000000  0.50000000  0.16669800  1
  Y  Y1  1  0.00000000  0.00000000  0.33330200  1
  Y  Y2  1  0.00000000  0.00000000  0.66669800  1
  Y  Y3  1  0.50000000  0.50000000  0.83330200  1
  Ti  Ti4  1  0.50000000  0.50000000  0.42149300  1
  Ti  Ti5  1  0.00000000  0.00000000  0.07850700  1
  Ti  Ti6  1  0.00000000  0.00000000  0.92149300  1
  Ti  Ti7  1  0.50000000  0.50000000  0.57850700  1
  S  S8  1  0.50000000  0.50000000  0.29475200  1
  S  S9  1  0.00000000  0.00000000  0.20524800  1
  S  S10  1  0.00000000  0.00000000  0.79475200  1
  S  S11  1  0.50000000  0.50000000  0.70524800  1
  O  O12  1  0.00000000  0.00000000  0.00000000  1
  O  O13  1  0.00000000  0.50000000  0.40080500  1
  O  O14  1  0.00000000  0.50000000  0.09919500  1
  O  O15  1  0.50000000  0.00000000  0.40080500  1
  O  O16  1  0.50000000  0.00000000  0.09919500  1
  O  O17  1  0.50000000  0.50000000  0.50000000  1
  O  O18  1  0.50000000  0.00000000  0.90080500  1
  O  O19  1  0.50000000  0.00000000  0.59919500  1
  O  O20  1  0.00000000  0.50000000  0.90080500  1
  O  O21  1  0.00000000  0.50000000  0.59919500  1
