# generated using pymatgen
data_CaH4SeO6
_symmetry_space_group_name_H-M   'P 1'
_cell_length_a   6.68887800
_cell_length_b   15.55920400
_cell_length_c   5.87994245
_cell_angle_alpha   90.00000000
_cell_angle_beta   116.30252061
_cell_angle_gamma   90.00000000
_symmetry_Int_Tables_number   1
_chemical_formula_structural   CaH4SeO6
_chemical_formula_sum   'Ca4 H16 Se4 O24'
_cell_volume   548.59014577
_cell_formula_units_Z   4
loop_
 _symmetry_equiv_pos_site_id
 _symmetry_equiv_pos_as_xyz
  1  'x, y, z'
loop_
 _atom_site_type_symbol
 _atom_site_label
 _atom_site_symmetry_multiplicity
 _atom_site_fract_x
 _atom_site_fract_y
 _atom_site_fract_z
 _atom_site_occupancy
  Ca  Ca0  1  0.00000000  0.16936600  0.75000000  1
  Ca  Ca1  1  0.50000000  0.33063400  0.25000000  1
  Ca  Ca2  1  0.50000000  0.66936600  0.75000000  1
  Ca  Ca3  1  0.00000000  0.83063400  0.25000000  1
  H  H4  1  0.25909050  0.49360950  0.92961500  1
  H  H5  1  0.74090950  0.49360950  0.57038500  1
  H  H6  1  0.24090950  0.00639050  0.07038500  1
  H  H7  1  0.75909050  0.00639050  0.42961500  1
  H  H8  1  0.24938800  0.41401300  0.75784200  1
  H  H9  1  0.75061200  0.41401300  0.74215800  1
  H  H10  1  0.25061200  0.08598700  0.24215800  1
  H  H11  1  0.74938800  0.08598700  0.25784200  1
  H  H12  1  0.75909050  0.99360950  0.92961500  1
  H  H13  1  0.24090950  0.99360950  0.57038500  1
  H  H14  1  0.74090950  0.50639050  0.07038500  1
  H  H15  1  0.25909050  0.50639050  0.42961500  1
  H  H16  1  0.74938800  0.91401300  0.75784200  1
  H  H17  1  0.25061200  0.91401300  0.74215800  1
  H  H18  1  0.75061200  0.58598700  0.24215800  1
  H  H19  1  0.24938800  0.58598700  0.25784200  1
  Se  Se20  1  0.00000000  0.33184500  0.25000000  1
  Se  Se21  1  0.50000000  0.16815500  0.75000000  1
  Se  Se22  1  0.50000000  0.83184500  0.25000000  1
  Se  Se23  1  0.00000000  0.66815500  0.75000000  1
  O  O24  1  0.28086900  0.10882300  0.55654100  1
  O  O25  1  0.89634800  0.27093900  0.40700400  1
  O  O26  1  0.60365200  0.22906100  0.59299600  1
  O  O27  1  0.39634800  0.22906100  0.90700400  1
  O  O28  1  0.78671200  0.06878600  0.43420000  1
  O  O29  1  0.21328800  0.06878600  0.06580000  1
  O  O30  1  0.71328800  0.43121400  0.56580000  1
  O  O31  1  0.28671200  0.43121400  0.93420000  1
  O  O32  1  0.21913100  0.39117700  0.44345900  1
  O  O33  1  0.78086900  0.39117700  0.05654100  1
  O  O34  1  0.10365200  0.27093900  0.09299600  1
  O  O35  1  0.71913100  0.10882300  0.94345900  1
  O  O36  1  0.78086900  0.60882300  0.55654100  1
  O  O37  1  0.39634800  0.77093900  0.40700400  1
  O  O38  1  0.10365200  0.72906100  0.59299600  1
  O  O39  1  0.89634800  0.72906100  0.90700400  1
  O  O40  1  0.28671200  0.56878600  0.43420000  1
  O  O41  1  0.71328800  0.56878600  0.06580000  1
  O  O42  1  0.21328800  0.93121400  0.56580000  1
  O  O43  1  0.78671200  0.93121400  0.93420000  1
  O  O44  1  0.71913100  0.89117700  0.44345900  1
  O  O45  1  0.28086900  0.89117700  0.05654100  1
  O  O46  1  0.60365200  0.77093900  0.09299600  1
  O  O47  1  0.21913100  0.60882300  0.94345900  1
