# generated using pymatgen
data_Sb2S2O
_symmetry_space_group_name_H-M   'P 1'
_cell_length_a   6.06055100
_cell_length_b   8.23775994
_cell_length_c   11.07382990
_cell_angle_alpha   100.75981783
_cell_angle_beta   104.23120649
_cell_angle_gamma   109.85931444
_symmetry_Int_Tables_number   1
_chemical_formula_structural   Sb2S2O
_chemical_formula_sum   'Sb8 S8 O4'
_cell_volume   481.38139250
_cell_formula_units_Z   4
loop_
 _symmetry_equiv_pos_site_id
 _symmetry_equiv_pos_as_xyz
  1  'x, y, z'
loop_
 _atom_site_type_symbol
 _atom_site_label
 _atom_site_symmetry_multiplicity
 _atom_site_fract_x
 _atom_site_fract_y
 _atom_site_fract_z
 _atom_site_occupancy
  Sb  Sb0  1  0.34125400  0.35394600  0.08970500  1
  Sb  Sb1  1  0.65874600  0.64605400  0.91029500  1
  Sb  Sb2  1  0.37541200  0.87357000  0.13702900  1
  Sb  Sb3  1  0.62458800  0.12643000  0.86297100  1
  Sb  Sb4  1  0.98100700  0.33852600  0.37152700  1
  Sb  Sb5  1  0.01899300  0.66147400  0.62847300  1
  Sb  Sb6  1  0.95585700  0.83079900  0.36867900  1
  Sb  Sb7  1  0.04414300  0.16920100  0.63132100  1
  S  S8  1  0.76902100  0.47764400  0.08570500  1
  S  S9  1  0.23097900  0.52235600  0.91429500  1
  S  S10  1  0.76820300  0.94938800  0.08727600  1
  S  S11  1  0.23179700  0.05061200  0.91272400  1
  S  S12  1  0.48910500  0.80955200  0.70895800  1
  S  S13  1  0.51089500  0.19044800  0.29104200  1
  S  S14  1  0.51083200  0.29035400  0.69950300  1
  S  S15  1  0.48916800  0.70964600  0.30049700  1
  O  O16  1  0.92838400  0.58702100  0.42971900  1
  O  O17  1  0.07161600  0.41297900  0.57028100  1
  O  O18  1  0.97201100  0.10305200  0.43349100  1
  O  O19  1  0.02798900  0.89694800  0.56650900  1
