# generated using pymatgen
data_Li5BiO5
_symmetry_space_group_name_H-M   'P 1'
_cell_length_a   10.00041400
_cell_length_b   4.27386400
_cell_length_c   6.05401987
_cell_angle_alpha   90.00000000
_cell_angle_beta   109.73193587
_cell_angle_gamma   90.00000000
_symmetry_Int_Tables_number   1
_chemical_formula_structural   Li5BiO5
_chemical_formula_sum   'Li10 Bi2 O10'
_cell_volume   243.55806069
_cell_formula_units_Z   2
loop_
 _symmetry_equiv_pos_site_id
 _symmetry_equiv_pos_as_xyz
  1  'x, y, z'
loop_
 _atom_site_type_symbol
 _atom_site_label
 _atom_site_symmetry_multiplicity
 _atom_site_fract_x
 _atom_site_fract_y
 _atom_site_fract_z
 _atom_site_occupancy
  Li  Li0  1  0.29824600  0.00000000  0.64790700  1
  Li  Li1  1  0.01072000  0.00000000  0.48253400  1
  Li  Li2  1  0.19285900  0.50000000  0.84578100  1
  Li  Li3  1  0.31723000  0.00000000  0.12335900  1
  Li  Li4  1  0.21885300  0.50000000  0.32864200  1
  Li  Li5  1  0.79824600  0.50000000  0.64790700  1
  Li  Li6  1  0.51072000  0.50000000  0.48253400  1
  Li  Li7  1  0.69285900  0.00000000  0.84578100  1
  Li  Li8  1  0.81723000  0.50000000  0.12335900  1
  Li  Li9  1  0.71885300  0.00000000  0.32864200  1
  Bi  Bi10  1  0.00534200  0.00000000  0.98371400  1
  Bi  Bi11  1  0.50534200  0.50000000  0.98371400  1
  O  O12  1  0.15440500  0.00000000  0.80519900  1
  O  O13  1  0.00319400  0.50000000  0.97613200  1
  O  O14  1  0.33830400  0.50000000  0.65961200  1
  O  O15  1  0.17098100  0.00000000  0.31129900  1
  O  O16  1  0.35786600  0.50000000  0.16582100  1
  O  O17  1  0.65440500  0.50000000  0.80519900  1
  O  O18  1  0.50319400  0.00000000  0.97613200  1
  O  O19  1  0.83830400  0.00000000  0.65961200  1
  O  O20  1  0.67098100  0.50000000  0.31129900  1
  O  O21  1  0.85786600  0.00000000  0.16582100  1
