# generated using pymatgen
data_Na3B5S9
_symmetry_space_group_name_H-M   'P 1'
_cell_length_a   14.55125800
_cell_length_b   14.55125800
_cell_length_c   26.34742600
_cell_angle_alpha   90.00000000
_cell_angle_beta   90.00000000
_cell_angle_gamma   90.00000000
_symmetry_Int_Tables_number   1
_chemical_formula_structural   Na3B5S9
_chemical_formula_sum   'Na48 B80 S144'
_cell_volume   5578.78051576
_cell_formula_units_Z   16
loop_
 _symmetry_equiv_pos_site_id
 _symmetry_equiv_pos_as_xyz
  1  'x, y, z'
loop_
 _atom_site_type_symbol
 _atom_site_label
 _atom_site_symmetry_multiplicity
 _atom_site_fract_x
 _atom_site_fract_y
 _atom_site_fract_z
 _atom_site_occupancy
  Na  Na0  1  0.00000000  0.25000000  0.12500000  1
  Na  Na1  1  0.75000000  0.50000000  0.37500000  1
  Na  Na2  1  0.25000000  0.50000000  0.37500000  1
  Na  Na3  1  0.50000000  0.75000000  0.12500000  1
  Na  Na4  1  0.50000000  0.25000000  0.12500000  1
  Na  Na5  1  0.25000000  0.00000000  0.37500000  1
  Na  Na6  1  0.75000000  0.00000000  0.37500000  1
  Na  Na7  1  0.00000000  0.75000000  0.12500000  1
  Na  Na8  1  0.75000000  0.41327300  0.12500000  1
  Na  Na9  1  0.58672700  0.25000000  0.37500000  1
  Na  Na10  1  0.41327300  0.75000000  0.37500000  1
  Na  Na11  1  0.25000000  0.58672700  0.12500000  1
  Na  Na12  1  0.25000000  0.08672700  0.12500000  1
  Na  Na13  1  0.91327300  0.75000000  0.37500000  1
  Na  Na14  1  0.08672700  0.25000000  0.37500000  1
  Na  Na15  1  0.75000000  0.91327300  0.12500000  1
  Na  Na16  1  0.29607050  0.29607050  0.25000000  1
  Na  Na17  1  0.20392950  0.29607050  0.00000000  1
  Na  Na18  1  0.79607050  0.70392950  0.00000000  1
  Na  Na19  1  0.70392950  0.70392950  0.25000000  1
  Na  Na20  1  0.20392950  0.70392950  0.50000000  1
  Na  Na21  1  0.79607050  0.20392950  0.25000000  1
  Na  Na22  1  0.20392950  0.79607050  0.25000000  1
  Na  Na23  1  0.29607050  0.79607050  0.00000000  1
  Na  Na24  1  0.50000000  0.75000000  0.62500000  1
  Na  Na25  1  0.25000000  0.00000000  0.87500000  1
  Na  Na26  1  0.75000000  0.00000000  0.87500000  1
  Na  Na27  1  0.00000000  0.25000000  0.62500000  1
  Na  Na28  1  0.00000000  0.75000000  0.62500000  1
  Na  Na29  1  0.75000000  0.50000000  0.87500000  1
  Na  Na30  1  0.25000000  0.50000000  0.87500000  1
  Na  Na31  1  0.50000000  0.25000000  0.62500000  1
  Na  Na32  1  0.25000000  0.91327300  0.62500000  1
  Na  Na33  1  0.08672700  0.75000000  0.87500000  1
  Na  Na34  1  0.91327300  0.25000000  0.87500000  1
  Na  Na35  1  0.75000000  0.08672700  0.62500000  1
  Na  Na36  1  0.75000000  0.58672700  0.62500000  1
  Na  Na37  1  0.41327300  0.25000000  0.87500000  1
  Na  Na38  1  0.58672700  0.75000000  0.87500000  1
  Na  Na39  1  0.25000000  0.41327300  0.62500000  1
  Na  Na40  1  0.79607050  0.79607050  0.75000000  1
  Na  Na41  1  0.70392950  0.79607050  0.50000000  1
  Na  Na42  1  0.29607050  0.20392950  0.50000000  1
  Na  Na43  1  0.20392950  0.20392950  0.75000000  1
  Na  Na44  1  0.70392950  0.20392950  0.00000000  1
  Na  Na45  1  0.29607050  0.70392950  0.75000000  1
  Na  Na46  1  0.70392950  0.29607050  0.75000000  1
  Na  Na47  1  0.79607050  0.29607050  0.50000000  1
  B  B48  1  0.02453300  0.34919300  0.24990600  1
  B  B49  1  0.65080700  0.52453300  0.49990600  1
  B  B50  1  0.34919300  0.47546700  0.49990600  1
  B  B51  1  0.52453300  0.65080700  0.00009400  1
  B  B52  1  0.47546700  0.34919300  0.00009400  1
  B  B53  1  0.34919300  0.02453300  0.25009400  1
  B  B54  1  0.65080700  0.97546700  0.25009400  1
  B  B55  1  0.97546700  0.65080700  0.24990600  1
  B  B56  1  0.97546700  0.15080700  0.00009400  1
  B  B57  1  0.84919300  0.47546700  0.25009400  1
  B  B58  1  0.15080700  0.52453300  0.25009400  1
  B  B59  1  0.47546700  0.84919300  0.24990600  1
  B  B60  1  0.52453300  0.15080700  0.24990600  1
  B  B61  1  0.15080700  0.97546700  0.49990600  1
  B  B62  1  0.84919300  0.02453300  0.49990600  1
  B  B63  1  0.02453300  0.84919300  0.00009400  1
  B  B64  1  0.00000000  0.50000000  0.16540000  1
  B  B65  1  0.50000000  0.50000000  0.41540000  1
  B  B66  1  0.50000000  0.50000000  0.08460000  1
  B  B67  1  0.50000000  0.00000000  0.33460000  1
  B  B68  1  0.00000000  0.00000000  0.08460000  1
  B  B69  1  0.00000000  0.50000000  0.33460000  1
  B  B70  1  0.50000000  0.00000000  0.16540000  1
  B  B71  1  0.00000000  0.00000000  0.41540000  1
  B  B72  1  0.16795350  0.37843750  0.16689750  1
  B  B73  1  0.62156250  0.66795350  0.41689750  1
  B  B74  1  0.37843750  0.33204650  0.41689750  1
  B  B75  1  0.66795350  0.62156250  0.08310250  1
  B  B76  1  0.33204650  0.37843750  0.08310250  1
  B  B77  1  0.37843750  0.16795350  0.33310250  1
  B  B78  1  0.62156250  0.83204650  0.33310250  1
  B  B79  1  0.83204650  0.62156250  0.16689750  1
  B  B80  1  0.83204650  0.12156250  0.08310250  1
  B  B81  1  0.87843750  0.33204650  0.33310250  1
  B  B82  1  0.12156250  0.66795350  0.33310250  1
  B  B83  1  0.33204650  0.87843750  0.16689750  1
  B  B84  1  0.66795350  0.12156250  0.16689750  1
  B  B85  1  0.12156250  0.83204650  0.41689750  1
  B  B86  1  0.87843750  0.16795350  0.41689750  1
  B  B87  1  0.16795350  0.87843750  0.08310250  1
  B  B88  1  0.52453300  0.84919300  0.74990600  1
  B  B89  1  0.15080700  0.02453300  0.99990600  1
  B  B90  1  0.84919300  0.97546700  0.99990600  1
  B  B91  1  0.02453300  0.15080700  0.50009400  1
  B  B92  1  0.97546700  0.84919300  0.50009400  1
  B  B93  1  0.84919300  0.52453300  0.75009400  1
  B  B94  1  0.15080700  0.47546700  0.75009400  1
  B  B95  1  0.47546700  0.15080700  0.74990600  1
  B  B96  1  0.47546700  0.65080700  0.50009400  1
  B  B97  1  0.34919300  0.97546700  0.75009400  1
  B  B98  1  0.65080700  0.02453300  0.75009400  1
  B  B99  1  0.97546700  0.34919300  0.74990600  1
  B  B100  1  0.02453300  0.65080700  0.74990600  1
  B  B101  1  0.65080700  0.47546700  0.99990600  1
  B  B102  1  0.34919300  0.52453300  0.99990600  1
  B  B103  1  0.52453300  0.34919300  0.50009400  1
  B  B104  1  0.50000000  0.00000000  0.66540000  1
  B  B105  1  0.00000000  0.00000000  0.91540000  1
  B  B106  1  0.00000000  0.00000000  0.58460000  1
  B  B107  1  0.00000000  0.50000000  0.83460000  1
  B  B108  1  0.50000000  0.50000000  0.58460000  1
  B  B109  1  0.50000000  0.00000000  0.83460000  1
  B  B110  1  0.00000000  0.50000000  0.66540000  1
  B  B111  1  0.50000000  0.50000000  0.91540000  1
  B  B112  1  0.66795350  0.87843750  0.66689750  1
  B  B113  1  0.12156250  0.16795350  0.91689750  1
  B  B114  1  0.87843750  0.83204650  0.91689750  1
  B  B115  1  0.16795350  0.12156250  0.58310250  1
  B  B116  1  0.83204650  0.87843750  0.58310250  1
  B  B117  1  0.87843750  0.66795350  0.83310250  1
  B  B118  1  0.12156250  0.33204650  0.83310250  1
  B  B119  1  0.33204650  0.12156250  0.66689750  1
  B  B120  1  0.33204650  0.62156250  0.58310250  1
  B  B121  1  0.37843750  0.83204650  0.83310250  1
  B  B122  1  0.62156250  0.16795350  0.83310250  1
  B  B123  1  0.83204650  0.37843750  0.66689750  1
  B  B124  1  0.16795350  0.62156250  0.66689750  1
  B  B125  1  0.62156250  0.33204650  0.91689750  1
  B  B126  1  0.37843750  0.66795350  0.91689750  1
  B  B127  1  0.66795350  0.37843750  0.58310250  1
  S  S128  1  0.93499650  0.41009750  0.20665750  1
  S  S129  1  0.58990250  0.43499650  0.45665750  1
  S  S130  1  0.41009750  0.56500350  0.45665750  1
  S  S131  1  0.43499650  0.58990250  0.04334250  1
  S  S132  1  0.56500350  0.41009750  0.04334250  1
  S  S133  1  0.41009750  0.93499650  0.29334250  1
  S  S134  1  0.58990250  0.06500350  0.29334250  1
  S  S135  1  0.06500350  0.58990250  0.20665750  1
  S  S136  1  0.06500350  0.08990250  0.04334250  1
  S  S137  1  0.91009750  0.56500350  0.29334250  1
  S  S138  1  0.08990250  0.43499650  0.29334250  1
  S  S139  1  0.56500350  0.91009750  0.20665750  1
  S  S140  1  0.43499650  0.08990250  0.20665750  1
  S  S141  1  0.08990250  0.06500350  0.45665750  1
  S  S142  1  0.91009750  0.93499650  0.45665750  1
  S  S143  1  0.93499650  0.91009750  0.04334250  1
  S  S144  1  0.23853950  0.46467950  0.20819950  1
  S  S145  1  0.53532050  0.73853950  0.45819950  1
  S  S146  1  0.46467950  0.26146050  0.45819950  1
  S  S147  1  0.73853950  0.53532050  0.04180050  1
  S  S148  1  0.26146050  0.46467950  0.04180050  1
  S  S149  1  0.46467950  0.23853950  0.29180050  1
  S  S150  1  0.53532050  0.76146050  0.29180050  1
  S  S151  1  0.76146050  0.53532050  0.20819950  1
  S  S152  1  0.76146050  0.03532050  0.04180050  1
  S  S153  1  0.96467950  0.26146050  0.29180050  1
  S  S154  1  0.03532050  0.73853950  0.29180050  1
  S  S155  1  0.26146050  0.96467950  0.20819950  1
  S  S156  1  0.73853950  0.03532050  0.20819950  1
  S  S157  1  0.03532050  0.76146050  0.45819950  1
  S  S158  1  0.96467950  0.23853950  0.45819950  1
  S  S159  1  0.23853950  0.96467950  0.04180050  1
  S  S160  1  0.11123750  0.28417050  0.20927750  1
  S  S161  1  0.71582950  0.61123750  0.45927750  1
  S  S162  1  0.28417050  0.38876250  0.45927750  1
  S  S163  1  0.61123750  0.71582950  0.04072250  1
  S  S164  1  0.38876250  0.28417050  0.04072250  1
  S  S165  1  0.28417050  0.11123750  0.29072250  1
  S  S166  1  0.71582950  0.88876250  0.29072250  1
  S  S167  1  0.88876250  0.71582950  0.20927750  1
  S  S168  1  0.88876250  0.21582950  0.04072250  1
  S  S169  1  0.78417050  0.38876250  0.29072250  1
  S  S170  1  0.21582950  0.61123750  0.29072250  1
  S  S171  1  0.38876250  0.78417050  0.20927750  1
  S  S172  1  0.61123750  0.21582950  0.20927750  1
  S  S173  1  0.21582950  0.88876250  0.45927750  1
  S  S174  1  0.78417050  0.11123750  0.45927750  1
  S  S175  1  0.11123750  0.78417050  0.04072250  1
  S  S176  1  0.08254950  0.43762150  0.12228950  1
  S  S177  1  0.56237850  0.58254950  0.37228950  1
  S  S178  1  0.43762150  0.41745050  0.37228950  1
  S  S179  1  0.58254950  0.56237850  0.12771050  1
  S  S180  1  0.41745050  0.43762150  0.12771050  1
  S  S181  1  0.43762150  0.08254950  0.37771050  1
  S  S182  1  0.56237850  0.91745050  0.37771050  1
  S  S183  1  0.91745050  0.56237850  0.12228950  1
  S  S184  1  0.91745050  0.06237850  0.12771050  1
  S  S185  1  0.93762150  0.41745050  0.37771050  1
  S  S186  1  0.06237850  0.58254950  0.37771050  1
  S  S187  1  0.41745050  0.93762150  0.12228950  1
  S  S188  1  0.58254950  0.06237850  0.12228950  1
  S  S189  1  0.06237850  0.91745050  0.37228950  1
  S  S190  1  0.93762150  0.08254950  0.37228950  1
  S  S191  1  0.08254950  0.93762150  0.12771050  1
  S  S192  1  0.25000000  0.30408800  0.12500000  1
  S  S193  1  0.69591200  0.75000000  0.37500000  1
  S  S194  1  0.30408800  0.25000000  0.37500000  1
  S  S195  1  0.75000000  0.69591200  0.12500000  1
  S  S196  1  0.75000000  0.19591200  0.12500000  1
  S  S197  1  0.80408800  0.25000000  0.37500000  1
  S  S198  1  0.19591200  0.75000000  0.37500000  1
  S  S199  1  0.25000000  0.80408800  0.12500000  1
  S  S200  1  0.43499650  0.91009750  0.70665750  1
  S  S201  1  0.08990250  0.93499650  0.95665750  1
  S  S202  1  0.91009750  0.06500350  0.95665750  1
  S  S203  1  0.93499650  0.08990250  0.54334250  1
  S  S204  1  0.06500350  0.91009750  0.54334250  1
  S  S205  1  0.91009750  0.43499650  0.79334250  1
  S  S206  1  0.08990250  0.56500350  0.79334250  1
  S  S207  1  0.56500350  0.08990250  0.70665750  1
  S  S208  1  0.56500350  0.58990250  0.54334250  1
  S  S209  1  0.41009750  0.06500350  0.79334250  1
  S  S210  1  0.58990250  0.93499650  0.79334250  1
  S  S211  1  0.06500350  0.41009750  0.70665750  1
  S  S212  1  0.93499650  0.58990250  0.70665750  1
  S  S213  1  0.58990250  0.56500350  0.95665750  1
  S  S214  1  0.41009750  0.43499650  0.95665750  1
  S  S215  1  0.43499650  0.41009750  0.54334250  1
  S  S216  1  0.73853950  0.96467950  0.70819950  1
  S  S217  1  0.03532050  0.23853950  0.95819950  1
  S  S218  1  0.96467950  0.76146050  0.95819950  1
  S  S219  1  0.23853950  0.03532050  0.54180050  1
  S  S220  1  0.76146050  0.96467950  0.54180050  1
  S  S221  1  0.96467950  0.73853950  0.79180050  1
  S  S222  1  0.03532050  0.26146050  0.79180050  1
  S  S223  1  0.26146050  0.03532050  0.70819950  1
  S  S224  1  0.26146050  0.53532050  0.54180050  1
  S  S225  1  0.46467950  0.76146050  0.79180050  1
  S  S226  1  0.53532050  0.23853950  0.79180050  1
  S  S227  1  0.76146050  0.46467950  0.70819950  1
  S  S228  1  0.23853950  0.53532050  0.70819950  1
  S  S229  1  0.53532050  0.26146050  0.95819950  1
  S  S230  1  0.46467950  0.73853950  0.95819950  1
  S  S231  1  0.73853950  0.46467950  0.54180050  1
  S  S232  1  0.61123750  0.78417050  0.70927750  1
  S  S233  1  0.21582950  0.11123750  0.95927750  1
  S  S234  1  0.78417050  0.88876250  0.95927750  1
  S  S235  1  0.11123750  0.21582950  0.54072250  1
  S  S236  1  0.88876250  0.78417050  0.54072250  1
  S  S237  1  0.78417050  0.61123750  0.79072250  1
  S  S238  1  0.21582950  0.38876250  0.79072250  1
  S  S239  1  0.38876250  0.21582950  0.70927750  1
  S  S240  1  0.38876250  0.71582950  0.54072250  1
  S  S241  1  0.28417050  0.88876250  0.79072250  1
  S  S242  1  0.71582950  0.11123750  0.79072250  1
  S  S243  1  0.88876250  0.28417050  0.70927750  1
  S  S244  1  0.11123750  0.71582950  0.70927750  1
  S  S245  1  0.71582950  0.38876250  0.95927750  1
  S  S246  1  0.28417050  0.61123750  0.95927750  1
  S  S247  1  0.61123750  0.28417050  0.54072250  1
  S  S248  1  0.58254950  0.93762150  0.62228950  1
  S  S249  1  0.06237850  0.08254950  0.87228950  1
  S  S250  1  0.93762150  0.91745050  0.87228950  1
  S  S251  1  0.08254950  0.06237850  0.62771050  1
  S  S252  1  0.91745050  0.93762150  0.62771050  1
  S  S253  1  0.93762150  0.58254950  0.87771050  1
  S  S254  1  0.06237850  0.41745050  0.87771050  1
  S  S255  1  0.41745050  0.06237850  0.62228950  1
  S  S256  1  0.41745050  0.56237850  0.62771050  1
  S  S257  1  0.43762150  0.91745050  0.87771050  1
  S  S258  1  0.56237850  0.08254950  0.87771050  1
  S  S259  1  0.91745050  0.43762150  0.62228950  1
  S  S260  1  0.08254950  0.56237850  0.62228950  1
  S  S261  1  0.56237850  0.41745050  0.87228950  1
  S  S262  1  0.43762150  0.58254950  0.87228950  1
  S  S263  1  0.58254950  0.43762150  0.62771050  1
  S  S264  1  0.75000000  0.80408800  0.62500000  1
  S  S265  1  0.19591200  0.25000000  0.87500000  1
  S  S266  1  0.80408800  0.75000000  0.87500000  1
  S  S267  1  0.25000000  0.19591200  0.62500000  1
  S  S268  1  0.25000000  0.69591200  0.62500000  1
  S  S269  1  0.30408800  0.75000000  0.87500000  1
  S  S270  1  0.69591200  0.25000000  0.87500000  1
  S  S271  1  0.75000000  0.30408800  0.62500000  1
