# generated using pymatgen
data_Y2Cu2O5
_symmetry_space_group_name_H-M   'P 1'
_cell_length_a   3.54321200
_cell_length_b   10.92873400
_cell_length_c   12.58126500
_cell_angle_alpha   90.00000000
_cell_angle_beta   90.00000000
_cell_angle_gamma   90.00000000
_symmetry_Int_Tables_number   1
_chemical_formula_structural   Y2Cu2O5
_chemical_formula_sum   'Y8 Cu8 O20'
_cell_volume   487.18207826
_cell_formula_units_Z   4
loop_
 _symmetry_equiv_pos_site_id
 _symmetry_equiv_pos_as_xyz
  1  'x, y, z'
loop_
 _atom_site_type_symbol
 _atom_site_label
 _atom_site_symmetry_multiplicity
 _atom_site_fract_x
 _atom_site_fract_y
 _atom_site_fract_z
 _atom_site_occupancy
  Y  Y0  1  0.27723100  0.45738100  0.17236100  1
  Y  Y1  1  0.72276900  0.54261900  0.67236100  1
  Y  Y2  1  0.22276900  0.95738100  0.17236100  1
  Y  Y3  1  0.77723100  0.04261900  0.67236100  1
  Y  Y4  1  0.27851100  0.29246600  0.49943700  1
  Y  Y5  1  0.72148900  0.70753400  0.99943700  1
  Y  Y6  1  0.22148900  0.79246600  0.49943700  1
  Y  Y7  1  0.77851100  0.20753400  0.99943700  1
  Cu  Cu8  1  0.84170700  0.23794300  0.28337500  1
  Cu  Cu9  1  0.15829300  0.76205700  0.78337500  1
  Cu  Cu10  1  0.65829300  0.73794300  0.28337500  1
  Cu  Cu11  1  0.34170700  0.26205700  0.78337500  1
  Cu  Cu12  1  0.66231200  0.01177600  0.38888800  1
  Cu  Cu13  1  0.33768800  0.98822400  0.88888800  1
  Cu  Cu14  1  0.83768800  0.51177600  0.38888800  1
  Cu  Cu15  1  0.16231200  0.48822400  0.88888800  1
  O  O16  1  0.27138400  0.07618000  0.02773900  1
  O  O17  1  0.72861600  0.92382000  0.52773900  1
  O  O18  1  0.22861600  0.57618000  0.02773900  1
  O  O19  1  0.77138400  0.42382000  0.52773900  1
  O  O20  1  0.72582900  0.07199900  0.23845700  1
  O  O21  1  0.27417100  0.92800100  0.73845700  1
  O  O22  1  0.77417100  0.57199900  0.23845700  1
  O  O23  1  0.22582900  0.42800100  0.73845700  1
  O  O24  1  0.14613600  0.37533200  0.33597700  1
  O  O25  1  0.85386400  0.62466800  0.83597700  1
  O  O26  1  0.35386400  0.87533200  0.33597700  1
  O  O27  1  0.64613600  0.12466800  0.83597700  1
  O  O28  1  0.77985000  0.17757700  0.43416300  1
  O  O29  1  0.22015000  0.82242300  0.93416300  1
  O  O30  1  0.72015000  0.67757700  0.43416300  1
  O  O31  1  0.27985000  0.32242300  0.93416300  1
  O  O32  1  0.27355600  0.17400400  0.64460300  1
  O  O33  1  0.72644400  0.82599600  0.14460300  1
  O  O34  1  0.22644400  0.67400400  0.64460300  1
  O  O35  1  0.77355600  0.32599600  0.14460300  1
