# generated using pymatgen
data_KPHNO2
_symmetry_space_group_name_H-M   'P 1'
_cell_length_a   12.89859119
_cell_length_b   12.89859119
_cell_length_c   10.26624851
_cell_angle_alpha   90.00000000
_cell_angle_beta   90.00000000
_cell_angle_gamma   120.00000000
_symmetry_Int_Tables_number   1
_chemical_formula_structural   KPHNO2
_chemical_formula_sum   'K18 P18 H18 N18 O36'
_cell_volume   1479.20021522
_cell_formula_units_Z   18
loop_
 _symmetry_equiv_pos_site_id
 _symmetry_equiv_pos_as_xyz
  1  'x, y, z'
loop_
 _atom_site_type_symbol
 _atom_site_label
 _atom_site_symmetry_multiplicity
 _atom_site_fract_x
 _atom_site_fract_y
 _atom_site_fract_z
 _atom_site_occupancy
  K  K0  1  0.70499567  0.10857233  0.42330333  1
  K  K1  1  0.40357667  0.29500433  0.42330333  1
  K  K2  1  0.89142767  0.59642333  0.42330333  1
  K  K3  1  0.29500433  0.89142767  0.57669667  1
  K  K4  1  0.59642333  0.70499567  0.57669667  1
  K  K5  1  0.10857233  0.40357667  0.57669667  1
  K  K6  1  0.37166233  0.44190567  0.75663667  1
  K  K7  1  0.07024333  0.62833767  0.75663667  1
  K  K8  1  0.55809433  0.92975667  0.75663667  1
  K  K9  1  0.96167100  0.22476100  0.91003000  1
  K  K10  1  0.26309000  0.03832900  0.91003000  1
  K  K11  1  0.77523900  0.73691000  0.91003000  1
  K  K12  1  0.03832900  0.77523900  0.08997000  1
  K  K13  1  0.73691000  0.96167100  0.08997000  1
  K  K14  1  0.22476100  0.26309000  0.08997000  1
  K  K15  1  0.62833767  0.55809433  0.24336333  1
  K  K16  1  0.92975667  0.37166233  0.24336333  1
  K  K17  1  0.44190567  0.07024333  0.24336333  1
  P  P18  1  0.12202133  0.14548367  0.69792267  1
  P  P19  1  0.02346233  0.87797867  0.69792267  1
  P  P20  1  0.85451633  0.97653767  0.69792267  1
  P  P21  1  0.87797867  0.85451633  0.30207733  1
  P  P22  1  0.97653767  0.12202133  0.30207733  1
  P  P23  1  0.14548367  0.02346233  0.30207733  1
  P  P24  1  0.78868800  0.47881700  0.03125600  1
  P  P25  1  0.69012900  0.21131200  0.03125600  1
  P  P26  1  0.52118300  0.30987100  0.03125600  1
  P  P27  1  0.54464533  0.18784967  0.63541067  1
  P  P28  1  0.64320433  0.45535467  0.63541067  1
  P  P29  1  0.81215033  0.35679567  0.63541067  1
  P  P30  1  0.45535467  0.81215033  0.36458933  1
  P  P31  1  0.35679567  0.54464533  0.36458933  1
  P  P32  1  0.18784967  0.64320433  0.36458933  1
  P  P33  1  0.21131200  0.52118300  0.96874400  1
  P  P34  1  0.30987100  0.78868800  0.96874400  1
  P  P35  1  0.47881700  0.69012900  0.96874400  1
  H  H36  1  0.83227033  0.97121367  0.42959467  1
  H  H37  1  0.13894333  0.16772967  0.42959467  1
  H  H38  1  0.02878633  0.86105667  0.42959467  1
  H  H39  1  0.16772967  0.02878633  0.57040533  1
  H  H40  1  0.86105667  0.83227033  0.57040533  1
  H  H41  1  0.97121367  0.13894333  0.57040533  1
  H  H42  1  0.49893700  0.30454700  0.76292800  1
  H  H43  1  0.80561000  0.50106300  0.76292800  1
  H  H44  1  0.69545300  0.19439000  0.76292800  1
  H  H45  1  0.83439633  0.36211967  0.90373867  1
  H  H46  1  0.52772333  0.16560367  0.90373867  1
  H  H47  1  0.63788033  0.47227667  0.90373867  1
  H  H48  1  0.16560367  0.63788033  0.09626133  1
  H  H49  1  0.47227667  0.83439633  0.09626133  1
  H  H50  1  0.36211967  0.52772333  0.09626133  1
  H  H51  1  0.50106300  0.69545300  0.23707200  1
  H  H52  1  0.19439000  0.49893700  0.23707200  1
  H  H53  1  0.30454700  0.80561000  0.23707200  1
  N  N54  1  0.86813800  0.97844200  0.33744400  1
  N  N55  1  0.11030400  0.13186200  0.33744400  1
  N  N56  1  0.02155800  0.88969600  0.33744400  1
  N  N57  1  0.13186200  0.02155800  0.66255600  1
  N  N58  1  0.88969600  0.86813800  0.66255600  1
  N  N59  1  0.97844200  0.11030400  0.66255600  1
  N  N60  1  0.53480467  0.31177533  0.67077733  1
  N  N61  1  0.77697067  0.46519533  0.67077733  1
  N  N62  1  0.68822467  0.22302933  0.67077733  1
  N  N63  1  0.79852867  0.35489133  0.99588933  1
  N  N64  1  0.55636267  0.20147133  0.99588933  1
  N  N65  1  0.64510867  0.44363733  0.99588933  1
  N  N66  1  0.20147133  0.64510867  0.00411067  1
  N  N67  1  0.44363733  0.79852867  0.00411067  1
  N  N68  1  0.35489133  0.55636267  0.00411067  1
  N  N69  1  0.46519533  0.68822467  0.32922267  1
  N  N70  1  0.22302933  0.53480467  0.32922267  1
  N  N71  1  0.31177533  0.77697067  0.32922267  1
  O  O72  1  0.20114933  0.24134467  0.60049367  1
  O  O73  1  0.75865533  0.95980467  0.60049367  1
  O  O74  1  0.04019533  0.79885067  0.60049367  1
  O  O75  1  0.79885067  0.75865533  0.39950633  1
  O  O76  1  0.24134467  0.04019533  0.39950633  1
  O  O77  1  0.95980467  0.20114933  0.39950633  1
  O  O78  1  0.82717800  0.97062700  0.84138900  1
  O  O79  1  0.02937300  0.85655100  0.84138900  1
  O  O80  1  0.14344900  0.17282200  0.84138900  1
  O  O81  1  0.17282200  0.02937300  0.15861100  1
  O  O82  1  0.97062700  0.14344900  0.15861100  1
  O  O83  1  0.85655100  0.82717800  0.15861100  1
  O  O84  1  0.86781600  0.57467800  0.93382700  1
  O  O85  1  0.42532200  0.29313800  0.93382700  1
  O  O86  1  0.70686200  0.13218400  0.93382700  1
  O  O87  1  0.46551733  0.09198867  0.73283967  1
  O  O88  1  0.90801133  0.37352867  0.73283967  1
  O  O89  1  0.62647133  0.53448267  0.73283967  1
  O  O90  1  0.49384467  0.30396033  0.17472233  1
  O  O91  1  0.69603967  0.18988433  0.17472233  1
  O  O92  1  0.81011567  0.50615533  0.17472233  1
  O  O93  1  0.83948867  0.36270633  0.49194433  1
  O  O94  1  0.63729367  0.47678233  0.49194433  1
  O  O95  1  0.52321767  0.16051133  0.49194433  1
  O  O96  1  0.53448267  0.90801133  0.26716033  1
  O  O97  1  0.09198867  0.62647133  0.26716033  1
  O  O98  1  0.37352867  0.46551733  0.26716033  1
  O  O99  1  0.13218400  0.42532200  0.06617300  1
  O  O100  1  0.57467800  0.70686200  0.06617300  1
  O  O101  1  0.29313800  0.86781600  0.06617300  1
  O  O102  1  0.16051133  0.63729367  0.50805567  1
  O  O103  1  0.36270633  0.52321767  0.50805567  1
  O  O104  1  0.47678233  0.83948867  0.50805567  1
  O  O105  1  0.50615533  0.69603967  0.82527767  1
  O  O106  1  0.30396033  0.81011567  0.82527767  1
  O  O107  1  0.18988433  0.49384467  0.82527767  1
