# generated using pymatgen
data_Na4I2O
_symmetry_space_group_name_H-M   'P 1'
_cell_length_a   4.70751000
_cell_length_b   4.70751000
_cell_length_c   16.11777000
_cell_angle_alpha   90.00000000
_cell_angle_beta   90.00000000
_cell_angle_gamma   90.00000000
_symmetry_Int_Tables_number   1
_chemical_formula_structural   Na4I2O
_chemical_formula_sum   'Na8 I4 O2'
_cell_volume   357.18026620
_cell_formula_units_Z   2
loop_
 _symmetry_equiv_pos_site_id
 _symmetry_equiv_pos_as_xyz
  1  'x, y, z'
loop_
 _atom_site_type_symbol
 _atom_site_label
 _atom_site_symmetry_multiplicity
 _atom_site_fract_x
 _atom_site_fract_y
 _atom_site_fract_z
 _atom_site_occupancy
  Na  Na0  1  0.00000000  0.00000000  0.14276500  1
  Na  Na1  1  0.00000000  0.50000000  0.00000000  1
  Na  Na2  1  0.50000000  0.50000000  0.35723500  1
  Na  Na3  1  0.50000000  0.00000000  0.00000000  1
  Na  Na4  1  0.50000000  0.50000000  0.64276500  1
  Na  Na5  1  0.50000000  0.00000000  0.50000000  1
  Na  Na6  1  0.00000000  0.00000000  0.85723500  1
  Na  Na7  1  0.00000000  0.50000000  0.50000000  1
  I  I8  1  0.00000000  0.00000000  0.34677300  1
  I  I9  1  0.50000000  0.50000000  0.15322700  1
  I  I10  1  0.50000000  0.50000000  0.84677300  1
  I  I11  1  0.00000000  0.00000000  0.65322700  1
  O  O12  1  0.00000000  0.00000000  0.00000000  1
  O  O13  1  0.50000000  0.50000000  0.50000000  1
