# generated using pymatgen
data_Na3SbH18S4O9
_symmetry_space_group_name_H-M   'P 1'
_cell_length_a   12.01488100
_cell_length_b   12.01488100
_cell_length_c   12.01488100
_cell_angle_alpha   90.00000000
_cell_angle_beta   90.00000000
_cell_angle_gamma   90.00000000
_symmetry_Int_Tables_number   1
_chemical_formula_structural   Na3SbH18S4O9
_chemical_formula_sum   'Na12 Sb4 H72 S16 O36'
_cell_volume   1734.43656729
_cell_formula_units_Z   4
loop_
 _symmetry_equiv_pos_site_id
 _symmetry_equiv_pos_as_xyz
  1  'x, y, z'
loop_
 _atom_site_type_symbol
 _atom_site_label
 _atom_site_symmetry_multiplicity
 _atom_site_fract_x
 _atom_site_fract_y
 _atom_site_fract_z
 _atom_site_occupancy
  Na  Na0  1  0.29199100  0.29199100  0.29199100  1
  Na  Na1  1  0.95034900  0.04965100  0.54965100  1
  Na  Na2  1  0.54965100  0.95034900  0.04965100  1
  Na  Na3  1  0.60514700  0.60514700  0.60514700  1
  Na  Na4  1  0.89485300  0.39485300  0.10514700  1
  Na  Na5  1  0.10514700  0.89485300  0.39485300  1
  Na  Na6  1  0.39485300  0.10514700  0.89485300  1
  Na  Na7  1  0.70800900  0.79199100  0.20800900  1
  Na  Na8  1  0.79199100  0.20800900  0.70800900  1
  Na  Na9  1  0.20800900  0.70800900  0.79199100  1
  Na  Na10  1  0.45034900  0.45034900  0.45034900  1
  Na  Na11  1  0.04965100  0.54965100  0.95034900  1
  Sb  Sb12  1  0.03768700  0.03768700  0.03768700  1
  Sb  Sb13  1  0.46231300  0.96231300  0.53768700  1
  Sb  Sb14  1  0.53768700  0.46231300  0.96231300  1
  Sb  Sb15  1  0.96231300  0.53768700  0.46231300  1
  H  H16  1  0.44227600  0.69560000  0.87366300  1
  H  H17  1  0.94227600  0.80440000  0.12633700  1
  H  H18  1  0.55772400  0.19560000  0.62633700  1
  H  H19  1  0.80440000  0.12633700  0.94227600  1
  H  H20  1  0.62633700  0.55772400  0.19560000  1
  H  H21  1  0.12633700  0.94227600  0.80440000  1
  H  H22  1  0.69560000  0.87366300  0.44227600  1
  H  H23  1  0.87366300  0.44227600  0.69560000  1
  H  H24  1  0.19560000  0.62633700  0.55772400  1
  H  H25  1  0.30440000  0.37366300  0.05772400  1
  H  H26  1  0.37366300  0.05772400  0.30440000  1
  H  H27  1  0.05772400  0.30440000  0.37366300  1
  H  H28  1  0.45337000  0.77913600  0.77398200  1
  H  H29  1  0.95337000  0.72086400  0.22601800  1
  H  H30  1  0.54663000  0.27913600  0.72601800  1
  H  H31  1  0.72086400  0.22601800  0.95337000  1
  H  H32  1  0.72601800  0.54663000  0.27913600  1
  H  H33  1  0.22601800  0.95337000  0.72086400  1
  H  H34  1  0.77913600  0.77398200  0.45337000  1
  H  H35  1  0.77398200  0.45337000  0.77913600  1
  H  H36  1  0.27913600  0.72601800  0.54663000  1
  H  H37  1  0.22086400  0.27398200  0.04663000  1
  H  H38  1  0.27398200  0.04663000  0.22086400  1
  H  H39  1  0.04663000  0.22086400  0.27398200  1
  H  H40  1  0.32708100  0.23980400  0.54171500  1
  H  H41  1  0.82708100  0.26019600  0.45828500  1
  H  H42  1  0.67291900  0.73980400  0.95828500  1
  H  H43  1  0.26019600  0.45828500  0.82708100  1
  H  H44  1  0.95828500  0.67291900  0.73980400  1
  H  H45  1  0.45828500  0.82708100  0.26019600  1
  H  H46  1  0.23980400  0.54171500  0.32708100  1
  H  H47  1  0.54171500  0.32708100  0.23980400  1
  H  H48  1  0.73980400  0.95828500  0.67291900  1
  H  H49  1  0.76019600  0.04171500  0.17291900  1
  H  H50  1  0.20010900  0.08246400  0.52080000  1
  H  H51  1  0.04171500  0.17291900  0.76019600  1
  H  H52  1  0.24460900  0.34011400  0.52218700  1
  H  H53  1  0.74460900  0.15988600  0.47781300  1
  H  H54  1  0.75539100  0.84011400  0.97781300  1
  H  H55  1  0.15988600  0.47781300  0.74460900  1
  H  H56  1  0.97781300  0.75539100  0.84011400  1
  H  H57  1  0.47781300  0.74460900  0.15988600  1
  H  H58  1  0.34011400  0.52218700  0.24460900  1
  H  H59  1  0.52218700  0.24460900  0.34011400  1
  H  H60  1  0.84011400  0.97781300  0.75539100  1
  H  H61  1  0.65988600  0.02218700  0.25539100  1
  H  H62  1  0.02218700  0.25539100  0.65988600  1
  H  H63  1  0.25539100  0.65988600  0.02218700  1
  H  H64  1  0.57703900  0.63155600  0.35971300  1
  H  H65  1  0.07703900  0.86844400  0.64028700  1
  H  H66  1  0.42296100  0.13155600  0.14028700  1
  H  H67  1  0.86844400  0.64028700  0.07703900  1
  H  H68  1  0.14028700  0.42296100  0.13155600  1
  H  H69  1  0.64028700  0.07703900  0.86844400  1
  H  H70  1  0.63155600  0.35971300  0.57703900  1
  H  H71  1  0.35971300  0.57703900  0.63155600  1
  H  H72  1  0.13155600  0.14028700  0.42296100  1
  H  H73  1  0.36844400  0.85971300  0.92296100  1
  H  H74  1  0.85971300  0.92296100  0.36844400  1
  H  H75  1  0.92296100  0.36844400  0.85971300  1
  H  H76  1  0.47920000  0.70010900  0.41753600  1
  H  H77  1  0.97920000  0.79989100  0.58246400  1
  H  H78  1  0.52080000  0.20010900  0.08246400  1
  H  H79  1  0.79989100  0.58246400  0.97920000  1
  H  H80  1  0.08246400  0.52080000  0.20010900  1
  H  H81  1  0.58246400  0.97920000  0.79989100  1
  H  H82  1  0.70010900  0.41753600  0.47920000  1
  H  H83  1  0.41753600  0.47920000  0.70010900  1
  H  H84  1  0.02080000  0.29989100  0.91753600  1
  H  H85  1  0.91753600  0.02080000  0.29989100  1
  H  H86  1  0.29989100  0.91753600  0.02080000  1
  H  H87  1  0.17291900  0.76019600  0.04171500  1
  S  S88  1  0.07612100  0.42387900  0.57612100  1
  S  S89  1  0.14614500  0.15390400  0.92121000  1
  S  S90  1  0.57612100  0.07612100  0.42387900  1
  S  S91  1  0.92387900  0.92387900  0.92387900  1
  S  S92  1  0.92121000  0.14614500  0.15390400  1
  S  S93  1  0.15390400  0.92121000  0.14614500  1
  S  S94  1  0.34609600  0.07879000  0.64614500  1
  S  S95  1  0.42121000  0.35385500  0.84609600  1
  S  S96  1  0.84609600  0.42121000  0.35385500  1
  S  S97  1  0.57879000  0.85385500  0.65390400  1
  S  S98  1  0.07879000  0.64614500  0.34609600  1
  S  S99  1  0.65390400  0.57879000  0.85385500  1
  S  S100  1  0.64614500  0.34609600  0.07879000  1
  S  S101  1  0.85385500  0.65390400  0.57879000  1
  S  S102  1  0.42387900  0.57612100  0.07612100  1
  S  S103  1  0.35385500  0.84609600  0.42121000  1
  O  O104  1  0.40005100  0.75036000  0.83037300  1
  O  O105  1  0.90005100  0.74964000  0.16962700  1
  O  O106  1  0.59994900  0.25036000  0.66962700  1
  O  O107  1  0.74964000  0.16962700  0.90005100  1
  O  O108  1  0.66962700  0.59994900  0.25036000  1
  O  O109  1  0.16962700  0.90005100  0.74964000  1
  O  O110  1  0.75036000  0.83037300  0.40005100  1
  O  O111  1  0.83037300  0.40005100  0.75036000  1
  O  O112  1  0.25036000  0.66962700  0.59994900  1
  O  O113  1  0.24964000  0.33037300  0.09994900  1
  O  O114  1  0.33037300  0.09994900  0.24964000  1
  O  O115  1  0.09994900  0.24964000  0.33037300  1
  O  O116  1  0.31341300  0.30535700  0.49378200  1
  O  O117  1  0.81341300  0.19464300  0.50621800  1
  O  O118  1  0.68658700  0.80535700  0.00621800  1
  O  O119  1  0.19464300  0.50621800  0.81341300  1
  O  O120  1  0.00621800  0.68658700  0.80535700  1
  O  O121  1  0.50621800  0.81341300  0.19464300  1
  O  O122  1  0.30535700  0.49378200  0.31341300  1
  O  O123  1  0.49378200  0.31341300  0.30535700  1
  O  O124  1  0.80535700  0.00621800  0.68658700  1
  O  O125  1  0.69464300  0.99378200  0.18658700  1
  O  O126  1  0.99378200  0.18658700  0.69464300  1
  O  O127  1  0.18658700  0.69464300  0.99378200  1
  O  O128  1  0.52772400  0.63438700  0.42595000  1
  O  O129  1  0.02772400  0.86561300  0.57405000  1
  O  O130  1  0.47227600  0.13438700  0.07405000  1
  O  O131  1  0.86561300  0.57405000  0.02772400  1
  O  O132  1  0.07405000  0.47227600  0.13438700  1
  O  O133  1  0.57405000  0.02772400  0.86561300  1
  O  O134  1  0.63438700  0.42595000  0.52772400  1
  O  O135  1  0.42595000  0.52772400  0.63438700  1
  O  O136  1  0.13438700  0.07405000  0.47227600  1
  O  O137  1  0.36561300  0.92595000  0.97227600  1
  O  O138  1  0.92595000  0.97227600  0.36561300  1
  O  O139  1  0.97227600  0.36561300  0.92595000  1
