# generated using pymatgen
data_Sr4PdO6
_symmetry_space_group_name_H-M   'P 1'
_cell_length_a   9.84275731
_cell_length_b   9.84275731
_cell_length_c   12.01005039
_cell_angle_alpha   90.00000000
_cell_angle_beta   90.00000000
_cell_angle_gamma   120.00000000
_symmetry_Int_Tables_number   1
_chemical_formula_structural   Sr4PdO6
_chemical_formula_sum   'Sr24 Pd6 O36'
_cell_volume   1007.64839061
_cell_formula_units_Z   6
loop_
 _symmetry_equiv_pos_site_id
 _symmetry_equiv_pos_as_xyz
  1  'x, y, z'
loop_
 _atom_site_type_symbol
 _atom_site_label
 _atom_site_symmetry_multiplicity
 _atom_site_fract_x
 _atom_site_fract_y
 _atom_site_fract_z
 _atom_site_occupancy
  Sr  Sr0  1  0.00000000  0.00000000  0.75000000  1
  Sr  Sr1  1  0.00000000  0.00000000  0.25000000  1
  Sr  Sr2  1  0.03672567  0.33333333  0.58333333  1
  Sr  Sr3  1  0.66666667  0.70339233  0.58333333  1
  Sr  Sr4  1  0.29660767  0.96327433  0.58333333  1
  Sr  Sr5  1  0.96327433  0.66666667  0.41666667  1
  Sr  Sr6  1  0.33333333  0.29660767  0.41666667  1
  Sr  Sr7  1  0.70339233  0.03672567  0.41666667  1
  Sr  Sr8  1  0.66666667  0.33333333  0.08333333  1
  Sr  Sr9  1  0.66666667  0.33333333  0.58333333  1
  Sr  Sr10  1  0.70339233  0.66666667  0.91666667  1
  Sr  Sr11  1  0.33333333  0.03672567  0.91666667  1
  Sr  Sr12  1  0.96327433  0.29660767  0.91666667  1
  Sr  Sr13  1  0.62994100  0.00000000  0.75000000  1
  Sr  Sr14  1  0.00000000  0.62994100  0.75000000  1
  Sr  Sr15  1  0.37005900  0.37005900  0.75000000  1
  Sr  Sr16  1  0.33333333  0.66666667  0.41666667  1
  Sr  Sr17  1  0.33333333  0.66666667  0.91666667  1
  Sr  Sr18  1  0.37005900  0.00000000  0.25000000  1
  Sr  Sr19  1  0.00000000  0.37005900  0.25000000  1
  Sr  Sr20  1  0.62994100  0.62994100  0.25000000  1
  Sr  Sr21  1  0.29660767  0.33333333  0.08333333  1
  Sr  Sr22  1  0.66666667  0.96327433  0.08333333  1
  Sr  Sr23  1  0.03672567  0.70339233  0.08333333  1
  Pd  Pd24  1  0.00000000  0.00000000  0.50000000  1
  Pd  Pd25  1  0.00000000  0.00000000  0.00000000  1
  Pd  Pd26  1  0.66666667  0.33333333  0.83333333  1
  Pd  Pd27  1  0.66666667  0.33333333  0.33333333  1
  Pd  Pd28  1  0.33333333  0.66666667  0.16666667  1
  Pd  Pd29  1  0.33333333  0.66666667  0.66666667  1
  O  O30  1  0.85256800  0.36167700  0.43357600  1
  O  O31  1  0.63832300  0.49089100  0.43357600  1
  O  O32  1  0.50910900  0.14743200  0.43357600  1
  O  O33  1  0.15755767  0.97165633  0.39975733  1
  O  O34  1  0.02834367  0.18590133  0.39975733  1
  O  O35  1  0.81409867  0.84244233  0.39975733  1
  O  O36  1  0.14743200  0.63832300  0.56642400  1
  O  O37  1  0.36167700  0.50910900  0.56642400  1
  O  O38  1  0.49089100  0.85256800  0.56642400  1
  O  O39  1  0.84244233  0.02834367  0.60024267  1
  O  O40  1  0.18590133  0.15755767  0.60024267  1
  O  O41  1  0.97165633  0.81409867  0.60024267  1
  O  O42  1  0.51923467  0.69501033  0.76690933  1
  O  O43  1  0.30498967  0.82422433  0.76690933  1
  O  O44  1  0.17577567  0.48076533  0.76690933  1
  O  O45  1  0.82422433  0.30498967  0.73309067  1
  O  O46  1  0.69501033  0.51923467  0.73309067  1
  O  O47  1  0.48076533  0.17577567  0.73309067  1
  O  O48  1  0.81409867  0.97165633  0.89975733  1
  O  O49  1  0.02834367  0.84244233  0.89975733  1
  O  O50  1  0.15755767  0.18590133  0.89975733  1
  O  O51  1  0.50910900  0.36167700  0.93357600  1
  O  O52  1  0.85256800  0.49089100  0.93357600  1
  O  O53  1  0.63832300  0.14743200  0.93357600  1
  O  O54  1  0.18590133  0.02834367  0.10024267  1
  O  O55  1  0.97165633  0.15755767  0.10024267  1
  O  O56  1  0.84244233  0.81409867  0.10024267  1
  O  O57  1  0.49089100  0.63832300  0.06642400  1
  O  O58  1  0.36167700  0.85256800  0.06642400  1
  O  O59  1  0.14743200  0.50910900  0.06642400  1
  O  O60  1  0.48076533  0.30498967  0.23309067  1
  O  O61  1  0.69501033  0.17577567  0.23309067  1
  O  O62  1  0.82422433  0.51923467  0.23309067  1
  O  O63  1  0.17577567  0.69501033  0.26690933  1
  O  O64  1  0.51923467  0.82422433  0.26690933  1
  O  O65  1  0.30498967  0.48076533  0.26690933  1
