# generated using pymatgen
data_CuI
_symmetry_space_group_name_H-M   'P 1'
_cell_length_a   4.41483184
_cell_length_b   4.41483184
_cell_length_c   20.51330710
_cell_angle_alpha   90.00000000
_cell_angle_beta   90.00000000
_cell_angle_gamma   120.00000000
_symmetry_Int_Tables_number   1
_chemical_formula_structural   CuI
_chemical_formula_sum   'Cu6 I6'
_cell_volume   346.25387732
_cell_formula_units_Z   6
loop_
 _symmetry_equiv_pos_site_id
 _symmetry_equiv_pos_as_xyz
  1  'x, y, z'
loop_
 _atom_site_type_symbol
 _atom_site_label
 _atom_site_symmetry_multiplicity
 _atom_site_fract_x
 _atom_site_fract_y
 _atom_site_fract_z
 _atom_site_occupancy
  Cu  Cu0  1  0.00000000  0.00000000  0.12298500  1
  Cu  Cu1  1  0.66666667  0.33333333  0.21034833  1
  Cu  Cu2  1  0.66666667  0.33333333  0.45631833  1
  Cu  Cu3  1  0.33333333  0.66666667  0.54368167  1
  Cu  Cu4  1  0.33333333  0.66666667  0.78965167  1
  Cu  Cu5  1  0.00000000  0.00000000  0.87701500  1
  I  I6  1  0.00000000  0.00000000  0.00000000  1
  I  I7  1  0.33333333  0.66666667  0.16666667  1
  I  I8  1  0.66666667  0.33333333  0.33333333  1
  I  I9  1  1.00000000  1.00000000  0.50000000  1
  I  I10  1  0.33333333  0.66666667  0.66666667  1
  I  I11  1  0.66666667  0.33333333  0.83333333  1
