# generated using pymatgen
data_Be3As2(H2O5)2
_symmetry_space_group_name_H-M   'P 1'
_cell_length_a   16.67312200
_cell_length_b   4.75275800
_cell_length_c   10.04706434
_cell_angle_alpha   90.00000000
_cell_angle_beta   94.53320991
_cell_angle_gamma   90.00000000
_symmetry_Int_Tables_number   1
_chemical_formula_structural   Be3As2(H2O5)2
_chemical_formula_sum   'Be12 As8 H16 O40'
_cell_volume   793.67202968
_cell_formula_units_Z   4
loop_
 _symmetry_equiv_pos_site_id
 _symmetry_equiv_pos_as_xyz
  1  'x, y, z'
loop_
 _atom_site_type_symbol
 _atom_site_label
 _atom_site_symmetry_multiplicity
 _atom_site_fract_x
 _atom_site_fract_y
 _atom_site_fract_z
 _atom_site_occupancy
  Be  Be0  1  0.74711850  0.04542250  0.66112700  1
  Be  Be1  1  0.75288150  0.54542250  0.83887300  1
  Be  Be2  1  0.75288150  0.45457750  0.33887300  1
  Be  Be3  1  0.74711850  0.95457750  0.16112700  1
  Be  Be4  1  0.00000000  0.31683100  0.25000000  1
  Be  Be5  1  0.00000000  0.68316900  0.75000000  1
  Be  Be6  1  0.24711850  0.54542250  0.66112700  1
  Be  Be7  1  0.25288150  0.04542250  0.83887300  1
  Be  Be8  1  0.25288150  0.95457750  0.33887300  1
  Be  Be9  1  0.24711850  0.45457750  0.16112700  1
  Be  Be10  1  0.50000000  0.81683100  0.25000000  1
  Be  Be11  1  0.50000000  0.18316900  0.75000000  1
  As  As12  1  0.84448750  0.45797750  0.10124300  1
  As  As13  1  0.84448750  0.54202250  0.60124300  1
  As  As14  1  0.65551250  0.04202250  0.89875700  1
  As  As15  1  0.65551250  0.95797750  0.39875700  1
  As  As16  1  0.34448750  0.95797750  0.10124300  1
  As  As17  1  0.34448750  0.04202250  0.60124300  1
  As  As18  1  0.15551250  0.54202250  0.89875700  1
  As  As19  1  0.15551250  0.45797750  0.39875700  1
  H  H20  1  0.59239350  0.68544450  0.10371400  1
  H  H21  1  0.55125150  0.59542150  0.66242800  1
  H  H22  1  0.94874850  0.09542150  0.83757200  1
  H  H23  1  0.94874850  0.90457850  0.33757200  1
  H  H24  1  0.55125150  0.40457850  0.16242800  1
  H  H25  1  0.59239350  0.31455550  0.60371400  1
  H  H26  1  0.90760650  0.81455550  0.89628600  1
  H  H27  1  0.90760650  0.18544450  0.39628600  1
  H  H28  1  0.09239350  0.18544450  0.10371400  1
  H  H29  1  0.05125150  0.09542150  0.66242800  1
  H  H30  1  0.44874850  0.59542150  0.83757200  1
  H  H31  1  0.44874850  0.40457850  0.33757200  1
  H  H32  1  0.05125150  0.90457850  0.16242800  1
  H  H33  1  0.09239350  0.81455550  0.60371400  1
  H  H34  1  0.40760650  0.31455550  0.89628600  1
  H  H35  1  0.40760650  0.68544450  0.39628600  1
  O  O36  1  0.83426100  0.58649500  0.94166300  1
  O  O37  1  0.83426100  0.41350500  0.44166300  1
  O  O38  1  0.66573900  0.91350500  0.05833700  1
  O  O39  1  0.66573900  0.08649500  0.55833700  1
  O  O40  1  0.56102950  0.97135950  0.83149800  1
  O  O41  1  0.67889200  0.38985300  0.89835300  1
  O  O42  1  0.93897050  0.52864050  0.16850200  1
  O  O43  1  0.56102950  0.02864050  0.33149800  1
  O  O44  1  0.72282400  0.87437800  0.79755100  1
  O  O45  1  0.77717600  0.37437800  0.70244900  1
  O  O46  1  0.77717600  0.62562200  0.20244900  1
  O  O47  1  0.72282400  0.12562200  0.29755100  1
  O  O48  1  0.93897050  0.47135950  0.66850200  1
  O  O49  1  0.82110800  0.88985300  0.60164700  1
  O  O50  1  0.82110800  0.11014700  0.10164700  1
  O  O51  1  0.67889200  0.61014700  0.39835300  1
  O  O52  1  0.95499550  0.10638250  0.35358400  1
  O  O53  1  0.95499550  0.89361750  0.85358400  1
  O  O54  1  0.54500450  0.39361750  0.64641600  1
  O  O55  1  0.54500450  0.60638250  0.14641600  1
  O  O56  1  0.33426100  0.08649500  0.94166300  1
  O  O57  1  0.33426100  0.91350500  0.44166300  1
  O  O58  1  0.16573900  0.41350500  0.05833700  1
  O  O59  1  0.16573900  0.58649500  0.55833700  1
  O  O60  1  0.06102950  0.47135950  0.83149800  1
  O  O61  1  0.17889200  0.88985300  0.89835300  1
  O  O62  1  0.43897050  0.02864050  0.16850200  1
  O  O63  1  0.06102950  0.52864050  0.33149800  1
  O  O64  1  0.22282400  0.37437800  0.79755100  1
  O  O65  1  0.27717600  0.87437800  0.70244900  1
  O  O66  1  0.27717600  0.12562200  0.20244900  1
  O  O67  1  0.22282400  0.62562200  0.29755100  1
  O  O68  1  0.43897050  0.97135950  0.66850200  1
  O  O69  1  0.32110800  0.38985300  0.60164700  1
  O  O70  1  0.32110800  0.61014700  0.10164700  1
  O  O71  1  0.17889200  0.11014700  0.39835300  1
  O  O72  1  0.45499550  0.60638250  0.35358400  1
  O  O73  1  0.45499550  0.39361750  0.85358400  1
  O  O74  1  0.04500450  0.89361750  0.64641600  1
  O  O75  1  0.04500450  0.10638250  0.14641600  1
