# generated using pymatgen
data_Cd(InTe2)2
_symmetry_space_group_name_H-M   'P 1'
_cell_length_a   6.42423600
_cell_length_b   6.42423600
_cell_length_c   12.65774800
_cell_angle_alpha   90.00000000
_cell_angle_beta   90.00000000
_cell_angle_gamma   90.00000000
_symmetry_Int_Tables_number   1
_chemical_formula_structural   Cd(InTe2)2
_chemical_formula_sum   'Cd2 In4 Te8'
_cell_volume   522.39548975
_cell_formula_units_Z   2
loop_
 _symmetry_equiv_pos_site_id
 _symmetry_equiv_pos_as_xyz
  1  'x, y, z'
loop_
 _atom_site_type_symbol
 _atom_site_label
 _atom_site_symmetry_multiplicity
 _atom_site_fract_x
 _atom_site_fract_y
 _atom_site_fract_z
 _atom_site_occupancy
  Cd  Cd0  1  0.00000000  0.00000000  0.00000000  1
  Cd  Cd1  1  0.50000000  0.50000000  0.50000000  1
  In  In2  1  0.50000000  0.50000000  0.00000000  1
  In  In3  1  0.50000000  0.00000000  0.25000000  1
  In  In4  1  0.00000000  0.00000000  0.50000000  1
  In  In5  1  0.00000000  0.50000000  0.75000000  1
  Te  Te6  1  0.76881950  0.27383550  0.13683750  1
  Te  Te7  1  0.77383550  0.73118050  0.36316250  1
  Te  Te8  1  0.22616450  0.26881950  0.36316250  1
  Te  Te9  1  0.23118050  0.72616450  0.13683750  1
  Te  Te10  1  0.26881950  0.77383550  0.63683750  1
  Te  Te11  1  0.27383550  0.23118050  0.86316250  1
  Te  Te12  1  0.72616450  0.76881950  0.86316250  1
  Te  Te13  1  0.73118050  0.22616450  0.63683750  1
