# generated using pymatgen
data_Sn15Os3O14
_symmetry_space_group_name_H-M   'P 1'
_cell_length_a   12.60187800
_cell_length_b   7.21321400
_cell_length_c   13.15431426
_cell_angle_alpha   90.00000000
_cell_angle_beta   108.45714258
_cell_angle_gamma   90.00000000
_symmetry_Int_Tables_number   1
_chemical_formula_structural   Sn15Os3O14
_chemical_formula_sum   'Sn30 Os6 O28'
_cell_volume   1134.22037364
_cell_formula_units_Z   2
loop_
 _symmetry_equiv_pos_site_id
 _symmetry_equiv_pos_as_xyz
  1  'x, y, z'
loop_
 _atom_site_type_symbol
 _atom_site_label
 _atom_site_symmetry_multiplicity
 _atom_site_fract_x
 _atom_site_fract_y
 _atom_site_fract_z
 _atom_site_occupancy
  Sn  Sn0  1  0.59127200  0.26209600  0.91118000  1
  Sn  Sn1  1  0.66410550  0.24074050  0.65327500  1
  Sn  Sn2  1  0.66410550  0.75925950  0.65327500  1
  Sn  Sn3  1  0.98556900  0.00000000  0.38095600  1
  Sn  Sn4  1  0.83064500  0.74005800  0.16205000  1
  Sn  Sn5  1  0.83064500  0.25994200  0.16205000  1
  Sn  Sn6  1  0.84968200  0.00000000  0.91968900  1
  Sn  Sn7  1  0.55733500  0.00000000  0.12743300  1
  Sn  Sn8  1  0.90456900  0.00000000  0.65898900  1
  Sn  Sn9  1  0.75316300  0.75776200  0.42554200  1
  Sn  Sn10  1  0.75316300  0.24223800  0.42554200  1
  Sn  Sn11  1  0.51291900  0.00000000  0.42089700  1
  Sn  Sn12  1  0.59746400  0.50000000  0.17740100  1
  Sn  Sn13  1  0.59127200  0.73790400  0.91118000  1
  Sn  Sn14  1  0.82112500  0.50000000  0.88879100  1
  Sn  Sn15  1  0.09127200  0.76209600  0.91118000  1
  Sn  Sn16  1  0.16410550  0.74074050  0.65327500  1
  Sn  Sn17  1  0.16410550  0.25925950  0.65327500  1
  Sn  Sn18  1  0.48556900  0.50000000  0.38095600  1
  Sn  Sn19  1  0.33064500  0.24005800  0.16205000  1
  Sn  Sn20  1  0.33064500  0.75994200  0.16205000  1
  Sn  Sn21  1  0.34968200  0.50000000  0.91968900  1
  Sn  Sn22  1  0.05733500  0.50000000  0.12743300  1
  Sn  Sn23  1  0.40456900  0.50000000  0.65898900  1
  Sn  Sn24  1  0.25316300  0.25776200  0.42554200  1
  Sn  Sn25  1  0.25316300  0.74223800  0.42554200  1
  Sn  Sn26  1  0.01291900  0.50000000  0.42089700  1
  Sn  Sn27  1  0.09746400  0.00000000  0.17740100  1
  Sn  Sn28  1  0.09127200  0.23790400  0.91118000  1
  Sn  Sn29  1  0.32112500  0.00000000  0.88879100  1
  Os  Os30  1  0.71141600  0.00000000  0.03487600  1
  Os  Os31  1  0.61590800  0.50000000  0.76883600  1
  Os  Os32  1  0.80219200  0.50000000  0.30558200  1
  Os  Os33  1  0.21141600  0.50000000  0.03487600  1
  Os  Os34  1  0.11590800  0.00000000  0.76883600  1
  Os  Os35  1  0.30219200  0.00000000  0.30558200  1
  O  O36  1  0.77538200  0.00000000  0.74820100  1
  O  O37  1  0.51027550  0.74622050  0.18429200  1
  O  O38  1  0.51027550  0.25377950  0.18429200  1
  O  O39  1  0.79930450  0.77582350  0.59325000  1
  O  O40  1  0.79930450  0.22417650  0.59325000  1
  O  O41  1  0.65554200  0.00000000  0.36761300  1
  O  O42  1  0.57588700  0.00000000  0.58950900  1
  O  O43  1  0.87595000  0.50000000  0.05759800  1
  O  O44  1  0.87664100  0.00000000  0.47356100  1
  O  O45  1  0.54225400  0.50000000  0.00971900  1
  O  O46  1  0.59094300  0.28543400  0.46723700  1
  O  O47  1  0.59094300  0.71456600  0.46723700  1
  O  O48  1  0.91472900  0.73231000  0.88511300  1
  O  O49  1  0.91472900  0.26769000  0.88511300  1
  O  O50  1  0.27538200  0.50000000  0.74820100  1
  O  O51  1  0.01027550  0.24622050  0.18429200  1
  O  O52  1  0.01027550  0.75377950  0.18429200  1
  O  O53  1  0.29930450  0.27582350  0.59325000  1
  O  O54  1  0.29930450  0.72417650  0.59325000  1
  O  O55  1  0.15554200  0.50000000  0.36761300  1
  O  O56  1  0.07588700  0.50000000  0.58950900  1
  O  O57  1  0.37595000  0.00000000  0.05759800  1
  O  O58  1  0.37664100  0.50000000  0.47356100  1
  O  O59  1  0.04225400  0.00000000  0.00971900  1
  O  O60  1  0.09094300  0.78543400  0.46723700  1
  O  O61  1  0.09094300  0.21456600  0.46723700  1
  O  O62  1  0.41472900  0.23231000  0.88511300  1
  O  O63  1  0.41472900  0.76769000  0.88511300  1
