# generated using pymatgen
data_Cu4SiP8
_symmetry_space_group_name_H-M   'P 1'
_cell_length_a   12.21250600
_cell_length_b   12.21250600
_cell_length_c   5.73165000
_cell_angle_alpha   90.00000000
_cell_angle_beta   90.00000000
_cell_angle_gamma   90.00000000
_symmetry_Int_Tables_number   1
_chemical_formula_structural   Cu4SiP8
_chemical_formula_sum   'Cu16 Si4 P32'
_cell_volume   854.84867479
_cell_formula_units_Z   4
loop_
 _symmetry_equiv_pos_site_id
 _symmetry_equiv_pos_as_xyz
  1  'x, y, z'
loop_
 _atom_site_type_symbol
 _atom_site_label
 _atom_site_symmetry_multiplicity
 _atom_site_fract_x
 _atom_site_fract_y
 _atom_site_fract_z
 _atom_site_occupancy
  Cu  Cu0  1  0.20166050  0.01079850  0.43351850  1
  Cu  Cu1  1  0.51079850  0.79833950  0.68351850  1
  Cu  Cu2  1  0.48920150  0.20166050  0.68351850  1
  Cu  Cu3  1  0.79833950  0.98920150  0.43351850  1
  Cu  Cu4  1  0.29833950  0.98920150  0.81648150  1
  Cu  Cu5  1  0.48920150  0.70166050  0.06648150  1
  Cu  Cu6  1  0.51079850  0.29833950  0.06648150  1
  Cu  Cu7  1  0.70166050  0.01079850  0.81648150  1
  Cu  Cu8  1  0.70166050  0.51079850  0.93351850  1
  Cu  Cu9  1  0.01079850  0.29833950  0.18351850  1
  Cu  Cu10  1  0.98920150  0.70166050  0.18351850  1
  Cu  Cu11  1  0.29833950  0.48920150  0.93351850  1
  Cu  Cu12  1  0.79833950  0.48920150  0.31648150  1
  Cu  Cu13  1  0.98920150  0.20166050  0.56648150  1
  Cu  Cu14  1  0.01079850  0.79833950  0.56648150  1
  Cu  Cu15  1  0.20166050  0.51079850  0.31648150  1
  Si  Si16  1  0.50000000  0.00000000  0.25000000  1
  Si  Si17  1  0.00000000  0.00000000  0.00000000  1
  Si  Si18  1  0.00000000  0.50000000  0.75000000  1
  Si  Si19  1  0.50000000  0.50000000  0.50000000  1
  P  P20  1  0.88449150  0.91219450  0.75465650  1
  P  P21  1  0.58780550  0.88449150  0.00465650  1
  P  P22  1  0.58780550  0.38449150  0.74534350  1
  P  P23  1  0.38449150  0.91219450  0.49534350  1
  P  P24  1  0.61550850  0.08780550  0.49534350  1
  P  P25  1  0.41219450  0.61550850  0.74534350  1
  P  P26  1  0.41219450  0.11550850  0.00465650  1
  P  P27  1  0.11550850  0.08780550  0.75465650  1
  P  P28  1  0.65357000  0.22767300  0.27177200  1
  P  P29  1  0.22767300  0.84643000  0.02177200  1
  P  P30  1  0.77232700  0.15357000  0.02177200  1
  P  P31  1  0.34643000  0.77232700  0.27177200  1
  P  P32  1  0.34643000  0.27232700  0.47822800  1
  P  P33  1  0.27232700  0.15357000  0.22822800  1
  P  P34  1  0.72767300  0.84643000  0.22822800  1
  P  P35  1  0.65357000  0.72767300  0.47822800  1
  P  P36  1  0.38449150  0.41219450  0.25465650  1
  P  P37  1  0.08780550  0.38449150  0.50465650  1
  P  P38  1  0.08780550  0.88449150  0.24534350  1
  P  P39  1  0.88449150  0.41219450  0.99534350  1
  P  P40  1  0.11550850  0.58780550  0.99534350  1
  P  P41  1  0.91219450  0.11550850  0.24534350  1
  P  P42  1  0.91219450  0.61550850  0.50465650  1
  P  P43  1  0.61550850  0.58780550  0.25465650  1
  P  P44  1  0.15357000  0.72767300  0.77177200  1
  P  P45  1  0.72767300  0.34643000  0.52177200  1
  P  P46  1  0.27232700  0.65357000  0.52177200  1
  P  P47  1  0.84643000  0.27232700  0.77177200  1
  P  P48  1  0.84643000  0.77232700  0.97822800  1
  P  P49  1  0.77232700  0.65357000  0.72822800  1
  P  P50  1  0.22767300  0.34643000  0.72822800  1
  P  P51  1  0.15357000  0.22767300  0.97822800  1
