# generated using pymatgen
data_ThZr2F12
_symmetry_space_group_name_H-M   'P 1'
_cell_length_a   12.75013000
_cell_length_b   10.63487000
_cell_length_c   7.97751916
_cell_angle_alpha   90.00000000
_cell_angle_beta   127.98609094
_cell_angle_gamma   90.00000000
_symmetry_Int_Tables_number   1
_chemical_formula_structural   ThZr2F12
_chemical_formula_sum   'Th4 Zr8 F48'
_cell_volume   852.56823557
_cell_formula_units_Z   4
loop_
 _symmetry_equiv_pos_site_id
 _symmetry_equiv_pos_as_xyz
  1  'x, y, z'
loop_
 _atom_site_type_symbol
 _atom_site_label
 _atom_site_symmetry_multiplicity
 _atom_site_fract_x
 _atom_site_fract_y
 _atom_site_fract_z
 _atom_site_occupancy
  Th  Th0  1  0.00000000  0.22125200  0.00000000  1
  Th  Th1  1  0.00000000  0.77874800  0.00000000  1
  Th  Th2  1  0.50000000  0.72125200  0.00000000  1
  Th  Th3  1  0.50000000  0.27874800  0.00000000  1
  Zr  Zr4  1  0.85099800  0.50000000  0.22569800  1
  Zr  Zr5  1  0.14900200  0.50000000  0.77430200  1
  Zr  Zr6  1  0.68911800  0.50000000  0.56975800  1
  Zr  Zr7  1  0.31088200  0.50000000  0.43024200  1
  Zr  Zr8  1  0.35099800  0.00000000  0.22569800  1
  Zr  Zr9  1  0.64900200  0.00000000  0.77430200  1
  Zr  Zr10  1  0.18911800  0.00000000  0.56975800  1
  Zr  Zr11  1  0.81088200  0.00000000  0.43024200  1
  F  F12  1  0.06758100  0.62831000  0.86668400  1
  F  F13  1  0.93241900  0.62831000  0.13331600  1
  F  F14  1  0.93241900  0.37169000  0.13331600  1
  F  F15  1  0.06758100  0.37169000  0.86668400  1
  F  F16  1  0.72218100  0.50000000  0.85922700  1
  F  F17  1  0.27781900  0.50000000  0.14077300  1
  F  F18  1  0.00000000  0.00000000  0.00000000  1
  F  F19  1  0.00000000  0.00000000  0.50000000  1
  F  F20  1  0.00000000  0.61192700  0.50000000  1
  F  F21  1  0.00000000  0.38807300  0.50000000  1
  F  F22  1  0.18193850  0.35168150  0.27890600  1
  F  F23  1  0.81806150  0.35168150  0.72109400  1
  F  F24  1  0.81806150  0.64831850  0.72109400  1
  F  F25  1  0.18193850  0.64831850  0.27890600  1
  F  F26  1  0.21167600  0.50000000  0.57185100  1
  F  F27  1  0.78832400  0.50000000  0.42814900  1
  F  F28  1  0.29004450  0.35619850  0.88941400  1
  F  F29  1  0.70995550  0.35619850  0.11058600  1
  F  F30  1  0.70995550  0.64380150  0.11058600  1
  F  F31  1  0.29004450  0.64380150  0.88941400  1
  F  F32  1  0.91979100  0.13968300  0.66513200  1
  F  F33  1  0.08020900  0.13968300  0.33486800  1
  F  F34  1  0.08020900  0.86031700  0.33486800  1
  F  F35  1  0.91979100  0.86031700  0.66513200  1
  F  F36  1  0.56758100  0.12831000  0.86668400  1
  F  F37  1  0.43241900  0.12831000  0.13331600  1
  F  F38  1  0.43241900  0.87169000  0.13331600  1
  F  F39  1  0.56758100  0.87169000  0.86668400  1
  F  F40  1  0.22218100  0.00000000  0.85922700  1
  F  F41  1  0.77781900  0.00000000  0.14077300  1
  F  F42  1  0.50000000  0.50000000  0.00000000  1
  F  F43  1  0.50000000  0.50000000  0.50000000  1
  F  F44  1  0.50000000  0.11192700  0.50000000  1
  F  F45  1  0.50000000  0.88807300  0.50000000  1
  F  F46  1  0.68193850  0.85168150  0.27890600  1
  F  F47  1  0.31806150  0.85168150  0.72109400  1
  F  F48  1  0.31806150  0.14831850  0.72109400  1
  F  F49  1  0.68193850  0.14831850  0.27890600  1
  F  F50  1  0.71167600  0.00000000  0.57185100  1
  F  F51  1  0.28832400  0.00000000  0.42814900  1
  F  F52  1  0.79004450  0.85619850  0.88941400  1
  F  F53  1  0.20995550  0.85619850  0.11058600  1
  F  F54  1  0.20995550  0.14380150  0.11058600  1
  F  F55  1  0.79004450  0.14380150  0.88941400  1
  F  F56  1  0.41979100  0.63968300  0.66513200  1
  F  F57  1  0.58020900  0.63968300  0.33486800  1
  F  F58  1  0.58020900  0.36031700  0.33486800  1
  F  F59  1  0.41979100  0.36031700  0.66513200  1
