# generated using pymatgen
data_P4(SeO2)3
_symmetry_space_group_name_H-M   'P 1'
_cell_length_a   10.26143300
_cell_length_b   8.89458400
_cell_length_c   13.29265510
_cell_angle_alpha   90.00000000
_cell_angle_beta   90.37394135
_cell_angle_gamma   90.00000000
_symmetry_Int_Tables_number   1
_chemical_formula_structural   P4(SeO2)3
_chemical_formula_sum   'P16 Se12 O24'
_cell_volume   1213.21044791
_cell_formula_units_Z   4
loop_
 _symmetry_equiv_pos_site_id
 _symmetry_equiv_pos_as_xyz
  1  'x, y, z'
loop_
 _atom_site_type_symbol
 _atom_site_label
 _atom_site_symmetry_multiplicity
 _atom_site_fract_x
 _atom_site_fract_y
 _atom_site_fract_z
 _atom_site_occupancy
  P  P0  1  0.40068300  0.56197700  0.29614000  1
  P  P1  1  0.09931700  0.06197700  0.70386000  1
  P  P2  1  0.59931700  0.43802300  0.70386000  1
  P  P3  1  0.90068300  0.93802300  0.29614000  1
  P  P4  1  0.33012400  0.48092600  0.63321500  1
  P  P5  1  0.83012400  0.01907400  0.63321500  1
  P  P6  1  0.66987600  0.51907400  0.36678500  1
  P  P7  1  0.37866300  0.41159500  0.84332500  1
  P  P8  1  0.87866300  0.08840500  0.84332500  1
  P  P9  1  0.62133700  0.58840500  0.15667500  1
  P  P10  1  0.05107000  0.20387100  0.23638000  1
  P  P11  1  0.44893000  0.70387100  0.76362000  1
  P  P12  1  0.94893000  0.79612900  0.76362000  1
  P  P13  1  0.55107000  0.29612900  0.23638000  1
  P  P14  1  0.12133700  0.91159500  0.15667500  1
  P  P15  1  0.16987600  0.98092600  0.36678500  1
  Se  Se16  1  0.30583200  0.30142300  0.96457100  1
  Se  Se17  1  0.19416800  0.80142300  0.03542900  1
  Se  Se18  1  0.69416800  0.69857700  0.03542900  1
  Se  Se19  1  0.80583200  0.19857700  0.96457100  1
  Se  Se20  1  0.29826500  0.94933600  0.48278900  1
  Se  Se21  1  0.20173500  0.44933600  0.51721100  1
  Se  Se22  1  0.70173500  0.05066400  0.51721100  1
  Se  Se23  1  0.79826500  0.55066400  0.48278900  1
  Se  Se24  1  0.04195300  0.42719100  0.20284600  1
  Se  Se25  1  0.45804700  0.92719100  0.79715400  1
  Se  Se26  1  0.95804700  0.57280900  0.79715400  1
  Se  Se27  1  0.54195300  0.07280900  0.20284600  1
  O  O28  1  0.97832400  0.86280600  0.19693400  1
  O  O29  1  0.52167600  0.36280600  0.80306600  1
  O  O30  1  0.02167600  0.13719400  0.80306600  1
  O  O31  1  0.47832400  0.63719400  0.19693400  1
  O  O32  1  0.91613400  0.12088100  0.26672300  1
  O  O33  1  0.58386600  0.62088100  0.73327700  1
  O  O34  1  0.08386600  0.87911900  0.73327700  1
  O  O35  1  0.41613400  0.37911900  0.26672300  1
  O  O36  1  0.02120700  0.92369300  0.38229000  1
  O  O37  1  0.47879300  0.42369300  0.61771000  1
  O  O38  1  0.97879300  0.07630700  0.61771000  1
  O  O39  1  0.52120700  0.57630700  0.38229000  1
  O  O40  1  0.85273100  0.84456400  0.66974300  1
  O  O41  1  0.64726900  0.34456400  0.33025700  1
  O  O42  1  0.20905500  0.89931800  0.26061800  1
  O  O43  1  0.29094500  0.39931800  0.73938200  1
  O  O44  1  0.79094500  0.10068200  0.73938200  1
  O  O45  1  0.70905500  0.60068200  0.26061800  1
  O  O46  1  0.10566000  0.09490000  0.14629400  1
  O  O47  1  0.35273100  0.65543600  0.66974300  1
  O  O48  1  0.39434000  0.59490000  0.85370600  1
  O  O49  1  0.89434000  0.90510000  0.85370600  1
  O  O50  1  0.60566000  0.40510000  0.14629400  1
  O  O51  1  0.14726900  0.15543600  0.33025700  1
