# generated using pymatgen
data_BaH3C3O7
_symmetry_space_group_name_H-M   'P 1'
_cell_length_a   5.76005400
_cell_length_b   18.31064300
_cell_length_c   8.24136167
_cell_angle_alpha   90.00000000
_cell_angle_beta   125.52957741
_cell_angle_gamma   90.00000000
_symmetry_Int_Tables_number   1
_chemical_formula_structural   BaH3C3O7
_chemical_formula_sum   'Ba4 H12 C12 O28'
_cell_volume   707.38387251
_cell_formula_units_Z   4
loop_
 _symmetry_equiv_pos_site_id
 _symmetry_equiv_pos_as_xyz
  1  'x, y, z'
loop_
 _atom_site_type_symbol
 _atom_site_label
 _atom_site_symmetry_multiplicity
 _atom_site_fract_x
 _atom_site_fract_y
 _atom_site_fract_z
 _atom_site_occupancy
  Ba  Ba0  1  0.85383800  0.58409300  0.12269100  1
  Ba  Ba1  1  0.14616200  0.08409300  0.37730900  1
  Ba  Ba2  1  0.14616200  0.41590700  0.87730900  1
  Ba  Ba3  1  0.85383800  0.91590700  0.62269100  1
  H  H4  1  0.15191100  0.89559700  0.34589100  1
  H  H5  1  0.34232500  0.74990100  0.85150900  1
  H  H6  1  0.65767500  0.24990100  0.64849100  1
  H  H7  1  0.65767500  0.25009900  0.14849100  1
  H  H8  1  0.34232500  0.75009900  0.35150900  1
  H  H9  1  0.84808900  0.39559700  0.15410900  1
  H  H10  1  0.84808900  0.10440300  0.65410900  1
  H  H11  1  0.15191100  0.60440300  0.84589100  1
  H  H12  1  0.75612200  0.43382000  0.28624000  1
  H  H13  1  0.24387800  0.56618000  0.71376000  1
  H  H14  1  0.75612200  0.06618000  0.78624000  1
  H  H15  1  0.24387800  0.93382000  0.21376000  1
  C  C16  1  0.51579200  0.01561400  0.91818900  1
  C  C17  1  0.92477500  0.73506800  0.85197600  1
  C  C18  1  0.07522500  0.23506800  0.64802400  1
  C  C19  1  0.07522500  0.26493200  0.14802400  1
  C  C20  1  0.92477500  0.76493200  0.35197600  1
  C  C21  1  0.48420800  0.51561400  0.58181100  1
  C  C22  1  0.48420800  0.98438600  0.08181100  1
  C  C23  1  0.51579200  0.48438600  0.41818900  1
  C  C24  1  0.66748400  0.72765400  0.33556900  1
  C  C25  1  0.33251600  0.22765400  0.16443100  1
  C  C26  1  0.33251600  0.27234600  0.66443100  1
  C  C27  1  0.66748400  0.77234600  0.83556900  1
  O  O28  1  0.26645000  0.93559600  0.34438200  1
  O  O29  1  0.73355000  0.43559600  0.15561800  1
  O  O30  1  0.73355000  0.06440400  0.65561800  1
  O  O31  1  0.26645000  0.56440400  0.84438200  1
  O  O32  1  0.74138800  0.44833300  0.47988200  1
  O  O33  1  0.52634800  0.72707100  0.87382500  1
  O  O34  1  0.47365200  0.22707100  0.62617500  1
  O  O35  1  0.47365200  0.27292900  0.12617500  1
  O  O36  1  0.52634800  0.77292900  0.37382500  1
  O  O37  1  0.96507600  0.66812100  0.89269600  1
  O  O38  1  0.03492400  0.16812100  0.60730400  1
  O  O39  1  0.03492400  0.33187900  0.10730400  1
  O  O40  1  0.06948800  0.72288700  0.31908400  1
  O  O41  1  0.93051200  0.22288700  0.18091600  1
  O  O42  1  0.93051200  0.27711300  0.68091600  1
  O  O43  1  0.06948800  0.77711300  0.81908400  1
  O  O44  1  0.31732700  0.00278500  0.73704400  1
  O  O45  1  0.68267300  0.50278500  0.76295600  1
  O  O46  1  0.68267300  0.99721500  0.26295600  1
  O  O47  1  0.31732700  0.49721500  0.23704400  1
  O  O48  1  0.96507600  0.83187900  0.39269600  1
  O  O49  1  0.74138800  0.05166700  0.97988200  1
  O  O50  1  0.25861200  0.55166700  0.52011800  1
  O  O51  1  0.25861200  0.94833300  0.02011800  1
  O  O52  1  0.60742500  0.66295400  0.28882300  1
  O  O53  1  0.39257500  0.16295400  0.21117700  1
  O  O54  1  0.39257500  0.33704600  0.71117700  1
  O  O55  1  0.60742500  0.83704600  0.78882300  1
