# generated using pymatgen
data_Ba2S3
_symmetry_space_group_name_H-M   'P 1'
_cell_length_a   6.09460200
_cell_length_b   6.09460200
_cell_length_c   16.15105600
_cell_angle_alpha   90.00000000
_cell_angle_beta   90.00000000
_cell_angle_gamma   90.00000000
_symmetry_Int_Tables_number   1
_chemical_formula_structural   Ba2S3
_chemical_formula_sum   'Ba8 S12'
_cell_volume   599.91762689
_cell_formula_units_Z   4
loop_
 _symmetry_equiv_pos_site_id
 _symmetry_equiv_pos_as_xyz
  1  'x, y, z'
loop_
 _atom_site_type_symbol
 _atom_site_label
 _atom_site_symmetry_multiplicity
 _atom_site_fract_x
 _atom_site_fract_y
 _atom_site_fract_z
 _atom_site_occupancy
  Ba  Ba0  1  0.50000000  0.50000000  0.20442100  1
  Ba  Ba1  1  0.00000000  0.50000000  0.95442100  1
  Ba  Ba2  1  0.50000000  0.50000000  0.79954500  1
  Ba  Ba3  1  0.50000000  0.00000000  0.04954500  1
  Ba  Ba4  1  0.00000000  0.00000000  0.70442100  1
  Ba  Ba5  1  0.50000000  0.00000000  0.45442100  1
  Ba  Ba6  1  0.00000000  0.00000000  0.29954500  1
  Ba  Ba7  1  0.00000000  0.50000000  0.54954500  1
  S  S8  1  0.82698350  0.00000000  0.89204350  1
  S  S9  1  0.00000000  0.32698350  0.14204350  1
  S  S10  1  0.00000000  0.67301650  0.14204350  1
  S  S11  1  0.17301650  0.00000000  0.89204350  1
  S  S12  1  0.50000000  0.00000000  0.24914700  1
  S  S13  1  0.50000000  0.50000000  0.99914700  1
  S  S14  1  0.32698350  0.50000000  0.39204350  1
  S  S15  1  0.50000000  0.82698350  0.64204350  1
  S  S16  1  0.50000000  0.17301650  0.64204350  1
  S  S17  1  0.67301650  0.50000000  0.39204350  1
  S  S18  1  0.00000000  0.50000000  0.74914700  1
  S  S19  1  0.00000000  0.00000000  0.49914700  1
