# generated using pymatgen
data_ThTl3F7
_symmetry_space_group_name_H-M   'P 1'
_cell_length_a   9.93661200
_cell_length_b   19.34626400
_cell_length_c   8.58498000
_cell_angle_alpha   90.00000000
_cell_angle_beta   90.00000000
_cell_angle_gamma   90.00000000
_symmetry_Int_Tables_number   1
_chemical_formula_structural   ThTl3F7
_chemical_formula_sum   'Th8 Tl24 F56'
_cell_volume   1650.34495404
_cell_formula_units_Z   8
loop_
 _symmetry_equiv_pos_site_id
 _symmetry_equiv_pos_as_xyz
  1  'x, y, z'
loop_
 _atom_site_type_symbol
 _atom_site_label
 _atom_site_symmetry_multiplicity
 _atom_site_fract_x
 _atom_site_fract_y
 _atom_site_fract_z
 _atom_site_occupancy
  Th  Th0  1  0.50000000  0.39160300  0.50095600  1
  Th  Th1  1  0.00000000  0.10839700  0.00095600  1
  Th  Th2  1  0.00000000  0.10839700  0.49904400  1
  Th  Th3  1  0.50000000  0.39160300  0.99904400  1
  Th  Th4  1  0.00000000  0.89160300  0.50095600  1
  Th  Th5  1  0.50000000  0.60839700  0.00095600  1
  Th  Th6  1  0.50000000  0.60839700  0.49904400  1
  Th  Th7  1  0.00000000  0.89160300  0.99904400  1
  Tl  Tl8  1  0.50000000  0.13644700  0.03277500  1
  Tl  Tl9  1  0.00000000  0.36355300  0.53277500  1
  Tl  Tl10  1  0.00000000  0.36355300  0.96722500  1
  Tl  Tl11  1  0.50000000  0.13644700  0.46722500  1
  Tl  Tl12  1  0.73331300  0.24247400  0.75000000  1
  Tl  Tl13  1  0.76668700  0.25752600  0.25000000  1
  Tl  Tl14  1  0.26668700  0.24247400  0.75000000  1
  Tl  Tl15  1  0.23331300  0.25752600  0.25000000  1
  Tl  Tl16  1  0.69208600  0.01567500  0.75000000  1
  Tl  Tl17  1  0.80791400  0.48432500  0.25000000  1
  Tl  Tl18  1  0.30791400  0.01567500  0.75000000  1
  Tl  Tl19  1  0.19208600  0.48432500  0.25000000  1
  Tl  Tl20  1  0.00000000  0.63644700  0.03277500  1
  Tl  Tl21  1  0.50000000  0.86355300  0.53277500  1
  Tl  Tl22  1  0.50000000  0.86355300  0.96722500  1
  Tl  Tl23  1  0.00000000  0.63644700  0.46722500  1
  Tl  Tl24  1  0.23331300  0.74247400  0.75000000  1
  Tl  Tl25  1  0.26668700  0.75752600  0.25000000  1
  Tl  Tl26  1  0.76668700  0.74247400  0.75000000  1
  Tl  Tl27  1  0.73331300  0.75752600  0.25000000  1
  Tl  Tl28  1  0.19208600  0.51567500  0.75000000  1
  Tl  Tl29  1  0.30791400  0.98432500  0.25000000  1
  Tl  Tl30  1  0.80791400  0.51567500  0.75000000  1
  Tl  Tl31  1  0.69208600  0.98432500  0.25000000  1
  F  F32  1  0.27769400  0.36425000  0.44600700  1
  F  F33  1  0.22230600  0.13575000  0.94600700  1
  F  F34  1  0.22230600  0.13575000  0.55399300  1
  F  F35  1  0.27769400  0.36425000  0.05399300  1
  F  F36  1  0.77769400  0.13575000  0.94600700  1
  F  F37  1  0.72230600  0.36425000  0.44600700  1
  F  F38  1  0.72230600  0.36425000  0.05399300  1
  F  F39  1  0.77769400  0.13575000  0.55399300  1
  F  F40  1  0.00000000  0.05170400  0.75000000  1
  F  F41  1  0.50000000  0.44829600  0.25000000  1
  F  F42  1  0.00000000  0.17864000  0.75000000  1
  F  F43  1  0.50000000  0.32136000  0.25000000  1
  F  F44  1  0.50000000  0.27754800  0.56592500  1
  F  F45  1  0.00000000  0.22245200  0.06592500  1
  F  F46  1  0.00000000  0.22245200  0.43407500  1
  F  F47  1  0.50000000  0.27754800  0.93407500  1
  F  F48  1  0.12951500  0.00000000  0.50000000  1
  F  F49  1  0.87048500  0.00000000  0.00000000  1
  F  F50  1  0.87048500  0.00000000  0.50000000  1
  F  F51  1  0.12951500  0.00000000  0.00000000  1
  F  F52  1  0.50000000  0.00000000  0.00000000  1
  F  F53  1  0.50000000  0.00000000  0.50000000  1
  F  F54  1  0.00000000  0.36422200  0.25000000  1
  F  F55  1  0.50000000  0.13577800  0.75000000  1
  F  F56  1  0.87419150  0.10541250  0.25000000  1
  F  F57  1  0.62580850  0.39458750  0.75000000  1
  F  F58  1  0.12580850  0.10541250  0.25000000  1
  F  F59  1  0.37419150  0.39458750  0.75000000  1
  F  F60  1  0.77769400  0.86425000  0.44600700  1
  F  F61  1  0.72230600  0.63575000  0.94600700  1
  F  F62  1  0.72230600  0.63575000  0.55399300  1
  F  F63  1  0.77769400  0.86425000  0.05399300  1
  F  F64  1  0.27769400  0.63575000  0.94600700  1
  F  F65  1  0.22230600  0.86425000  0.44600700  1
  F  F66  1  0.22230600  0.86425000  0.05399300  1
  F  F67  1  0.27769400  0.63575000  0.55399300  1
  F  F68  1  0.50000000  0.55170400  0.75000000  1
  F  F69  1  0.00000000  0.94829600  0.25000000  1
  F  F70  1  0.50000000  0.67864000  0.75000000  1
  F  F71  1  0.00000000  0.82136000  0.25000000  1
  F  F72  1  0.00000000  0.77754800  0.56592500  1
  F  F73  1  0.50000000  0.72245200  0.06592500  1
  F  F74  1  0.50000000  0.72245200  0.43407500  1
  F  F75  1  0.00000000  0.77754800  0.93407500  1
  F  F76  1  0.62951500  0.50000000  0.50000000  1
  F  F77  1  0.37048500  0.50000000  0.00000000  1
  F  F78  1  0.37048500  0.50000000  0.50000000  1
  F  F79  1  0.62951500  0.50000000  0.00000000  1
  F  F80  1  0.00000000  0.50000000  0.00000000  1
  F  F81  1  0.00000000  0.50000000  0.50000000  1
  F  F82  1  0.50000000  0.86422200  0.25000000  1
  F  F83  1  0.00000000  0.63577800  0.75000000  1
  F  F84  1  0.37419150  0.60541250  0.25000000  1
  F  F85  1  0.12580850  0.89458750  0.75000000  1
  F  F86  1  0.62580850  0.60541250  0.25000000  1
  F  F87  1  0.87419150  0.89458750  0.75000000  1
