# generated using pymatgen
data_MgH10(SeO5)2
_symmetry_space_group_name_H-M   'P 1'
_cell_length_a   14.80249000
_cell_length_b   7.64735600
_cell_length_c   11.19873227
_cell_angle_alpha   90.00000000
_cell_angle_beta   127.77299112
_cell_angle_gamma   90.00000000
_symmetry_Int_Tables_number   1
_chemical_formula_structural   MgH10(SeO5)2
_chemical_formula_sum   'Mg4 H40 Se8 O40'
_cell_volume   1002.04210046
_cell_formula_units_Z   4
loop_
 _symmetry_equiv_pos_site_id
 _symmetry_equiv_pos_as_xyz
  1  'x, y, z'
loop_
 _atom_site_type_symbol
 _atom_site_label
 _atom_site_symmetry_multiplicity
 _atom_site_fract_x
 _atom_site_fract_y
 _atom_site_fract_z
 _atom_site_occupancy
  Mg  Mg0  1  0.50000000  0.53537300  0.25000000  1
  Mg  Mg1  1  0.50000000  0.46462700  0.75000000  1
  Mg  Mg2  1  0.00000000  0.03537300  0.25000000  1
  Mg  Mg3  1  0.00000000  0.96462700  0.75000000  1
  H  H4  1  0.17317100  0.42930800  0.05620500  1
  H  H5  1  0.32682900  0.92930800  0.44379500  1
  H  H6  1  0.82682900  0.57069200  0.94379500  1
  H  H7  1  0.67317100  0.07069200  0.55620500  1
  H  H8  1  0.72791550  0.98576450  0.97589600  1
  H  H9  1  0.27208450  0.98576450  0.52410400  1
  H  H10  1  0.55921650  0.12071050  0.83331500  1
  H  H11  1  0.44078350  0.12071050  0.66668500  1
  H  H12  1  0.44078350  0.87928950  0.16668500  1
  H  H13  1  0.55921650  0.87928950  0.33331500  1
  H  H14  1  0.56228650  0.81106550  0.83080400  1
  H  H15  1  0.43771350  0.81106550  0.66919600  1
  H  H16  1  0.43771350  0.18893450  0.16919600  1
  H  H17  1  0.56228650  0.18893450  0.33080400  1
  H  H18  1  0.32021200  0.73212000  0.27841200  1
  H  H19  1  0.17978800  0.23212000  0.22158800  1
  H  H20  1  0.67978800  0.26788000  0.72158800  1
  H  H21  1  0.82021200  0.76788000  0.77841200  1
  H  H22  1  0.27208450  0.01423550  0.02410400  1
  H  H23  1  0.72791550  0.01423550  0.47589600  1
  H  H24  1  0.67317100  0.92930800  0.05620500  1
  H  H25  1  0.82682900  0.42930800  0.44379500  1
  H  H26  1  0.32682900  0.07069200  0.94379500  1
  H  H27  1  0.17317100  0.57069200  0.55620500  1
  H  H28  1  0.22791550  0.48576450  0.97589600  1
  H  H29  1  0.77208450  0.48576450  0.52410400  1
  H  H30  1  0.05921650  0.62071050  0.83331500  1
  H  H31  1  0.94078350  0.62071050  0.66668500  1
  H  H32  1  0.94078350  0.37928950  0.16668500  1
  H  H33  1  0.05921650  0.37928950  0.33331500  1
  H  H34  1  0.06228650  0.31106550  0.83080400  1
  H  H35  1  0.93771350  0.31106550  0.66919600  1
  H  H36  1  0.93771350  0.68893450  0.16919600  1
  H  H37  1  0.06228650  0.68893450  0.33080400  1
  H  H38  1  0.82021200  0.23212000  0.27841200  1
  H  H39  1  0.67978800  0.73212000  0.22158800  1
  H  H40  1  0.17978800  0.76788000  0.72158800  1
  H  H41  1  0.32021200  0.26788000  0.77841200  1
  H  H42  1  0.77208450  0.51423550  0.02410400  1
  H  H43  1  0.22791550  0.51423550  0.47589600  1
  Se  Se44  1  0.86268050  0.12789250  0.88520200  1
  Se  Se45  1  0.63731950  0.62789250  0.61479800  1
  Se  Se46  1  0.36268050  0.37210750  0.38520200  1
  Se  Se47  1  0.13731950  0.87210750  0.11479800  1
  Se  Se48  1  0.36268050  0.62789250  0.88520200  1
  Se  Se49  1  0.13731950  0.12789250  0.61479800  1
  Se  Se50  1  0.86268050  0.87210750  0.38520200  1
  Se  Se51  1  0.63731950  0.37210750  0.11479800  1
  O  O52  1  0.50000000  0.80182000  0.25000000  1
  O  O53  1  0.50000000  0.19818000  0.75000000  1
  O  O54  1  0.65357050  0.03565850  0.45743500  1
  O  O55  1  0.34642950  0.03565850  0.04256500  1
  O  O56  1  0.34642950  0.96434150  0.54256500  1
  O  O57  1  0.65357050  0.96434150  0.95743500  1
  O  O58  1  0.28939300  0.85468900  0.26998000  1
  O  O59  1  0.21060700  0.35468900  0.23002000  1
  O  O60  1  0.71060700  0.14531100  0.73002000  1
  O  O61  1  0.78939300  0.64531100  0.76998000  1
  O  O62  1  0.64376150  0.46478050  0.98217800  1
  O  O63  1  0.35623850  0.46478050  0.51782200  1
  O  O64  1  0.35623850  0.53521950  0.01782200  1
  O  O65  1  0.64376150  0.53521950  0.48217800  1
  O  O66  1  0.61230600  0.45491400  0.68754400  1
  O  O67  1  0.88769400  0.95491400  0.81245600  1
  O  O68  1  0.38769400  0.54508600  0.31245600  1
  O  O69  1  0.11230600  0.04508600  0.18754400  1
  O  O70  1  0.50000000  0.73332300  0.75000000  1
  O  O71  1  0.50000000  0.26667700  0.25000000  1
  O  O72  1  0.00000000  0.30182000  0.25000000  1
  O  O73  1  0.00000000  0.69818000  0.75000000  1
  O  O74  1  0.15357050  0.53565850  0.45743500  1
  O  O75  1  0.84642950  0.53565850  0.04256500  1
  O  O76  1  0.84642950  0.46434150  0.54256500  1
  O  O77  1  0.15357050  0.46434150  0.95743500  1
  O  O78  1  0.78939300  0.35468900  0.26998000  1
  O  O79  1  0.71060700  0.85468900  0.23002000  1
  O  O80  1  0.21060700  0.64531100  0.73002000  1
  O  O81  1  0.28939300  0.14531100  0.76998000  1
  O  O82  1  0.14376150  0.96478050  0.98217800  1
  O  O83  1  0.85623850  0.96478050  0.51782200  1
  O  O84  1  0.85623850  0.03521950  0.01782200  1
  O  O85  1  0.14376150  0.03521950  0.48217800  1
  O  O86  1  0.11230600  0.95491400  0.68754400  1
  O  O87  1  0.38769400  0.45491400  0.81245600  1
  O  O88  1  0.88769400  0.04508600  0.31245600  1
  O  O89  1  0.61230600  0.54508600  0.18754400  1
  O  O90  1  0.00000000  0.23332300  0.75000000  1
  O  O91  1  0.00000000  0.76667700  0.25000000  1
