# generated using pymatgen
data_Cd7P10
_symmetry_space_group_name_H-M   'P 1'
_cell_length_a   4.69132200
_cell_length_b   23.30172800
_cell_length_c   27.91705600
_cell_angle_alpha   90.00000000
_cell_angle_beta   90.00000000
_cell_angle_gamma   90.00000000
_symmetry_Int_Tables_number   1
_chemical_formula_structural   Cd7P10
_chemical_formula_sum   'Cd56 P80'
_cell_volume   3051.77835895
_cell_formula_units_Z   8
loop_
 _symmetry_equiv_pos_site_id
 _symmetry_equiv_pos_as_xyz
  1  'x, y, z'
loop_
 _atom_site_type_symbol
 _atom_site_label
 _atom_site_symmetry_multiplicity
 _atom_site_fract_x
 _atom_site_fract_y
 _atom_site_fract_z
 _atom_site_occupancy
  Cd  Cd0  1  0.22164700  0.25297100  0.54851000  1
  Cd  Cd1  1  0.22164700  0.24702900  0.95149000  1
  Cd  Cd2  1  0.97164700  0.49702900  0.79851000  1
  Cd  Cd3  1  0.97164700  0.00297100  0.70149000  1
  Cd  Cd4  1  0.77549100  0.38103200  0.58239900  1
  Cd  Cd5  1  0.77549100  0.11896800  0.91760100  1
  Cd  Cd6  1  0.52549100  0.36896800  0.83239900  1
  Cd  Cd7  1  0.52549100  0.13103200  0.66760100  1
  Cd  Cd8  1  0.15282900  0.38261450  0.71226050  1
  Cd  Cd9  1  0.15282900  0.11738550  0.78773950  1
  Cd  Cd10  1  0.90282900  0.36738550  0.96226050  1
  Cd  Cd11  1  0.90282900  0.13261450  0.53773950  1
  Cd  Cd12  1  0.74457600  0.25000000  0.75000000  1
  Cd  Cd13  1  0.49457600  0.00000000  0.50000000  1
  Cd  Cd14  1  0.72164700  0.25297100  0.04851000  1
  Cd  Cd15  1  0.72164700  0.24702900  0.45149000  1
  Cd  Cd16  1  0.47164700  0.49702900  0.29851000  1
  Cd  Cd17  1  0.47164700  0.00297100  0.20149000  1
  Cd  Cd18  1  0.27549100  0.38103200  0.08239900  1
  Cd  Cd19  1  0.27549100  0.11896800  0.41760100  1
  Cd  Cd20  1  0.02549100  0.36896800  0.33239900  1
  Cd  Cd21  1  0.02549100  0.13103200  0.16760100  1
  Cd  Cd22  1  0.65282900  0.38261450  0.21226050  1
  Cd  Cd23  1  0.65282900  0.11738550  0.28773950  1
  Cd  Cd24  1  0.40282900  0.36738550  0.46226050  1
  Cd  Cd25  1  0.40282900  0.13261450  0.03773950  1
  Cd  Cd26  1  0.24457600  0.25000000  0.25000000  1
  Cd  Cd27  1  0.99457600  0.00000000  0.00000000  1
  Cd  Cd28  1  0.72164700  0.75297100  0.54851000  1
  Cd  Cd29  1  0.72164700  0.74702900  0.95149000  1
  Cd  Cd30  1  0.47164700  0.99702900  0.79851000  1
  Cd  Cd31  1  0.47164700  0.50297100  0.70149000  1
  Cd  Cd32  1  0.27549100  0.88103200  0.58239900  1
  Cd  Cd33  1  0.27549100  0.61896800  0.91760100  1
  Cd  Cd34  1  0.02549100  0.86896800  0.83239900  1
  Cd  Cd35  1  0.02549100  0.63103200  0.66760100  1
  Cd  Cd36  1  0.65282900  0.88261450  0.71226050  1
  Cd  Cd37  1  0.65282900  0.61738550  0.78773950  1
  Cd  Cd38  1  0.40282900  0.86738550  0.96226050  1
  Cd  Cd39  1  0.40282900  0.63261450  0.53773950  1
  Cd  Cd40  1  0.24457600  0.75000000  0.75000000  1
  Cd  Cd41  1  0.99457600  0.50000000  0.50000000  1
  Cd  Cd42  1  0.22164700  0.75297100  0.04851000  1
  Cd  Cd43  1  0.22164700  0.74702900  0.45149000  1
  Cd  Cd44  1  0.97164700  0.99702900  0.29851000  1
  Cd  Cd45  1  0.97164700  0.50297100  0.20149000  1
  Cd  Cd46  1  0.77549100  0.88103200  0.08239900  1
  Cd  Cd47  1  0.77549100  0.61896800  0.41760100  1
  Cd  Cd48  1  0.52549100  0.86896800  0.33239900  1
  Cd  Cd49  1  0.52549100  0.63103200  0.16760100  1
  Cd  Cd50  1  0.15282900  0.88261450  0.21226050  1
  Cd  Cd51  1  0.15282900  0.61738550  0.28773950  1
  Cd  Cd52  1  0.90282900  0.86738550  0.46226050  1
  Cd  Cd53  1  0.90282900  0.63261450  0.03773950  1
  Cd  Cd54  1  0.74457600  0.75000000  0.25000000  1
  Cd  Cd55  1  0.49457600  0.50000000  0.00000000  1
  P  P56  1  0.35736950  0.45837700  0.56392050  1
  P  P57  1  0.35736950  0.04162300  0.93607950  1
  P  P58  1  0.10736950  0.29162300  0.81392050  1
  P  P59  1  0.10736950  0.20837700  0.68607950  1
  P  P60  1  0.10316650  0.45621600  0.63017950  1
  P  P61  1  0.10316650  0.04378400  0.86982050  1
  P  P62  1  0.85316650  0.29378400  0.88017950  1
  P  P63  1  0.85316650  0.20621600  0.61982050  1
  P  P64  1  0.94358500  0.33275300  0.50178900  1
  P  P65  1  0.94358500  0.16724700  0.99821100  1
  P  P66  1  0.69358500  0.41724700  0.75178900  1
  P  P67  1  0.69358500  0.08275300  0.74821100  1
  P  P68  1  0.57933350  0.28387300  0.61602750  1
  P  P69  1  0.57933350  0.21612700  0.88397250  1
  P  P70  1  0.12589850  0.03622350  0.56433400  1
  P  P71  1  0.12589850  0.46377650  0.93566600  1
  P  P72  1  0.37589850  0.21377650  0.81433400  1
  P  P73  1  0.37589850  0.28622350  0.68566600  1
  P  P74  1  0.32933350  0.03387300  0.63397250  1
  P  P75  1  0.32933350  0.46612700  0.86602750  1
  P  P76  1  0.85736950  0.45837700  0.06392050  1
  P  P77  1  0.85736950  0.04162300  0.43607950  1
  P  P78  1  0.60736950  0.29162300  0.31392050  1
  P  P79  1  0.60736950  0.20837700  0.18607950  1
  P  P80  1  0.60316650  0.45621600  0.13017950  1
  P  P81  1  0.60316650  0.04378400  0.36982050  1
  P  P82  1  0.35316650  0.29378400  0.38017950  1
  P  P83  1  0.35316650  0.20621600  0.11982050  1
  P  P84  1  0.44358500  0.33275300  0.00178900  1
  P  P85  1  0.44358500  0.16724700  0.49821100  1
  P  P86  1  0.19358500  0.41724700  0.25178900  1
  P  P87  1  0.19358500  0.08275300  0.24821100  1
  P  P88  1  0.07933350  0.28387300  0.11602750  1
  P  P89  1  0.07933350  0.21612700  0.38397250  1
  P  P90  1  0.62589850  0.03622350  0.06433400  1
  P  P91  1  0.62589850  0.46377650  0.43566600  1
  P  P92  1  0.87589850  0.21377650  0.31433400  1
  P  P93  1  0.87589850  0.28622350  0.18566600  1
  P  P94  1  0.82933350  0.03387300  0.13397250  1
  P  P95  1  0.82933350  0.46612700  0.36602750  1
  P  P96  1  0.85736950  0.95837700  0.56392050  1
  P  P97  1  0.85736950  0.54162300  0.93607950  1
  P  P98  1  0.60736950  0.79162300  0.81392050  1
  P  P99  1  0.60736950  0.70837700  0.68607950  1
  P  P100  1  0.60316650  0.95621600  0.63017950  1
  P  P101  1  0.60316650  0.54378400  0.86982050  1
  P  P102  1  0.35316650  0.79378400  0.88017950  1
  P  P103  1  0.35316650  0.70621600  0.61982050  1
  P  P104  1  0.44358500  0.83275300  0.50178900  1
  P  P105  1  0.44358500  0.66724700  0.99821100  1
  P  P106  1  0.19358500  0.91724700  0.75178900  1
  P  P107  1  0.19358500  0.58275300  0.74821100  1
  P  P108  1  0.07933350  0.78387300  0.61602750  1
  P  P109  1  0.07933350  0.71612700  0.88397250  1
  P  P110  1  0.62589850  0.53622350  0.56433400  1
  P  P111  1  0.62589850  0.96377650  0.93566600  1
  P  P112  1  0.87589850  0.71377650  0.81433400  1
  P  P113  1  0.87589850  0.78622350  0.68566600  1
  P  P114  1  0.82933350  0.53387300  0.63397250  1
  P  P115  1  0.82933350  0.96612700  0.86602750  1
  P  P116  1  0.35736950  0.95837700  0.06392050  1
  P  P117  1  0.35736950  0.54162300  0.43607950  1
  P  P118  1  0.10736950  0.79162300  0.31392050  1
  P  P119  1  0.10736950  0.70837700  0.18607950  1
  P  P120  1  0.10316650  0.95621600  0.13017950  1
  P  P121  1  0.10316650  0.54378400  0.36982050  1
  P  P122  1  0.85316650  0.79378400  0.38017950  1
  P  P123  1  0.85316650  0.70621600  0.11982050  1
  P  P124  1  0.94358500  0.83275300  0.00178900  1
  P  P125  1  0.94358500  0.66724700  0.49821100  1
  P  P126  1  0.69358500  0.91724700  0.25178900  1
  P  P127  1  0.69358500  0.58275300  0.24821100  1
  P  P128  1  0.57933350  0.78387300  0.11602750  1
  P  P129  1  0.57933350  0.71612700  0.38397250  1
  P  P130  1  0.12589850  0.53622350  0.06433400  1
  P  P131  1  0.12589850  0.96377650  0.43566600  1
  P  P132  1  0.37589850  0.71377650  0.31433400  1
  P  P133  1  0.37589850  0.78622350  0.18566600  1
  P  P134  1  0.32933350  0.53387300  0.13397250  1
  P  P135  1  0.32933350  0.96612700  0.36602750  1
