# generated using pymatgen
data_B7H10
_symmetry_space_group_name_H-M   'P 1'
_cell_length_a   9.17887500
_cell_length_b   10.27809500
_cell_length_c   13.54942300
_cell_angle_alpha   90.00000000
_cell_angle_beta   90.00000000
_cell_angle_gamma   90.00000000
_symmetry_Int_Tables_number   1
_chemical_formula_structural   B7H10
_chemical_formula_sum   'B56 H80'
_cell_volume   1278.27084729
_cell_formula_units_Z   8
loop_
 _symmetry_equiv_pos_site_id
 _symmetry_equiv_pos_as_xyz
  1  'x, y, z'
loop_
 _atom_site_type_symbol
 _atom_site_label
 _atom_site_symmetry_multiplicity
 _atom_site_fract_x
 _atom_site_fract_y
 _atom_site_fract_z
 _atom_site_occupancy
  B  B0  1  0.96124200  0.57966700  0.98277800  1
  B  B1  1  0.46124200  0.92033300  0.01722200  1
  B  B2  1  0.03875800  0.07966700  0.51722200  1
  B  B3  1  0.53875800  0.42033300  0.48277800  1
  B  B4  1  0.80409500  0.66515000  0.93676100  1
  B  B5  1  0.30409500  0.83485000  0.06323900  1
  B  B6  1  0.19590500  0.16515000  0.56323900  1
  B  B7  1  0.69590500  0.33485000  0.43676100  1
  B  B8  1  0.64111600  0.60799900  0.86042800  1
  B  B9  1  0.14111600  0.89200100  0.13957200  1
  B  B10  1  0.35888400  0.10799900  0.63957200  1
  B  B11  1  0.85888400  0.39200100  0.36042800  1
  B  B12  1  0.54944400  0.47773100  0.93977900  1
  B  B13  1  0.04944400  0.02226900  0.06022100  1
  B  B14  1  0.45055600  0.97773100  0.56022100  1
  B  B15  1  0.95055600  0.52226900  0.43977900  1
  B  B16  1  0.62602900  0.33506300  0.99516700  1
  B  B17  1  0.12602900  0.16493700  0.00483300  1
  B  B18  1  0.37397100  0.83506300  0.50483300  1
  B  B19  1  0.87397100  0.66493700  0.49516700  1
  B  B20  1  0.71637300  0.24859700  0.90201700  1
  B  B21  1  0.21637300  0.25140300  0.09798300  1
  B  B22  1  0.28362700  0.74859700  0.59798300  1
  B  B23  1  0.78362700  0.75140300  0.40201700  1
  B  B24  1  0.69179600  0.33614300  0.78821900  1
  B  B25  1  0.19179600  0.16385700  0.21178100  1
  B  B26  1  0.30820400  0.83614300  0.71178100  1
  B  B27  1  0.80820400  0.66385700  0.28821900  1
  B  B28  1  0.73222500  0.51287500  0.75493200  1
  B  B29  1  0.23222500  0.98712500  0.24506800  1
  B  B30  1  0.26777500  0.01287500  0.74506800  1
  B  B31  1  0.76777500  0.48712500  0.25493200  1
  B  B32  1  0.93710500  0.53601500  0.77546600  1
  B  B33  1  0.43710500  0.96398500  0.22453400  1
  B  B34  1  0.06289500  0.03601500  0.72453400  1
  B  B35  1  0.56289500  0.46398500  0.27546600  1
  B  B36  1  0.04588500  0.50274900  0.88258000  1
  B  B37  1  0.54588500  0.99725100  0.11742000  1
  B  B38  1  0.95411500  0.00274900  0.61742000  1
  B  B39  1  0.45411500  0.49725100  0.38258000  1
  B  B40  1  0.54787900  0.31922200  0.87979000  1
  B  B41  1  0.04787900  0.18077800  0.12021000  1
  B  B42  1  0.45212100  0.81922200  0.62021000  1
  B  B43  1  0.95212100  0.68077800  0.37979000  1
  B  B44  1  0.56888900  0.46387900  0.81115200  1
  B  B45  1  0.06888900  0.03612100  0.18884800  1
  B  B46  1  0.43111100  0.96387900  0.68884800  1
  B  B47  1  0.93111100  0.53612100  0.31115200  1
  B  B48  1  0.80718200  0.65429200  0.80737000  1
  B  B49  1  0.30718200  0.84570800  0.19263000  1
  B  B50  1  0.19281800  0.15429200  0.69263000  1
  B  B51  1  0.69281800  0.34570800  0.30737000  1
  B  B52  1  0.97542500  0.65781000  0.86963900  1
  B  B53  1  0.47542500  0.84219000  0.13036100  1
  B  B54  1  0.02457500  0.15781000  0.63036100  1
  B  B55  1  0.52457500  0.34219000  0.36963900  1
  H  H56  1  0.81890000  0.56397100  0.99669200  1
  H  H57  1  0.31890000  0.93602900  0.00330800  1
  H  H58  1  0.18110000  0.06397100  0.50330800  1
  H  H59  1  0.68110000  0.43602900  0.49669200  1
  H  H60  1  0.98404000  0.45242200  0.96413300  1
  H  H61  1  0.48404000  0.04757800  0.03586700  1
  H  H62  1  0.01596000  0.95242200  0.53586700  1
  H  H63  1  0.51596000  0.54757800  0.46413300  1
  H  H64  1  0.96797700  0.42685000  0.82238200  1
  H  H65  1  0.46797700  0.07315000  0.17761800  1
  H  H66  1  0.03202300  0.92685000  0.67761800  1
  H  H67  1  0.53202300  0.57315000  0.32238200  1
  H  H68  1  0.80835800  0.31164400  0.84324600  1
  H  H69  1  0.30835800  0.18835600  0.15675400  1
  H  H70  1  0.19164200  0.81164400  0.65675400  1
  H  H71  1  0.69164200  0.68835600  0.34324600  1
  H  H72  1  0.76817400  0.30595300  0.98445500  1
  H  H73  1  0.26817400  0.19404700  0.01554500  1
  H  H74  1  0.23182600  0.80595300  0.51554500  1
  H  H75  1  0.73182600  0.69404700  0.48445500  1
  H  H76  1  0.65111600  0.46149600  0.00800500  1
  H  H77  1  0.15111600  0.03850400  0.99199500  1
  H  H78  1  0.34888400  0.96149600  0.49199500  1
  H  H79  1  0.84888400  0.53850400  0.50800500  1
  H  H80  1  0.01962900  0.60179700  0.05920600  1
  H  H81  1  0.51962900  0.89820300  0.94079400  1
  H  H82  1  0.98037100  0.10179700  0.44079400  1
  H  H83  1  0.48037100  0.39820300  0.55920600  1
  H  H84  1  0.77352700  0.75624900  0.98714400  1
  H  H85  1  0.27352700  0.74375100  0.01285600  1
  H  H86  1  0.22647300  0.25624900  0.51285600  1
  H  H87  1  0.72647300  0.24375100  0.48714400  1
  H  H88  1  0.55696200  0.69482500  0.84642500  1
  H  H89  1  0.00404600  0.53151900  0.70004400  1
  H  H90  1  0.05696200  0.80517500  0.15357500  1
  H  H91  1  0.94303800  0.30517500  0.34642500  1
  H  H92  1  0.44569800  0.51956900  0.98226900  1
  H  H93  1  0.94569800  0.98043100  0.01773100  1
  H  H94  1  0.55430200  0.01956900  0.51773100  1
  H  H95  1  0.05430200  0.48043100  0.48226900  1
  H  H96  1  0.58963400  0.28904600  0.07185200  1
  H  H97  1  0.08963400  0.21095400  0.92814800  1
  H  H98  1  0.41036600  0.78904600  0.42814800  1
  H  H99  1  0.91036600  0.71095400  0.57185200  1
  H  H100  1  0.74928500  0.13687600  0.90758800  1
  H  H101  1  0.24928500  0.36312400  0.09241200  1
  H  H102  1  0.25071500  0.63687600  0.59241200  1
  H  H103  1  0.75071500  0.86312400  0.40758800  1
  H  H104  1  0.69795300  0.26613700  0.71826400  1
  H  H105  1  0.19795300  0.23386300  0.28173600  1
  H  H106  1  0.30204700  0.76613700  0.78173600  1
  H  H107  1  0.80204700  0.73386300  0.21826400  1
  H  H108  1  0.70526700  0.53331800  0.66959000  1
  H  H109  1  0.20526700  0.96668200  0.33041000  1
  H  H110  1  0.29473300  0.03331800  0.83041000  1
  H  H111  1  0.79473300  0.46668200  0.16959000  1
  H  H112  1  0.44651100  0.25091500  0.35819700  1
  H  H113  1  0.94651100  0.24908500  0.64180300  1
  H  H114  1  0.55348900  0.75091500  0.14180300  1
  H  H115  1  0.05348900  0.74908500  0.85819700  1
  H  H116  1  0.70722500  0.25174600  0.25601000  1
  H  H117  1  0.20722500  0.24825400  0.74399000  1
  H  H118  1  0.29277500  0.75174600  0.24399000  1
  H  H119  1  0.79277500  0.74825400  0.75601000  1
  H  H120  1  0.03419000  0.51781700  0.25885700  1
  H  H121  1  0.53419000  0.98218300  0.74114300  1
  H  H122  1  0.96581000  0.01781700  0.24114300  1
  H  H123  1  0.46581000  0.48218300  0.75885700  1
  H  H124  1  0.05860700  0.74515800  0.36730700  1
  H  H125  1  0.55860700  0.75484200  0.63269300  1
  H  H126  1  0.94139300  0.24515800  0.13269300  1
  H  H127  1  0.44139300  0.25484200  0.86730700  1
  H  H128  1  0.33052500  0.53212700  0.38198600  1
  H  H129  1  0.83052500  0.96787300  0.61801400  1
  H  H130  1  0.66947500  0.03212700  0.11801400  1
  H  H131  1  0.16947500  0.46787300  0.88198600  1
  H  H132  1  0.49595400  0.46848100  0.20004400  1
  H  H133  1  0.99595400  0.03151900  0.79995600  1
  H  H134  1  0.50404600  0.96848100  0.29995600  1
  H  H135  1  0.44303800  0.19482500  0.65357500  1
