# generated using pymatgen
data_Cs3CoBr5
_symmetry_space_group_name_H-M   'P 1'
_cell_length_a   9.92731800
_cell_length_b   9.92731800
_cell_length_c   15.29548200
_cell_angle_alpha   90.00000000
_cell_angle_beta   90.00000000
_cell_angle_gamma   90.00000000
_symmetry_Int_Tables_number   1
_chemical_formula_structural   Cs3CoBr5
_chemical_formula_sum   'Cs12 Co4 Br20'
_cell_volume   1507.39487658
_cell_formula_units_Z   4
loop_
 _symmetry_equiv_pos_site_id
 _symmetry_equiv_pos_as_xyz
  1  'x, y, z'
loop_
 _atom_site_type_symbol
 _atom_site_label
 _atom_site_symmetry_multiplicity
 _atom_site_fract_x
 _atom_site_fract_y
 _atom_site_fract_z
 _atom_site_occupancy
  Cs  Cs0  1  0.50000000  0.50000000  0.25000000  1
  Cs  Cs1  1  0.83334200  0.33334200  0.00000000  1
  Cs  Cs2  1  0.66665800  0.83334200  0.00000000  1
  Cs  Cs3  1  0.33334200  0.16665800  0.00000000  1
  Cs  Cs4  1  0.16665800  0.66665800  0.00000000  1
  Cs  Cs5  1  0.00000000  0.00000000  0.25000000  1
  Cs  Cs6  1  0.00000000  0.00000000  0.75000000  1
  Cs  Cs7  1  0.33334200  0.83334200  0.50000000  1
  Cs  Cs8  1  0.16665800  0.33334200  0.50000000  1
  Cs  Cs9  1  0.83334200  0.66665800  0.50000000  1
  Cs  Cs10  1  0.66665800  0.16665800  0.50000000  1
  Cs  Cs11  1  0.50000000  0.50000000  0.75000000  1
  Co  Co12  1  0.50000000  0.00000000  0.25000000  1
  Co  Co13  1  0.00000000  0.50000000  0.25000000  1
  Co  Co14  1  0.00000000  0.50000000  0.75000000  1
  Co  Co15  1  0.50000000  0.00000000  0.75000000  1
  Br  Br16  1  0.13710100  0.63710100  0.34366800  1
  Br  Br17  1  0.36289900  0.86289900  0.15633200  1
  Br  Br18  1  0.86289900  0.36289900  0.34366800  1
  Br  Br19  1  0.00000000  0.00000000  0.00000000  1
  Br  Br20  1  0.36289900  0.13710100  0.34366800  1
  Br  Br21  1  0.63710100  0.86289900  0.34366800  1
  Br  Br22  1  0.50000000  0.50000000  0.00000000  1
  Br  Br23  1  0.63710100  0.13710100  0.15633200  1
  Br  Br24  1  0.86289900  0.63710100  0.15633200  1
  Br  Br25  1  0.13710100  0.36289900  0.15633200  1
  Br  Br26  1  0.63710100  0.13710100  0.84366800  1
  Br  Br27  1  0.86289900  0.36289900  0.65633200  1
  Br  Br28  1  0.36289900  0.86289900  0.84366800  1
  Br  Br29  1  0.50000000  0.50000000  0.50000000  1
  Br  Br30  1  0.86289900  0.63710100  0.84366800  1
  Br  Br31  1  0.13710100  0.36289900  0.84366800  1
  Br  Br32  1  0.00000000  0.00000000  0.50000000  1
  Br  Br33  1  0.13710100  0.63710100  0.65633200  1
  Br  Br34  1  0.36289900  0.13710100  0.65633200  1
  Br  Br35  1  0.63710100  0.86289900  0.65633200  1
