# generated using pymatgen
data_NaSn2(PO4)3
_symmetry_space_group_name_H-M   'P 1'
_cell_length_a   8.75521060
_cell_length_b   8.75521060
_cell_length_c   22.55056956
_cell_angle_alpha   90.00000000
_cell_angle_beta   90.00000000
_cell_angle_gamma   120.00000000
_symmetry_Int_Tables_number   1
_chemical_formula_structural   NaSn2(PO4)3
_chemical_formula_sum   'Na6 Sn12 P18 O72'
_cell_volume   1496.99841949
_cell_formula_units_Z   6
loop_
 _symmetry_equiv_pos_site_id
 _symmetry_equiv_pos_as_xyz
  1  'x, y, z'
loop_
 _atom_site_type_symbol
 _atom_site_label
 _atom_site_symmetry_multiplicity
 _atom_site_fract_x
 _atom_site_fract_y
 _atom_site_fract_z
 _atom_site_occupancy
  Na  Na0  1  0.33333333  0.66666667  0.16666667  1
  Na  Na1  1  0.00000000  0.00000000  0.00000000  1
  Na  Na2  1  1.00000000  0.00000000  0.50000000  1
  Na  Na3  1  0.66666667  0.33333333  0.33333333  1
  Na  Na4  1  0.66666667  0.33333333  0.83333333  1
  Na  Na5  1  0.33333333  0.66666667  0.66666667  1
  Sn  Sn6  1  0.00000000  0.00000000  0.14580000  1
  Sn  Sn7  1  0.33333333  0.66666667  0.02086667  1
  Sn  Sn8  1  0.33333333  0.66666667  0.31246667  1
  Sn  Sn9  1  0.66666667  0.33333333  0.18753333  1
  Sn  Sn10  1  0.66666667  0.33333333  0.47913333  1
  Sn  Sn11  1  0.00000000  0.00000000  0.35420000  1
  Sn  Sn12  1  0.00000000  0.00000000  0.64580000  1
  Sn  Sn13  1  0.33333333  0.66666667  0.52086667  1
  Sn  Sn14  1  0.33333333  0.66666667  0.81246667  1
  Sn  Sn15  1  0.66666667  0.33333333  0.68753333  1
  Sn  Sn16  1  0.66666667  0.33333333  0.97913333  1
  Sn  Sn17  1  0.00000000  0.00000000  0.85420000  1
  P  P18  1  0.37384367  0.04051033  0.08333333  1
  P  P19  1  0.66666667  0.62615633  0.08333333  1
  P  P20  1  0.29282300  0.29282300  0.25000000  1
  P  P21  1  0.00000000  0.70717700  0.25000000  1
  P  P22  1  0.95948967  0.33333333  0.08333333  1
  P  P23  1  0.70717700  1.00000000  0.25000000  1
  P  P24  1  0.04051033  0.37384367  0.41666667  1
  P  P25  1  0.33333333  0.95948967  0.41666667  1
  P  P26  1  0.95948967  0.62615633  0.58333333  1
  P  P27  1  0.66666667  0.04051033  0.58333333  1
  P  P28  1  0.62615633  0.66666667  0.41666667  1
  P  P29  1  0.37384367  0.33333333  0.58333333  1
  P  P30  1  0.70717700  0.70717700  0.75000000  1
  P  P31  1  0.00000000  0.29282300  0.75000000  1
  P  P32  1  0.62615633  0.95948967  0.91666667  1
  P  P33  1  0.33333333  0.37384367  0.91666667  1
  P  P34  1  0.29282300  0.00000000  0.75000000  1
  P  P35  1  0.04051033  0.66666667  0.91666667  1
  O  O36  1  0.68846400  0.16672400  0.24772100  1
  O  O37  1  0.47826000  0.31153600  0.24772100  1
  O  O38  1  0.83327600  0.52174000  0.24772100  1
  O  O39  1  0.52174000  0.83327600  0.25227900  1
  O  O40  1  0.31153600  0.47826000  0.25227900  1
  O  O41  1  0.16672400  0.68846400  0.25227900  1
  O  O42  1  0.97820267  0.16660933  0.08561233  1
  O  O43  1  0.18840667  0.02179733  0.08561233  1
  O  O44  1  0.83339067  0.81159333  0.08561233  1
  O  O45  1  0.14492667  0.50005733  0.08105433  1
  O  O46  1  0.35513067  0.85507333  0.08105433  1
  O  O47  1  0.49994267  0.64486933  0.08105433  1
  O  O48  1  0.98043667  0.79286233  0.30687333  1
  O  O49  1  0.20713767  0.18757433  0.30687333  1
  O  O50  1  0.81242567  0.01956333  0.30687333  1
  O  O51  1  0.01956333  0.81242567  0.19312667  1
  O  O52  1  0.18757433  0.20713767  0.19312667  1
  O  O53  1  0.79286233  0.98043667  0.19312667  1
  O  O54  1  0.68623000  0.54047100  0.02646000  1
  O  O55  1  0.45952900  0.14575900  0.02646000  1
  O  O56  1  0.85424100  0.31377000  0.02646000  1
  O  O57  1  0.64710333  0.52090767  0.14020667  1
  O  O58  1  0.47909233  0.12619567  0.14020667  1
  O  O59  1  0.87380433  0.35289667  0.14020667  1
  O  O60  1  0.35513067  0.50005733  0.58105433  1
  O  O61  1  0.14492667  0.64486933  0.58105433  1
  O  O62  1  0.49994267  0.85507333  0.58105433  1
  O  O63  1  0.18840667  0.16660933  0.58561233  1
  O  O64  1  0.97820267  0.81159333  0.58561233  1
  O  O65  1  0.83339067  0.02179733  0.58561233  1
  O  O66  1  0.64486933  0.49994267  0.41894567  1
  O  O67  1  0.85507333  0.35513067  0.41894567  1
  O  O68  1  0.50005733  0.14492667  0.41894567  1
  O  O69  1  0.81159333  0.83339067  0.41438767  1
  O  O70  1  0.02179733  0.18840667  0.41438767  1
  O  O71  1  0.16660933  0.97820267  0.41438767  1
  O  O72  1  0.64710333  0.12619567  0.64020667  1
  O  O73  1  0.87380433  0.52090767  0.64020667  1
  O  O74  1  0.47909233  0.35289667  0.64020667  1
  O  O75  1  0.68623000  0.14575900  0.52646000  1
  O  O76  1  0.85424100  0.54047100  0.52646000  1
  O  O77  1  0.45952900  0.31377000  0.52646000  1
  O  O78  1  0.35289667  0.87380433  0.35979333  1
  O  O79  1  0.12619567  0.47909233  0.35979333  1
  O  O80  1  0.52090767  0.64710333  0.35979333  1
  O  O81  1  0.31377000  0.85424100  0.47354000  1
  O  O82  1  0.14575900  0.45952900  0.47354000  1
  O  O83  1  0.54047100  0.68623000  0.47354000  1
  O  O84  1  0.02179733  0.83339067  0.91438767  1
  O  O85  1  0.81159333  0.97820267  0.91438767  1
  O  O86  1  0.16660933  0.18840667  0.91438767  1
  O  O87  1  0.85507333  0.49994267  0.91894567  1
  O  O88  1  0.64486933  0.14492667  0.91894567  1
  O  O89  1  0.50005733  0.35513067  0.91894567  1
  O  O90  1  0.31153600  0.83327600  0.75227900  1
  O  O91  1  0.52174000  0.68846400  0.75227900  1
  O  O92  1  0.16672400  0.47826000  0.75227900  1
  O  O93  1  0.47826000  0.16672400  0.74772100  1
  O  O94  1  0.68846400  0.52174000  0.74772100  1
  O  O95  1  0.83327600  0.31153600  0.74772100  1
  O  O96  1  0.31377000  0.45952900  0.97354000  1
  O  O97  1  0.54047100  0.85424100  0.97354000  1
  O  O98  1  0.14575900  0.68623000  0.97354000  1
  O  O99  1  0.35289667  0.47909233  0.85979333  1
  O  O100  1  0.52090767  0.87380433  0.85979333  1
  O  O101  1  0.12619567  0.64710333  0.85979333  1
  O  O102  1  0.01956333  0.20713767  0.69312667  1
  O  O103  1  0.79286233  0.81242567  0.69312667  1
  O  O104  1  0.18757433  0.98043667  0.69312667  1
  O  O105  1  0.98043667  0.18757433  0.80687333  1
  O  O106  1  0.81242567  0.79286233  0.80687333  1
  O  O107  1  0.20713767  0.01956333  0.80687333  1
