# generated using pymatgen
data_Ba2BiSbO6
_symmetry_space_group_name_H-M   'P 1'
_cell_length_a   6.14707012
_cell_length_b   6.14707012
_cell_length_c   14.89497598
_cell_angle_alpha   90.00000000
_cell_angle_beta   90.00000000
_cell_angle_gamma   120.00000000
_symmetry_Int_Tables_number   1
_chemical_formula_structural   Ba2BiSbO6
_chemical_formula_sum   'Ba6 Bi3 Sb3 O18'
_cell_volume   487.42384657
_cell_formula_units_Z   3
loop_
 _symmetry_equiv_pos_site_id
 _symmetry_equiv_pos_as_xyz
  1  'x, y, z'
loop_
 _atom_site_type_symbol
 _atom_site_label
 _atom_site_symmetry_multiplicity
 _atom_site_fract_x
 _atom_site_fract_y
 _atom_site_fract_z
 _atom_site_occupancy
  Ba  Ba0  1  0.33333333  0.66666667  0.91796267  1
  Ba  Ba1  1  0.33333333  0.66666667  0.41537067  1
  Ba  Ba2  1  0.00000000  0.00000000  0.25129600  1
  Ba  Ba3  1  0.00000000  0.00000000  0.74870400  1
  Ba  Ba4  1  0.66666667  0.33333333  0.58462933  1
  Ba  Ba5  1  0.66666667  0.33333333  0.08203733  1
  Bi  Bi6  1  0.00000000  0.00000000  0.00000000  1
  Bi  Bi7  1  0.66666667  0.33333333  0.33333333  1
  Bi  Bi8  1  0.33333333  0.66666667  0.66666667  1
  Sb  Sb9  1  0.33333333  0.66666667  0.16666667  1
  Sb  Sb10  1  1.00000000  0.00000000  0.50000000  1
  Sb  Sb11  1  0.66666667  0.33333333  0.83333333  1
  O  O12  1  0.64042567  0.77329533  0.08827833  1
  O  O13  1  0.13286967  0.35957433  0.08827833  1
  O  O14  1  0.22670467  0.86713033  0.08827833  1
  O  O15  1  0.02624100  0.56003800  0.24505500  1
  O  O16  1  0.43996200  0.46620300  0.24505500  1
  O  O17  1  0.53379700  0.97375900  0.24505500  1
  O  O18  1  0.30709233  0.10662867  0.42161167  1
  O  O19  1  0.79953633  0.69290767  0.42161167  1
  O  O20  1  0.89337133  0.20046367  0.42161167  1
  O  O21  1  0.69290767  0.89337133  0.57838833  1
  O  O22  1  0.10662867  0.79953633  0.57838833  1
  O  O23  1  0.20046367  0.30709233  0.57838833  1
  O  O24  1  0.97375900  0.43996200  0.75494500  1
  O  O25  1  0.46620300  0.02624100  0.75494500  1
  O  O26  1  0.56003800  0.53379700  0.75494500  1
  O  O27  1  0.35957433  0.22670467  0.91172167  1
  O  O28  1  0.77329533  0.13286967  0.91172167  1
  O  O29  1  0.86713033  0.64042567  0.91172167  1
