# generated using pymatgen
data_In3SnI5
_symmetry_space_group_name_H-M   'P 1'
_cell_length_a   12.82708400
_cell_length_b   12.87374200
_cell_length_c   17.83981326
_cell_angle_alpha   90.00000000
_cell_angle_beta   100.60750623
_cell_angle_gamma   90.00000000
_symmetry_Int_Tables_number   1
_chemical_formula_structural   In3SnI5
_chemical_formula_sum   'In24 Sn8 I40'
_cell_volume   2895.59185422
_cell_formula_units_Z   8
loop_
 _symmetry_equiv_pos_site_id
 _symmetry_equiv_pos_as_xyz
  1  'x, y, z'
loop_
 _atom_site_type_symbol
 _atom_site_label
 _atom_site_symmetry_multiplicity
 _atom_site_fract_x
 _atom_site_fract_y
 _atom_site_fract_z
 _atom_site_occupancy
  In  In0  1  0.50000000  0.53919800  0.25000000  1
  In  In1  1  0.50000000  0.46080200  0.75000000  1
  In  In2  1  0.63882900  0.89477800  0.25109300  1
  In  In3  1  0.36117100  0.89477800  0.24890700  1
  In  In4  1  0.36117100  0.10522200  0.74890700  1
  In  In5  1  0.63882900  0.10522200  0.75109300  1
  In  In6  1  0.50000000  0.25559800  0.25000000  1
  In  In7  1  0.50000000  0.74440200  0.75000000  1
  In  In8  1  0.32462050  0.11913750  0.47268800  1
  In  In9  1  0.67537950  0.11913750  0.02731200  1
  In  In10  1  0.67537950  0.88086250  0.52731200  1
  In  In11  1  0.32462050  0.88086250  0.97268800  1
  In  In12  1  0.00000000  0.03919800  0.25000000  1
  In  In13  1  0.00000000  0.96080200  0.75000000  1
  In  In14  1  0.13882900  0.39477800  0.25109300  1
  In  In15  1  0.86117100  0.39477800  0.24890700  1
  In  In16  1  0.86117100  0.60522200  0.74890700  1
  In  In17  1  0.13882900  0.60522200  0.75109300  1
  In  In18  1  0.00000000  0.75559800  0.25000000  1
  In  In19  1  0.00000000  0.24440200  0.75000000  1
  In  In20  1  0.82462050  0.61913750  0.47268800  1
  In  In21  1  0.17537950  0.61913750  0.02731200  1
  In  In22  1  0.17537950  0.38086250  0.52731200  1
  In  In23  1  0.82462050  0.38086250  0.97268800  1
  Sn  Sn24  1  0.79719600  0.14333900  0.41414000  1
  Sn  Sn25  1  0.20280400  0.14333900  0.08586000  1
  Sn  Sn26  1  0.20280400  0.85666100  0.58586000  1
  Sn  Sn27  1  0.79719600  0.85666100  0.91414000  1
  Sn  Sn28  1  0.29719600  0.64333900  0.41414000  1
  Sn  Sn29  1  0.70280400  0.64333900  0.08586000  1
  Sn  Sn30  1  0.70280400  0.35666100  0.58586000  1
  Sn  Sn31  1  0.29719600  0.35666100  0.91414000  1
  I  I32  1  0.52616950  0.72246750  0.38659900  1
  I  I33  1  0.47383050  0.72246750  0.11340100  1
  I  I34  1  0.47383050  0.27753250  0.61340100  1
  I  I35  1  0.52616950  0.27753250  0.88659900  1
  I  I36  1  0.74395300  0.14817600  0.23853600  1
  I  I37  1  0.25604700  0.14817600  0.26146400  1
  I  I38  1  0.25604700  0.85182400  0.76146400  1
  I  I39  1  0.74395300  0.85182400  0.73853600  1
  I  I40  1  0.85345300  0.91072900  0.39470600  1
  I  I41  1  0.14654700  0.91072900  0.10529400  1
  I  I42  1  0.14654700  0.08927100  0.60529400  1
  I  I43  1  0.85345300  0.08927100  0.89470600  1
  I  I44  1  0.20768100  0.88558700  0.39638900  1
  I  I45  1  0.79231900  0.88558700  0.10361100  1
  I  I46  1  0.79231900  0.11441300  0.60361100  1
  I  I47  1  0.20768100  0.11441300  0.89638900  1
  I  I48  1  0.55431150  0.06939350  0.39707900  1
  I  I49  1  0.44568850  0.06939350  0.10292100  1
  I  I50  1  0.44568850  0.93060650  0.60292100  1
  I  I51  1  0.55431150  0.93060650  0.89707900  1
  I  I52  1  0.02616950  0.22246750  0.38659900  1
  I  I53  1  0.97383050  0.22246750  0.11340100  1
  I  I54  1  0.97383050  0.77753250  0.61340100  1
  I  I55  1  0.02616950  0.77753250  0.88659900  1
  I  I56  1  0.24395300  0.64817600  0.23853600  1
  I  I57  1  0.75604700  0.64817600  0.26146400  1
  I  I58  1  0.75604700  0.35182400  0.76146400  1
  I  I59  1  0.24395300  0.35182400  0.73853600  1
  I  I60  1  0.35345300  0.41072900  0.39470600  1
  I  I61  1  0.64654700  0.41072900  0.10529400  1
  I  I62  1  0.64654700  0.58927100  0.60529400  1
  I  I63  1  0.35345300  0.58927100  0.89470600  1
  I  I64  1  0.70768100  0.38558700  0.39638900  1
  I  I65  1  0.29231900  0.38558700  0.10361100  1
  I  I66  1  0.29231900  0.61441300  0.60361100  1
  I  I67  1  0.70768100  0.61441300  0.89638900  1
  I  I68  1  0.05431150  0.56939350  0.39707900  1
  I  I69  1  0.94568850  0.56939350  0.10292100  1
  I  I70  1  0.94568850  0.43060650  0.60292100  1
  I  I71  1  0.05431150  0.43060650  0.89707900  1
