# generated using pymatgen
data_K2Sb4O11
_symmetry_space_group_name_H-M   'P 1'
_cell_length_a   19.78665200
_cell_length_b   7.67050000
_cell_length_c   7.29153089
_cell_angle_alpha   90.00000000
_cell_angle_beta   95.15601881
_cell_angle_gamma   90.00000000
_symmetry_Int_Tables_number   1
_chemical_formula_structural   K2Sb4O11
_chemical_formula_sum   'K8 Sb16 O44'
_cell_volume   1102.18335776
_cell_formula_units_Z   4
loop_
 _symmetry_equiv_pos_site_id
 _symmetry_equiv_pos_as_xyz
  1  'x, y, z'
loop_
 _atom_site_type_symbol
 _atom_site_label
 _atom_site_symmetry_multiplicity
 _atom_site_fract_x
 _atom_site_fract_y
 _atom_site_fract_z
 _atom_site_occupancy
  K  K0  1  0.76016400  0.00000000  0.99699800  1
  K  K1  1  0.73983600  0.50000000  0.00300200  1
  K  K2  1  0.98924500  0.00000000  0.73890000  1
  K  K3  1  0.51075500  0.50000000  0.26110000  1
  K  K4  1  0.26016400  0.50000000  0.99699800  1
  K  K5  1  0.23983600  0.00000000  0.00300200  1
  K  K6  1  0.48924500  0.50000000  0.73890000  1
  K  K7  1  0.01075500  0.00000000  0.26110000  1
  Sb  Sb8  1  0.92823700  0.50000000  0.90302800  1
  Sb  Sb9  1  0.57176300  0.00000000  0.09697200  1
  Sb  Sb10  1  0.92410800  0.50000000  0.38366100  1
  Sb  Sb11  1  0.57589200  0.00000000  0.61633900  1
  Sb  Sb12  1  0.82546350  0.24234750  0.56502000  1
  Sb  Sb13  1  0.67453650  0.74234750  0.43498000  1
  Sb  Sb14  1  0.67453650  0.25765250  0.43498000  1
  Sb  Sb15  1  0.82546350  0.75765250  0.56502000  1
  Sb  Sb16  1  0.42823700  0.00000000  0.90302800  1
  Sb  Sb17  1  0.07176300  0.50000000  0.09697200  1
  Sb  Sb18  1  0.42410800  0.00000000  0.38366100  1
  Sb  Sb19  1  0.07589200  0.50000000  0.61633900  1
  Sb  Sb20  1  0.32546350  0.74234750  0.56502000  1
  Sb  Sb21  1  0.17453650  0.24234750  0.43498000  1
  Sb  Sb22  1  0.17453650  0.75765250  0.43498000  1
  Sb  Sb23  1  0.32546350  0.25765250  0.56502000  1
  O  O24  1  0.87047050  0.69799450  0.81324000  1
  O  O25  1  0.62952950  0.19799450  0.18676000  1
  O  O26  1  0.62952950  0.80200550  0.18676000  1
  O  O27  1  0.87047050  0.30200550  0.81324000  1
  O  O28  1  0.73608500  0.71066500  0.66786000  1
  O  O29  1  0.76391500  0.21066500  0.33214000  1
  O  O30  1  0.76391500  0.78933500  0.33214000  1
  O  O31  1  0.73608500  0.28933500  0.66786000  1
  O  O32  1  0.58812200  0.74377800  0.56865700  1
  O  O33  1  0.91187800  0.24377800  0.43134300  1
  O  O34  1  0.91187800  0.75622200  0.43134300  1
  O  O35  1  0.58812200  0.25622200  0.56865700  1
  O  O36  1  0.00000000  0.32744800  0.00000000  1
  O  O37  1  0.00000000  0.67255200  0.00000000  1
  O  O38  1  0.83981800  0.00000000  0.64935000  1
  O  O39  1  0.66018200  0.50000000  0.35065000  1
  O  O40  1  0.61861200  0.00000000  0.86718700  1
  O  O41  1  0.88138800  0.50000000  0.13281300  1
  O  O42  1  0.66687800  0.00000000  0.50996200  1
  O  O43  1  0.83312200  0.50000000  0.49003800  1
  O  O44  1  0.97658200  0.50000000  0.65501800  1
  O  O45  1  0.52341800  0.00000000  0.34498200  1
  O  O46  1  0.37047050  0.19799450  0.81324000  1
  O  O47  1  0.12952950  0.69799450  0.18676000  1
  O  O48  1  0.12952950  0.30200550  0.18676000  1
  O  O49  1  0.37047050  0.80200550  0.81324000  1
  O  O50  1  0.23608500  0.21066500  0.66786000  1
  O  O51  1  0.26391500  0.71066500  0.33214000  1
  O  O52  1  0.26391500  0.28933500  0.33214000  1
  O  O53  1  0.23608500  0.78933500  0.66786000  1
  O  O54  1  0.08812200  0.24377800  0.56865700  1
  O  O55  1  0.41187800  0.74377800  0.43134300  1
  O  O56  1  0.41187800  0.25622200  0.43134300  1
  O  O57  1  0.08812200  0.75622200  0.56865700  1
  O  O58  1  0.50000000  0.82744800  0.00000000  1
  O  O59  1  0.50000000  0.17255200  0.00000000  1
  O  O60  1  0.33981800  0.50000000  0.64935000  1
  O  O61  1  0.16018200  0.00000000  0.35065000  1
  O  O62  1  0.11861200  0.50000000  0.86718700  1
  O  O63  1  0.38138800  0.00000000  0.13281300  1
  O  O64  1  0.16687800  0.50000000  0.50996200  1
  O  O65  1  0.33312200  0.00000000  0.49003800  1
  O  O66  1  0.47658200  0.00000000  0.65501800  1
  O  O67  1  0.02341800  0.50000000  0.34498200  1
