# generated using pymatgen
data_PbS
_symmetry_space_group_name_H-M   'P 1'
_cell_length_a   6.01116000
_cell_length_b   6.02296000
_cell_length_c   11.37018900
_cell_angle_alpha   90.00000000
_cell_angle_beta   90.00000000
_cell_angle_gamma   90.00000000
_symmetry_Int_Tables_number   1
_chemical_formula_structural   PbS
_chemical_formula_sum   'Pb4 S4'
_cell_volume   411.65742252
_cell_formula_units_Z   4
loop_
 _symmetry_equiv_pos_site_id
 _symmetry_equiv_pos_as_xyz
  1  'x, y, z'
loop_
 _atom_site_type_symbol
 _atom_site_label
 _atom_site_symmetry_multiplicity
 _atom_site_fract_x
 _atom_site_fract_y
 _atom_site_fract_z
 _atom_site_occupancy
  Pb  Pb0  1  0.25000000  0.00368500  0.62510100  1
  Pb  Pb1  1  0.75000000  0.00368500  0.37489900  1
  Pb  Pb2  1  0.75000000  0.50368500  0.62510100  1
  Pb  Pb3  1  0.25000000  0.50368500  0.37489900  1
  S  S4  1  0.75000000  0.01731500  0.61206200  1
  S  S5  1  0.25000000  0.01731500  0.38793800  1
  S  S6  1  0.25000000  0.51731500  0.61206200  1
  S  S7  1  0.75000000  0.51731500  0.38793800  1
