# generated using pymatgen
data_Ba(TeO3)2
_symmetry_space_group_name_H-M   'P 1'
_cell_length_a   5.66291800
_cell_length_b   13.13229800
_cell_length_c   7.46171600
_cell_angle_alpha   90.00000000
_cell_angle_beta   90.00000000
_cell_angle_gamma   90.00000000
_symmetry_Int_Tables_number   1
_chemical_formula_structural   Ba(TeO3)2
_chemical_formula_sum   'Ba4 Te8 O24'
_cell_volume   554.90637936
_cell_formula_units_Z   4
loop_
 _symmetry_equiv_pos_site_id
 _symmetry_equiv_pos_as_xyz
  1  'x, y, z'
loop_
 _atom_site_type_symbol
 _atom_site_label
 _atom_site_symmetry_multiplicity
 _atom_site_fract_x
 _atom_site_fract_y
 _atom_site_fract_z
 _atom_site_occupancy
  Ba  Ba0  1  0.00000000  0.27792300  0.25000000  1
  Ba  Ba1  1  0.50000000  0.22207700  0.75000000  1
  Ba  Ba2  1  0.50000000  0.77792300  0.25000000  1
  Ba  Ba3  1  0.00000000  0.72207700  0.75000000  1
  Te  Te4  1  0.00000000  0.00000000  0.50000000  1
  Te  Te5  1  0.00000000  0.00000000  0.00000000  1
  Te  Te6  1  0.00000000  0.41520900  0.75000000  1
  Te  Te7  1  0.50000000  0.08479100  0.25000000  1
  Te  Te8  1  0.50000000  0.50000000  0.50000000  1
  Te  Te9  1  0.50000000  0.50000000  0.00000000  1
  Te  Te10  1  0.50000000  0.91520900  0.75000000  1
  Te  Te11  1  0.00000000  0.58479100  0.25000000  1
  O  O12  1  0.26336900  0.39494600  0.54475400  1
  O  O13  1  0.76336900  0.10505400  0.45524600  1
  O  O14  1  0.23663100  0.10505400  0.04475400  1
  O  O15  1  0.73663100  0.39494600  0.95524600  1
  O  O16  1  0.23663100  0.10505400  0.45524600  1
  O  O17  1  0.73663100  0.39494600  0.54475400  1
  O  O18  1  0.50000000  0.45158400  0.25000000  1
  O  O19  1  0.00000000  0.04841600  0.75000000  1
  O  O20  1  0.50000000  0.22591100  0.25000000  1
  O  O21  1  0.00000000  0.27408900  0.75000000  1
  O  O22  1  0.76336900  0.10505400  0.04475400  1
  O  O23  1  0.26336900  0.39494600  0.95524600  1
  O  O24  1  0.76336900  0.89494600  0.54475400  1
  O  O25  1  0.26336900  0.60505400  0.45524600  1
  O  O26  1  0.73663100  0.60505400  0.04475400  1
  O  O27  1  0.23663100  0.89494600  0.95524600  1
  O  O28  1  0.73663100  0.60505400  0.45524600  1
  O  O29  1  0.23663100  0.89494600  0.54475400  1
  O  O30  1  0.00000000  0.95158400  0.25000000  1
  O  O31  1  0.50000000  0.54841600  0.75000000  1
  O  O32  1  0.00000000  0.72591100  0.25000000  1
  O  O33  1  0.50000000  0.77408900  0.75000000  1
  O  O34  1  0.26336900  0.60505400  0.04475400  1
  O  O35  1  0.76336900  0.89494600  0.95524600  1
