# generated using pymatgen
data_Hg2PCl2
_symmetry_space_group_name_H-M   'P 1'
_cell_length_a   8.88849600
_cell_length_b   8.16637000
_cell_length_c   7.74659249
_cell_angle_alpha   90.00000000
_cell_angle_beta   116.57731946
_cell_angle_gamma   90.00000000
_symmetry_Int_Tables_number   1
_chemical_formula_structural   Hg2PCl2
_chemical_formula_sum   'Hg8 P4 Cl8'
_cell_volume   502.88250809
_cell_formula_units_Z   4
loop_
 _symmetry_equiv_pos_site_id
 _symmetry_equiv_pos_as_xyz
  1  'x, y, z'
loop_
 _atom_site_type_symbol
 _atom_site_label
 _atom_site_symmetry_multiplicity
 _atom_site_fract_x
 _atom_site_fract_y
 _atom_site_fract_z
 _atom_site_occupancy
  Hg  Hg0  1  0.25000000  0.75000000  0.00000000  1
  Hg  Hg1  1  0.75000000  0.75000000  0.00000000  1
  Hg  Hg2  1  0.20665700  0.50000000  0.42837400  1
  Hg  Hg3  1  0.79334300  0.50000000  0.57162600  1
  Hg  Hg4  1  0.75000000  0.25000000  0.00000000  1
  Hg  Hg5  1  0.25000000  0.25000000  0.00000000  1
  Hg  Hg6  1  0.70665700  0.00000000  0.42837400  1
  Hg  Hg7  1  0.29334300  0.00000000  0.57162600  1
  P  P8  1  0.13814100  0.50000000  0.08425500  1
  P  P9  1  0.86185900  0.50000000  0.91574500  1
  P  P10  1  0.63814100  0.00000000  0.08425500  1
  P  P11  1  0.36185900  0.00000000  0.91574500  1
  Cl  Cl12  1  0.00000000  0.27738400  0.50000000  1
  Cl  Cl13  1  0.00000000  0.72261600  0.50000000  1
  Cl  Cl14  1  0.60755000  0.50000000  0.22116900  1
  Cl  Cl15  1  0.39245000  0.50000000  0.77883100  1
  Cl  Cl16  1  0.50000000  0.77738400  0.50000000  1
  Cl  Cl17  1  0.50000000  0.22261600  0.50000000  1
  Cl  Cl18  1  0.10755000  0.00000000  0.22116900  1
  Cl  Cl19  1  0.89245000  0.00000000  0.77883100  1
