# generated using pymatgen
data_Pb2SO5
_symmetry_space_group_name_H-M   'P 1'
_cell_length_a   13.96864800
_cell_length_b   5.81083200
_cell_length_c   7.18367635
_cell_angle_alpha   90.00000000
_cell_angle_beta   114.88688108
_cell_angle_gamma   90.00000000
_symmetry_Int_Tables_number   1
_chemical_formula_structural   Pb2SO5
_chemical_formula_sum   'Pb8 S4 O20'
_cell_volume   528.94919083
_cell_formula_units_Z   4
loop_
 _symmetry_equiv_pos_site_id
 _symmetry_equiv_pos_as_xyz
  1  'x, y, z'
loop_
 _atom_site_type_symbol
 _atom_site_label
 _atom_site_symmetry_multiplicity
 _atom_site_fract_x
 _atom_site_fract_y
 _atom_site_fract_z
 _atom_site_occupancy
  Pb  Pb0  1  0.47475100  0.00000000  0.73106800  1
  Pb  Pb1  1  0.02524900  0.50000000  0.26893200  1
  Pb  Pb2  1  0.35439500  0.50000000  0.89900900  1
  Pb  Pb3  1  0.14560500  0.00000000  0.10099100  1
  Pb  Pb4  1  0.97475100  0.50000000  0.73106800  1
  Pb  Pb5  1  0.52524900  0.00000000  0.26893200  1
  Pb  Pb6  1  0.85439500  0.00000000  0.89900900  1
  Pb  Pb7  1  0.64560500  0.50000000  0.10099100  1
  S  S8  1  0.17242300  0.00000000  0.65703500  1
  S  S9  1  0.32757700  0.50000000  0.34296500  1
  S  S10  1  0.67242300  0.50000000  0.65703500  1
  S  S11  1  0.82757700  0.00000000  0.34296500  1
  O  O12  1  0.00000000  0.74736300  0.00000000  1
  O  O13  1  0.00000000  0.25263700  0.00000000  1
  O  O14  1  0.28865700  0.00000000  0.71238500  1
  O  O15  1  0.21134300  0.50000000  0.28761500  1
  O  O16  1  0.35356950  0.29015050  0.25234400  1
  O  O17  1  0.14643050  0.79015050  0.74765600  1
  O  O18  1  0.11093800  0.00000000  0.42929300  1
  O  O19  1  0.38906200  0.50000000  0.57070700  1
  O  O20  1  0.35356950  0.70984950  0.25234400  1
  O  O21  1  0.14643050  0.20984950  0.74765600  1
  O  O22  1  0.50000000  0.24736300  0.00000000  1
  O  O23  1  0.50000000  0.75263700  0.00000000  1
  O  O24  1  0.78865700  0.50000000  0.71238500  1
  O  O25  1  0.71134300  0.00000000  0.28761500  1
  O  O26  1  0.85356950  0.79015050  0.25234400  1
  O  O27  1  0.64643050  0.29015050  0.74765600  1
  O  O28  1  0.61093800  0.50000000  0.42929300  1
  O  O29  1  0.88906200  0.00000000  0.57070700  1
  O  O30  1  0.85356950  0.20984950  0.25234400  1
  O  O31  1  0.64643050  0.70984950  0.74765600  1
