# generated using pymatgen
data_Hg3AsClO4
_symmetry_space_group_name_H-M   'P 1'
_cell_length_a   8.64546900
_cell_length_b   8.64546900
_cell_length_c   8.64546900
_cell_angle_alpha   90.00000000
_cell_angle_beta   90.00000000
_cell_angle_gamma   90.00000000
_symmetry_Int_Tables_number   1
_chemical_formula_structural   Hg3AsClO4
_chemical_formula_sum   'Hg12 As4 Cl4 O16'
_cell_volume   646.19809542
_cell_formula_units_Z   4
loop_
 _symmetry_equiv_pos_site_id
 _symmetry_equiv_pos_as_xyz
  1  'x, y, z'
loop_
 _atom_site_type_symbol
 _atom_site_label
 _atom_site_symmetry_multiplicity
 _atom_site_fract_x
 _atom_site_fract_y
 _atom_site_fract_z
 _atom_site_occupancy
  Hg  Hg0  1  0.55105200  0.89753000  0.85351200  1
  Hg  Hg1  1  0.60247000  0.14648800  0.05105200  1
  Hg  Hg2  1  0.89753000  0.85351200  0.55105200  1
  Hg  Hg3  1  0.14648800  0.05105200  0.60247000  1
  Hg  Hg4  1  0.10247000  0.35351200  0.94894800  1
  Hg  Hg5  1  0.05105200  0.60247000  0.14648800  1
  Hg  Hg6  1  0.35351200  0.94894800  0.10247000  1
  Hg  Hg7  1  0.94894800  0.10247000  0.35351200  1
  Hg  Hg8  1  0.85351200  0.55105200  0.89753000  1
  Hg  Hg9  1  0.64648800  0.44894800  0.39753000  1
  Hg  Hg10  1  0.44894800  0.39753000  0.64648800  1
  Hg  Hg11  1  0.39753000  0.64648800  0.44894800  1
  As  As12  1  0.02027900  0.47972100  0.52027900  1
  As  As13  1  0.52027900  0.02027900  0.47972100  1
  As  As14  1  0.97972100  0.97972100  0.97972100  1
  As  As15  1  0.47972100  0.52027900  0.02027900  1
  Cl  Cl16  1  0.22664400  0.22664400  0.22664400  1
  Cl  Cl17  1  0.27335600  0.77335600  0.72664400  1
  Cl  Cl18  1  0.72664400  0.27335600  0.77335600  1
  Cl  Cl19  1  0.77335600  0.72664400  0.27335600  1
  O  O20  1  0.39950600  0.89899800  0.37219600  1
  O  O21  1  0.89950600  0.60100200  0.62780400  1
  O  O22  1  0.60049400  0.39899800  0.12780400  1
  O  O23  1  0.60100200  0.62780400  0.89950600  1
  O  O24  1  0.12780400  0.60049400  0.39899800  1
  O  O25  1  0.62780400  0.89950600  0.60100200  1
  O  O26  1  0.89899800  0.37219600  0.39950600  1
  O  O27  1  0.37219600  0.39950600  0.89899800  1
  O  O28  1  0.39899800  0.12780400  0.60049400  1
  O  O29  1  0.10049400  0.10100200  0.87219600  1
  O  O30  1  0.87219600  0.10049400  0.10100200  1
  O  O31  1  0.13429600  0.36570400  0.63429600  1
  O  O32  1  0.36570400  0.63429600  0.13429600  1
  O  O33  1  0.63429600  0.13429600  0.36570400  1
  O  O34  1  0.86570400  0.86570400  0.86570400  1
  O  O35  1  0.10100200  0.87219600  0.10049400  1
