# generated using pymatgen
data_ErSeF
_symmetry_space_group_name_H-M   'P 1'
_cell_length_a   4.07901200
_cell_length_b   9.95609900
_cell_length_c   18.87984000
_cell_angle_alpha   90.00000000
_cell_angle_beta   90.00000000
_cell_angle_gamma   90.00000000
_symmetry_Int_Tables_number   1
_chemical_formula_structural   ErSeF
_chemical_formula_sum   'Er12 Se12 F12'
_cell_volume   766.73007515
_cell_formula_units_Z   12
loop_
 _symmetry_equiv_pos_site_id
 _symmetry_equiv_pos_as_xyz
  1  'x, y, z'
loop_
 _atom_site_type_symbol
 _atom_site_label
 _atom_site_symmetry_multiplicity
 _atom_site_fract_x
 _atom_site_fract_y
 _atom_site_fract_z
 _atom_site_occupancy
  Er  Er0  1  0.25000000  0.25676500  0.74051000  1
  Er  Er1  1  0.75000000  0.74323500  0.25949000  1
  Er  Er2  1  0.25000000  0.75676500  0.75949000  1
  Er  Er3  1  0.75000000  0.24323500  0.24051000  1
  Er  Er4  1  0.25000000  0.07666500  0.08141200  1
  Er  Er5  1  0.75000000  0.92333500  0.91858800  1
  Er  Er6  1  0.25000000  0.57666500  0.41858800  1
  Er  Er7  1  0.75000000  0.42333500  0.58141200  1
  Er  Er8  1  0.25000000  0.09086400  0.41677300  1
  Er  Er9  1  0.75000000  0.90913600  0.58322700  1
  Er  Er10  1  0.25000000  0.59086400  0.08322700  1
  Er  Er11  1  0.75000000  0.40913600  0.91677300  1
  Se  Se12  1  0.75000000  0.16507500  0.84168800  1
  Se  Se13  1  0.25000000  0.83492500  0.15831200  1
  Se  Se14  1  0.75000000  0.66507500  0.65831200  1
  Se  Se15  1  0.25000000  0.33492500  0.34168800  1
  Se  Se16  1  0.75000000  0.16581200  0.51388900  1
  Se  Se17  1  0.25000000  0.83418800  0.48611100  1
  Se  Se18  1  0.75000000  0.66581200  0.98611100  1
  Se  Se19  1  0.25000000  0.33418800  0.01388900  1
  Se  Se20  1  0.75000000  0.50397000  0.17738000  1
  Se  Se21  1  0.25000000  0.49603000  0.82262000  1
  Se  Se22  1  0.75000000  0.00397000  0.32262000  1
  Se  Se23  1  0.25000000  0.99603000  0.67738000  1
  F  F24  1  0.25000000  0.20154900  0.19464400  1
  F  F25  1  0.75000000  0.79845100  0.80535600  1
  F  F26  1  0.25000000  0.70154900  0.30535600  1
  F  F27  1  0.75000000  0.29845100  0.69464400  1
  F  F28  1  0.25000000  0.86987500  0.86213700  1
  F  F29  1  0.75000000  0.13012500  0.13786300  1
  F  F30  1  0.25000000  0.36987500  0.63786300  1
  F  F31  1  0.75000000  0.63012500  0.36213700  1
  F  F32  1  0.25000000  0.97332800  0.97316400  1
  F  F33  1  0.75000000  0.02667200  0.02683600  1
  F  F34  1  0.25000000  0.47332800  0.52683600  1
  F  F35  1  0.75000000  0.52667200  0.47316400  1
