# generated using pymatgen
data_ZnPb2F6
_symmetry_space_group_name_H-M   'P 1'
_cell_length_a   5.74181000
_cell_length_b   5.74181000
_cell_length_c   16.40590600
_cell_angle_alpha   90.00000000
_cell_angle_beta   90.00000000
_cell_angle_gamma   90.00000000
_symmetry_Int_Tables_number   1
_chemical_formula_structural   ZnPb2F6
_chemical_formula_sum   'Zn4 Pb8 F24'
_cell_volume   540.87617731
_cell_formula_units_Z   4
loop_
 _symmetry_equiv_pos_site_id
 _symmetry_equiv_pos_as_xyz
  1  'x, y, z'
loop_
 _atom_site_type_symbol
 _atom_site_label
 _atom_site_symmetry_multiplicity
 _atom_site_fract_x
 _atom_site_fract_y
 _atom_site_fract_z
 _atom_site_occupancy
  Zn  Zn0  1  0.75000000  0.25000000  0.25000000  1
  Zn  Zn1  1  0.25000000  0.25000000  0.75000000  1
  Zn  Zn2  1  0.75000000  0.75000000  0.75000000  1
  Zn  Zn3  1  0.25000000  0.75000000  0.25000000  1
  Pb  Pb4  1  0.26184300  0.76184300  0.59278400  1
  Pb  Pb5  1  0.73815700  0.23815700  0.59278400  1
  Pb  Pb6  1  0.76184300  0.26184300  0.90721600  1
  Pb  Pb7  1  0.26184300  0.23815700  0.09278400  1
  Pb  Pb8  1  0.73815700  0.76184300  0.09278400  1
  Pb  Pb9  1  0.23815700  0.26184300  0.40721600  1
  Pb  Pb10  1  0.76184300  0.73815700  0.40721600  1
  Pb  Pb11  1  0.23815700  0.73815700  0.90721600  1
  F  F12  1  0.00000000  0.50000000  0.50833100  1
  F  F13  1  0.00000000  0.50000000  0.00833100  1
  F  F14  1  0.50000000  0.00000000  0.49166900  1
  F  F15  1  0.50000000  0.00000000  0.99166900  1
  F  F16  1  0.00000000  0.00000000  0.00000000  1
  F  F17  1  0.50000000  0.50000000  0.50000000  1
  F  F18  1  0.50000000  0.50000000  0.00000000  1
  F  F19  1  0.00000000  0.00000000  0.50000000  1
  F  F20  1  0.00000000  0.50000000  0.71019000  1
  F  F21  1  0.00000000  0.50000000  0.21019000  1
  F  F22  1  0.50000000  0.00000000  0.28981000  1
  F  F23  1  0.50000000  0.00000000  0.78981000  1
  F  F24  1  0.31311600  0.81311600  0.13056300  1
  F  F25  1  0.68688400  0.81311600  0.63056300  1
  F  F26  1  0.31311600  0.18688400  0.63056300  1
  F  F27  1  0.81311600  0.68688400  0.86943700  1
  F  F28  1  0.18688400  0.31311600  0.86943700  1
  F  F29  1  0.68688400  0.18688400  0.13056300  1
  F  F30  1  0.81311600  0.31311600  0.36943700  1
  F  F31  1  0.18688400  0.68688400  0.36943700  1
  F  F32  1  0.00000000  0.00000000  0.75000000  1
  F  F33  1  0.50000000  0.50000000  0.25000000  1
  F  F34  1  0.50000000  0.50000000  0.75000000  1
  F  F35  1  0.00000000  0.00000000  0.25000000  1
