# generated using pymatgen
data_Sr(C2N3)2
_symmetry_space_group_name_H-M   'P 1'
_cell_length_a   13.06556000
_cell_length_b   6.33518800
_cell_length_c   8.34308496
_cell_angle_alpha   90.00000000
_cell_angle_beta   97.38327886
_cell_angle_gamma   90.00000000
_symmetry_Int_Tables_number   1
_chemical_formula_structural   Sr(C2N3)2
_chemical_formula_sum   'Sr4 C16 N24'
_cell_volume   684.85452328
_cell_formula_units_Z   4
loop_
 _symmetry_equiv_pos_site_id
 _symmetry_equiv_pos_as_xyz
  1  'x, y, z'
loop_
 _atom_site_type_symbol
 _atom_site_label
 _atom_site_symmetry_multiplicity
 _atom_site_fract_x
 _atom_site_fract_y
 _atom_site_fract_z
 _atom_site_occupancy
  Sr  Sr0  1  0.00000000  0.90841200  0.25000000  1
  Sr  Sr1  1  0.00000000  0.09158800  0.75000000  1
  Sr  Sr2  1  0.50000000  0.40841200  0.25000000  1
  Sr  Sr3  1  0.50000000  0.59158800  0.75000000  1
  C  C4  1  0.91215800  0.38049300  0.09107200  1
  C  C5  1  0.58784200  0.88049300  0.40892800  1
  C  C6  1  0.77360650  0.47271150  0.68745600  1
  C  C7  1  0.72639350  0.97271150  0.81254400  1
  C  C8  1  0.72639350  0.02728850  0.31254400  1
  C  C9  1  0.77360650  0.52728850  0.18745600  1
  C  C10  1  0.91215800  0.61950700  0.59107200  1
  C  C11  1  0.58784200  0.11950700  0.90892800  1
  C  C12  1  0.41215800  0.88049300  0.09107200  1
  C  C13  1  0.08784200  0.38049300  0.40892800  1
  C  C14  1  0.27360650  0.97271150  0.68745600  1
  C  C15  1  0.22639350  0.47271150  0.81254400  1
  C  C16  1  0.22639350  0.52728850  0.31254400  1
  C  C17  1  0.27360650  0.02728850  0.18745600  1
  C  C18  1  0.41215800  0.11950700  0.59107200  1
  C  C19  1  0.08784200  0.61950700  0.90892800  1
  N  N20  1  0.54060550  0.74463050  0.46359200  1
  N  N21  1  0.95939450  0.24463050  0.03640800  1
  N  N22  1  0.86871000  0.46122300  0.65410400  1
  N  N23  1  0.63129000  0.96122300  0.84589600  1
  N  N24  1  0.63129000  0.03877700  0.34589600  1
  N  N25  1  0.86871000  0.53877700  0.15410400  1
  N  N26  1  0.68924650  0.46967750  0.72239800  1
  N  N27  1  0.81075350  0.96967750  0.77760200  1
  N  N28  1  0.81075350  0.03032250  0.27760200  1
  N  N29  1  0.68924650  0.53032250  0.22239800  1
  N  N30  1  0.95939450  0.75536950  0.53640800  1
  N  N31  1  0.54060550  0.25536950  0.96359200  1
  N  N32  1  0.04060550  0.24463050  0.46359200  1
  N  N33  1  0.45939450  0.74463050  0.03640800  1
  N  N34  1  0.36871000  0.96122300  0.65410400  1
  N  N35  1  0.13129000  0.46122300  0.84589600  1
  N  N36  1  0.13129000  0.53877700  0.34589600  1
  N  N37  1  0.36871000  0.03877700  0.15410400  1
  N  N38  1  0.18924650  0.96967750  0.72239800  1
  N  N39  1  0.31075350  0.46967750  0.77760200  1
  N  N40  1  0.31075350  0.53032250  0.27760200  1
  N  N41  1  0.18924650  0.03032250  0.22239800  1
  N  N42  1  0.45939450  0.25536950  0.53640800  1
  N  N43  1  0.04060550  0.75536950  0.96359200  1
