# generated using pymatgen
data_Na3In2(AsO4)3
_symmetry_space_group_name_H-M   'P 1'
_cell_length_a   12.80339000
_cell_length_b   13.43979400
_cell_length_c   6.97385986
_cell_angle_alpha   90.00000000
_cell_angle_beta   113.89466536
_cell_angle_gamma   90.00000000
_symmetry_Int_Tables_number   1
_chemical_formula_structural   Na3In2(AsO4)3
_chemical_formula_sum   'Na12 In8 As12 O48'
_cell_volume   1097.17415071
_cell_formula_units_Z   4
loop_
 _symmetry_equiv_pos_site_id
 _symmetry_equiv_pos_as_xyz
  1  'x, y, z'
loop_
 _atom_site_type_symbol
 _atom_site_label
 _atom_site_symmetry_multiplicity
 _atom_site_fract_x
 _atom_site_fract_y
 _atom_site_fract_z
 _atom_site_occupancy
  Na  Na0  1  0.50000000  0.00000000  0.00000000  1
  Na  Na1  1  0.50000000  0.22404100  0.75000000  1
  Na  Na2  1  0.50000000  0.49535700  0.75000000  1
  Na  Na3  1  0.50000000  0.50464300  0.25000000  1
  Na  Na4  1  0.50000000  0.77595900  0.25000000  1
  Na  Na5  1  0.50000000  0.00000000  0.50000000  1
  Na  Na6  1  0.00000000  0.50000000  0.00000000  1
  Na  Na7  1  0.00000000  0.72404100  0.75000000  1
  Na  Na8  1  0.00000000  0.99535700  0.75000000  1
  Na  Na9  1  0.00000000  0.00464300  0.25000000  1
  Na  Na10  1  0.00000000  0.27595900  0.25000000  1
  Na  Na11  1  0.00000000  0.50000000  0.50000000  1
  In  In12  1  0.77762200  0.84366000  0.85458900  1
  In  In13  1  0.77762200  0.15634000  0.35458900  1
  In  In14  1  0.22237800  0.15634000  0.14541100  1
  In  In15  1  0.22237800  0.84366000  0.64541100  1
  In  In16  1  0.27762200  0.34366000  0.85458900  1
  In  In17  1  0.27762200  0.65634000  0.35458900  1
  In  In18  1  0.72237800  0.65634000  0.14541100  1
  In  In19  1  0.72237800  0.34366000  0.64541100  1
  As  As20  1  0.23928100  0.89657400  0.13226600  1
  As  As21  1  0.50000000  0.77654600  0.75000000  1
  As  As22  1  0.23928100  0.10342600  0.63226600  1
  As  As23  1  0.50000000  0.22345400  0.25000000  1
  As  As24  1  0.76071900  0.10342600  0.86773400  1
  As  As25  1  0.76071900  0.89657400  0.36773400  1
  As  As26  1  0.73928100  0.39657400  0.13226600  1
  As  As27  1  0.00000000  0.27654600  0.75000000  1
  As  As28  1  0.73928100  0.60342600  0.63226600  1
  As  As29  1  0.00000000  0.72345400  0.25000000  1
  As  As30  1  0.26071900  0.60342600  0.86773400  1
  As  As31  1  0.26071900  0.39657400  0.36773400  1
  O  O32  1  0.84188550  0.00321750  0.38520200  1
  O  O33  1  0.83379300  0.16532600  0.10162000  1
  O  O34  1  0.15811450  0.00321750  0.11479800  1
  O  O35  1  0.16620700  0.16532600  0.39838000  1
  O  O36  1  0.54681400  0.70189700  0.96970300  1
  O  O37  1  0.37676050  0.92056250  0.18219100  1
  O  O38  1  0.76949600  0.82161800  0.16891400  1
  O  O39  1  0.83379300  0.83467400  0.60162000  1
  O  O40  1  0.23050400  0.82161800  0.33108600  1
  O  O41  1  0.40317200  0.14058900  0.27580600  1
  O  O42  1  0.23050400  0.17838200  0.83108600  1
  O  O43  1  0.59682800  0.14058900  0.22419400  1
  O  O44  1  0.15811450  0.99678250  0.61479800  1
  O  O45  1  0.76949600  0.17838200  0.66891400  1
  O  O46  1  0.62323950  0.07943750  0.81780900  1
  O  O47  1  0.40317200  0.85941100  0.77580600  1
  O  O48  1  0.54681400  0.29810300  0.46970300  1
  O  O49  1  0.45318600  0.70189700  0.53029700  1
  O  O50  1  0.16620700  0.83467400  0.89838000  1
  O  O51  1  0.37676050  0.07943750  0.68219100  1
  O  O52  1  0.59682800  0.85941100  0.72419400  1
  O  O53  1  0.84188550  0.99678250  0.88520200  1
  O  O54  1  0.45318600  0.29810300  0.03029700  1
  O  O55  1  0.62323950  0.92056250  0.31780900  1
  O  O56  1  0.34188550  0.50321750  0.38520200  1
  O  O57  1  0.33379300  0.66532600  0.10162000  1
  O  O58  1  0.65811450  0.50321750  0.11479800  1
  O  O59  1  0.66620700  0.66532600  0.39838000  1
  O  O60  1  0.04681400  0.20189700  0.96970300  1
  O  O61  1  0.87676050  0.42056250  0.18219100  1
  O  O62  1  0.26949600  0.32161800  0.16891400  1
  O  O63  1  0.33379300  0.33467400  0.60162000  1
  O  O64  1  0.73050400  0.32161800  0.33108600  1
  O  O65  1  0.90317200  0.64058900  0.27580600  1
  O  O66  1  0.73050400  0.67838200  0.83108600  1
  O  O67  1  0.09682800  0.64058900  0.22419400  1
  O  O68  1  0.65811450  0.49678250  0.61479800  1
  O  O69  1  0.26949600  0.67838200  0.66891400  1
  O  O70  1  0.12323950  0.57943750  0.81780900  1
  O  O71  1  0.90317200  0.35941100  0.77580600  1
  O  O72  1  0.04681400  0.79810300  0.46970300  1
  O  O73  1  0.95318600  0.20189700  0.53029700  1
  O  O74  1  0.66620700  0.33467400  0.89838000  1
  O  O75  1  0.87676050  0.57943750  0.68219100  1
  O  O76  1  0.09682800  0.35941100  0.72419400  1
  O  O77  1  0.34188550  0.49678250  0.88520200  1
  O  O78  1  0.95318600  0.79810300  0.03029700  1
  O  O79  1  0.12323950  0.42056250  0.31780900  1
