# generated using pymatgen
data_ThBr4
_symmetry_space_group_name_H-M   'P 1'
_cell_length_a   9.02882800
_cell_length_b   9.02882800
_cell_length_c   8.25525200
_cell_angle_alpha   90.00000000
_cell_angle_beta   90.00000000
_cell_angle_gamma   90.00000000
_symmetry_Int_Tables_number   1
_chemical_formula_structural   ThBr4
_chemical_formula_sum   'Th4 Br16'
_cell_volume   672.96595584
_cell_formula_units_Z   4
loop_
 _symmetry_equiv_pos_site_id
 _symmetry_equiv_pos_as_xyz
  1  'x, y, z'
loop_
 _atom_site_type_symbol
 _atom_site_label
 _atom_site_symmetry_multiplicity
 _atom_site_fract_x
 _atom_site_fract_y
 _atom_site_fract_z
 _atom_site_occupancy
  Th  Th0  1  0.50000000  0.50000000  0.50000000  1
  Th  Th1  1  0.50000000  0.00000000  0.25000000  1
  Th  Th2  1  0.00000000  0.00000000  0.00000000  1
  Th  Th3  1  0.00000000  0.50000000  0.75000000  1
  Br  Br4  1  0.00000000  0.81376000  0.68019800  1
  Br  Br5  1  0.68624000  0.00000000  0.93019800  1
  Br  Br6  1  0.81376000  0.00000000  0.31980200  1
  Br  Br7  1  0.50000000  0.18624000  0.56980200  1
  Br  Br8  1  0.00000000  0.31376000  0.06980200  1
  Br  Br9  1  0.18624000  0.00000000  0.31980200  1
  Br  Br10  1  0.00000000  0.18624000  0.68019800  1
  Br  Br11  1  0.81376000  0.50000000  0.43019800  1
  Br  Br12  1  0.50000000  0.31376000  0.18019800  1
  Br  Br13  1  0.18624000  0.50000000  0.43019800  1
  Br  Br14  1  0.31376000  0.50000000  0.81980200  1
  Br  Br15  1  0.00000000  0.68624000  0.06980200  1
  Br  Br16  1  0.50000000  0.81376000  0.56980200  1
  Br  Br17  1  0.68624000  0.50000000  0.81980200  1
  Br  Br18  1  0.50000000  0.68624000  0.18019800  1
  Br  Br19  1  0.31376000  0.00000000  0.93019800  1
