# generated using pymatgen
data_Zn2PH2CO7
_symmetry_space_group_name_H-M   'P 1'
_cell_length_a   8.05274400
_cell_length_b   4.87175500
_cell_length_c   15.52956957
_cell_angle_alpha   90.00000000
_cell_angle_beta   113.52081172
_cell_angle_gamma   90.00000000
_symmetry_Int_Tables_number   1
_chemical_formula_structural   Zn2PH2CO7
_chemical_formula_sum   'Zn8 P4 H8 C4 O28'
_cell_volume   558.62184068
_cell_formula_units_Z   4
loop_
 _symmetry_equiv_pos_site_id
 _symmetry_equiv_pos_as_xyz
  1  'x, y, z'
loop_
 _atom_site_type_symbol
 _atom_site_label
 _atom_site_symmetry_multiplicity
 _atom_site_fract_x
 _atom_site_fract_y
 _atom_site_fract_z
 _atom_site_occupancy
  Zn  Zn0  1  0.55543500  0.00535500  0.86658400  1
  Zn  Zn1  1  0.44456500  0.50535500  0.63341600  1
  Zn  Zn2  1  0.44456500  0.99464500  0.13341600  1
  Zn  Zn3  1  0.55543500  0.49464500  0.36658400  1
  Zn  Zn4  1  0.09754600  0.02451700  0.69290000  1
  Zn  Zn5  1  0.90245400  0.52451700  0.80710000  1
  Zn  Zn6  1  0.90245400  0.97548300  0.30710000  1
  Zn  Zn7  1  0.09754600  0.47548300  0.19290000  1
  P  P8  1  0.30285500  0.47136600  0.79898800  1
  P  P9  1  0.69714500  0.97136600  0.70101200  1
  P  P10  1  0.69714500  0.52863400  0.20101200  1
  P  P11  1  0.30285500  0.02863400  0.29898800  1
  H  H12  1  0.78163200  0.00044800  0.03372200  1
  H  H13  1  0.21836800  0.50044800  0.46627800  1
  H  H14  1  0.21836800  0.99955200  0.96627800  1
  H  H15  1  0.78163200  0.49955200  0.53372200  1
  H  H16  1  0.63848200  0.76244600  0.03284000  1
  H  H17  1  0.63848200  0.73755400  0.53284000  1
  H  H18  1  0.36151800  0.26244600  0.46716000  1
  H  H19  1  0.36151800  0.23755400  0.96716000  1
  C  C20  1  0.06716300  0.88086400  0.50792600  1
  C  C21  1  0.93283700  0.38086400  0.99207400  1
  C  C22  1  0.93283700  0.11913600  0.49207400  1
  C  C23  1  0.06716300  0.61913600  0.00792600  1
  O  O24  1  0.69845100  0.64626800  0.49481600  1
  O  O25  1  0.69410800  0.20981400  0.19833700  1
  O  O26  1  0.69410800  0.29018600  0.69833700  1
  O  O27  1  0.30589200  0.79018600  0.80166300  1
  O  O28  1  0.33838700  0.15338000  0.21543600  1
  O  O29  1  0.66161300  0.65338000  0.28456400  1
  O  O30  1  0.66161300  0.84662000  0.78456400  1
  O  O31  1  0.30589200  0.70981400  0.30166300  1
  O  O32  1  0.11110700  0.14238800  0.28308200  1
  O  O33  1  0.88889300  0.64238800  0.21691800  1
  O  O34  1  0.88889300  0.85761200  0.71691800  1
  O  O35  1  0.11110700  0.35761200  0.78308200  1
  O  O36  1  0.44769000  0.14812800  0.39132000  1
  O  O37  1  0.55231000  0.64812800  0.10868000  1
  O  O38  1  0.55231000  0.85187200  0.60868000  1
  O  O39  1  0.44769000  0.35187200  0.89132000  1
  O  O40  1  0.92535200  0.27240500  0.06473800  1
  O  O41  1  0.07464800  0.77240500  0.43526200  1
  O  O42  1  0.07464800  0.72759500  0.93526200  1
  O  O43  1  0.92535200  0.22759500  0.56473800  1
  O  O44  1  0.84052200  0.30876400  0.90795200  1
  O  O45  1  0.15947800  0.80876400  0.59204800  1
  O  O46  1  0.15947800  0.69123600  0.09204800  1
  O  O47  1  0.84052200  0.19123600  0.40795200  1
  O  O48  1  0.30154900  0.35373200  0.50518400  1
  O  O49  1  0.69845100  0.85373200  0.99481600  1
  O  O50  1  0.33838700  0.34662000  0.71543600  1
  O  O51  1  0.30154900  0.14626800  0.00518400  1
