# generated using pymatgen
data_In2Si2O7
_symmetry_space_group_name_H-M   'P 1'
_cell_length_a   6.72022800
_cell_length_b   8.75578000
_cell_length_c   4.76372237
_cell_angle_alpha   90.00000000
_cell_angle_beta   102.88489054
_cell_angle_gamma   90.00000000
_symmetry_Int_Tables_number   1
_chemical_formula_structural   In2Si2O7
_chemical_formula_sum   'In4 Si4 O14'
_cell_volume   273.24343558
_cell_formula_units_Z   2
loop_
 _symmetry_equiv_pos_site_id
 _symmetry_equiv_pos_as_xyz
  1  'x, y, z'
loop_
 _atom_site_type_symbol
 _atom_site_label
 _atom_site_symmetry_multiplicity
 _atom_site_fract_x
 _atom_site_fract_y
 _atom_site_fract_z
 _atom_site_occupancy
  In  In0  1  0.50000000  0.19169800  0.00000000  1
  In  In1  1  0.50000000  0.80830200  0.00000000  1
  In  In2  1  0.00000000  0.69169800  0.00000000  1
  In  In3  1  0.00000000  0.30830200  0.00000000  1
  Si  Si4  1  0.78080700  0.00000000  0.59081100  1
  Si  Si5  1  0.21919300  0.00000000  0.40918900  1
  Si  Si6  1  0.28080700  0.50000000  0.59081100  1
  Si  Si7  1  0.71919300  0.50000000  0.40918900  1
  O  O8  1  0.23392150  0.84463250  0.21820400  1
  O  O9  1  0.76607850  0.84463250  0.78179600  1
  O  O10  1  0.76607850  0.15536750  0.78179600  1
  O  O11  1  0.23392150  0.15536750  0.21820400  1
  O  O12  1  0.00000000  0.00000000  0.50000000  1
  O  O13  1  0.38965600  0.00000000  0.71586900  1
  O  O14  1  0.61034400  0.00000000  0.28413100  1
  O  O15  1  0.73392150  0.34463250  0.21820400  1
  O  O16  1  0.26607850  0.34463250  0.78179600  1
  O  O17  1  0.26607850  0.65536750  0.78179600  1
  O  O18  1  0.73392150  0.65536750  0.21820400  1
  O  O19  1  0.50000000  0.50000000  0.50000000  1
  O  O20  1  0.88965600  0.50000000  0.71586900  1
  O  O21  1  0.11034400  0.50000000  0.28413100  1
