# generated using pymatgen
data_KH9O5
_symmetry_space_group_name_H-M   'P 1'
_cell_length_a   7.15753900
_cell_length_b   11.29377600
_cell_length_c   7.17209531
_cell_angle_alpha   90.00000000
_cell_angle_beta   99.18241382
_cell_angle_gamma   90.00000000
_symmetry_Int_Tables_number   1
_chemical_formula_structural   KH9O5
_chemical_formula_sum   'K4 H36 O20'
_cell_volume   572.33146288
_cell_formula_units_Z   4
loop_
 _symmetry_equiv_pos_site_id
 _symmetry_equiv_pos_as_xyz
  1  'x, y, z'
loop_
 _atom_site_type_symbol
 _atom_site_label
 _atom_site_symmetry_multiplicity
 _atom_site_fract_x
 _atom_site_fract_y
 _atom_site_fract_z
 _atom_site_occupancy
  K  K0  1  0.43158100  0.16091500  0.34982300  1
  K  K1  1  0.56841900  0.66091500  0.15017700  1
  K  K2  1  0.56841900  0.83908500  0.65017700  1
  K  K3  1  0.43158100  0.33908500  0.84982300  1
  H  H4  1  0.96587500  0.09290800  0.62122400  1
  H  H5  1  0.03412500  0.59290800  0.87877600  1
  H  H6  1  0.03412500  0.90709200  0.37877600  1
  H  H7  1  0.96587500  0.40709200  0.12122400  1
  H  H8  1  0.90725100  0.09225400  0.39665200  1
  H  H9  1  0.09274900  0.59225400  0.10334800  1
  H  H10  1  0.09274900  0.90774600  0.60334800  1
  H  H11  1  0.90725100  0.40774600  0.89665200  1
  H  H12  1  0.07812700  0.24373100  0.01210800  1
  H  H13  1  0.92187300  0.74373100  0.48789200  1
  H  H14  1  0.92187300  0.75626900  0.98789200  1
  H  H15  1  0.07812700  0.25626900  0.51210800  1
  H  H16  1  0.13738900  0.11999200  0.92752400  1
  H  H17  1  0.86261100  0.61999200  0.57247600  1
  H  H18  1  0.76210100  0.09935700  0.10374500  1
  H  H19  1  0.86261100  0.88000800  0.07247600  1
  H  H20  1  0.66327500  0.94532100  0.24140500  1
  H  H21  1  0.33672500  0.44532100  0.25859500  1
  H  H22  1  0.33672500  0.05467900  0.75859500  1
  H  H23  1  0.66327500  0.55467900  0.74140500  1
  H  H24  1  0.45704900  0.89912300  0.16219500  1
  H  H25  1  0.54295100  0.39912300  0.33780500  1
  H  H26  1  0.54295100  0.10087700  0.83780500  1
  H  H27  1  0.45704900  0.60087700  0.66219500  1
  H  H28  1  0.01668700  0.46542900  0.65917700  1
  H  H29  1  0.98331300  0.96542900  0.84082300  1
  H  H30  1  0.98331300  0.53457100  0.34082300  1
  H  H31  1  0.01668700  0.03457100  0.15917700  1
  H  H32  1  0.76246600  0.26750900  0.53351100  1
  H  H33  1  0.23753400  0.76750900  0.96648900  1
  H  H34  1  0.23753400  0.73249100  0.46648900  1
  H  H35  1  0.76246600  0.23249100  0.03351100  1
  H  H36  1  0.76210100  0.40064300  0.60374500  1
  H  H37  1  0.23789900  0.90064300  0.89625500  1
  H  H38  1  0.23789900  0.59935700  0.39625500  1
  H  H39  1  0.13738900  0.38000800  0.42752400  1
  O  O40  1  0.90698000  0.14429400  0.51171500  1
  O  O41  1  0.09302000  0.64429400  0.98828500  1
  O  O42  1  0.09302000  0.85570600  0.48828500  1
  O  O43  1  0.90698000  0.35570600  0.01171500  1
  O  O44  1  0.18051200  0.18313700  0.02350000  1
  O  O45  1  0.81948800  0.68313700  0.47650000  1
  O  O46  1  0.81948800  0.81686300  0.97650000  1
  O  O47  1  0.18051200  0.31686300  0.52350000  1
  O  O48  1  0.53965500  0.92818100  0.27839300  1
  O  O49  1  0.46034500  0.42818100  0.22160700  1
  O  O50  1  0.46034500  0.07181900  0.72160700  1
  O  O51  1  0.53965500  0.57181900  0.77839300  1
  O  O52  1  0.67649100  0.16395100  0.04188500  1
  O  O53  1  0.32350900  0.66395100  0.45811500  1
  O  O54  1  0.32350900  0.83604900  0.95811500  1
  O  O55  1  0.67649100  0.33604900  0.54188500  1
  O  O56  1  0.91576000  0.99884000  0.21762300  1
  O  O57  1  0.08424000  0.49884000  0.28237700  1
  O  O58  1  0.08424000  0.00116000  0.78237700  1
  O  O59  1  0.91576000  0.50116000  0.71762300  1
