# generated using pymatgen
data_SnBr2
_symmetry_space_group_name_H-M   'P 1'
_cell_length_a   4.31220600
_cell_length_b   9.23329400
_cell_length_c   10.82036600
_cell_angle_alpha   90.00000000
_cell_angle_beta   90.00000000
_cell_angle_gamma   90.00000000
_symmetry_Int_Tables_number   1
_chemical_formula_structural   SnBr2
_chemical_formula_sum   'Sn4 Br8'
_cell_volume   430.82224042
_cell_formula_units_Z   4
loop_
 _symmetry_equiv_pos_site_id
 _symmetry_equiv_pos_as_xyz
  1  'x, y, z'
loop_
 _atom_site_type_symbol
 _atom_site_label
 _atom_site_symmetry_multiplicity
 _atom_site_fract_x
 _atom_site_fract_y
 _atom_site_fract_z
 _atom_site_occupancy
  Sn  Sn0  1  0.25000000  0.89339300  0.16323300  1
  Sn  Sn1  1  0.75000000  0.10660700  0.83676700  1
  Sn  Sn2  1  0.25000000  0.39339300  0.33676700  1
  Sn  Sn3  1  0.75000000  0.60660700  0.66323300  1
  Br  Br4  1  0.25000000  0.16272800  0.04875500  1
  Br  Br5  1  0.75000000  0.83727200  0.95124500  1
  Br  Br6  1  0.25000000  0.66272800  0.45124500  1
  Br  Br7  1  0.75000000  0.33727200  0.54875500  1
  Br  Br8  1  0.25000000  0.49255200  0.81184600  1
  Br  Br9  1  0.75000000  0.50744800  0.18815400  1
  Br  Br10  1  0.25000000  0.99255200  0.68815400  1
  Br  Br11  1  0.75000000  0.00744800  0.31184600  1
