# generated using pymatgen
data_Li8PbO6
_symmetry_space_group_name_H-M   'P 1'
_cell_length_a   5.60772631
_cell_length_b   5.60772631
_cell_length_c   15.86332054
_cell_angle_alpha   90.00000000
_cell_angle_beta   90.00000000
_cell_angle_gamma   120.00000000
_symmetry_Int_Tables_number   1
_chemical_formula_structural   Li8PbO6
_chemical_formula_sum   'Li24 Pb3 O18'
_cell_volume   432.01452621
_cell_formula_units_Z   3
loop_
 _symmetry_equiv_pos_site_id
 _symmetry_equiv_pos_as_xyz
  1  'x, y, z'
loop_
 _atom_site_type_symbol
 _atom_site_label
 _atom_site_symmetry_multiplicity
 _atom_site_fract_x
 _atom_site_fract_y
 _atom_site_fract_z
 _atom_site_occupancy
  Li  Li0  1  0.33333333  0.66666667  0.32097267  1
  Li  Li1  1  0.01745233  0.31511767  0.21224967  1
  Li  Li2  1  0.68488233  0.70233467  0.21224967  1
  Li  Li3  1  0.29766533  0.98254767  0.21224967  1
  Li  Li4  1  0.64921433  0.01821567  0.12108367  1
  Li  Li5  1  0.98178433  0.63099867  0.12108367  1
  Li  Li6  1  0.33333333  0.66666667  0.01236067  1
  Li  Li7  1  0.36900133  0.35078567  0.12108367  1
  Li  Li8  1  0.00000000  0.00000000  0.65430600  1
  Li  Li9  1  0.68411900  0.64845100  0.54558300  1
  Li  Li10  1  0.35154900  0.03566800  0.54558300  1
  Li  Li11  1  0.96433200  0.31588100  0.54558300  1
  Li  Li12  1  0.31588100  0.35154900  0.45441700  1
  Li  Li13  1  0.64845100  0.96433200  0.45441700  1
  Li  Li14  1  0.00000000  0.00000000  0.34569400  1
  Li  Li15  1  0.03566800  0.68411900  0.45441700  1
  Li  Li16  1  0.66666667  0.33333333  0.98763933  1
  Li  Li17  1  0.35078567  0.98178433  0.87891633  1
  Li  Li18  1  0.01821567  0.36900133  0.87891633  1
  Li  Li19  1  0.63099867  0.64921433  0.87891633  1
  Li  Li20  1  0.98254767  0.68488233  0.78775033  1
  Li  Li21  1  0.31511767  0.29766533  0.78775033  1
  Li  Li22  1  0.66666667  0.33333333  0.67902733  1
  Li  Li23  1  0.70233467  0.01745233  0.78775033  1
  Pb  Pb24  1  0.00000000  0.00000000  0.00000000  1
  Pb  Pb25  1  0.66666667  0.33333333  0.33333333  1
  Pb  Pb26  1  0.33333333  0.66666667  0.66666667  1
  O  O27  1  0.31185267  0.98738433  0.08381933  1
  O  O28  1  0.99113500  0.64518600  0.24951400  1
  O  O29  1  0.35481400  0.34594900  0.24951400  1
  O  O30  1  0.01261567  0.32446833  0.08381933  1
  O  O31  1  0.67553167  0.68814733  0.08381933  1
  O  O32  1  0.65405100  0.00886500  0.24951400  1
  O  O33  1  0.97851933  0.32071767  0.41715267  1
  O  O34  1  0.65780167  0.97851933  0.58284733  1
  O  O35  1  0.02148067  0.67928233  0.58284733  1
  O  O36  1  0.67928233  0.65780167  0.41715267  1
  O  O37  1  0.34219833  0.02148067  0.41715267  1
  O  O38  1  0.32071767  0.34219833  0.58284733  1
  O  O39  1  0.64518600  0.65405100  0.75048600  1
  O  O40  1  0.32446833  0.31185267  0.91618067  1
  O  O41  1  0.68814733  0.01261567  0.91618067  1
  O  O42  1  0.34594900  0.99113500  0.75048600  1
  O  O43  1  0.00886500  0.35481400  0.75048600  1
  O  O44  1  0.98738433  0.67553167  0.91618067  1
