# generated using pymatgen
data_TiCdO3
_symmetry_space_group_name_H-M   'P 1'
_cell_length_a   5.40074700
_cell_length_b   5.52300900
_cell_length_c   7.69216300
_cell_angle_alpha   90.00000000
_cell_angle_beta   90.00000000
_cell_angle_gamma   90.00000000
_symmetry_Int_Tables_number   1
_chemical_formula_structural   TiCdO3
_chemical_formula_sum   'Ti4 Cd4 O12'
_cell_volume   229.44471705
_cell_formula_units_Z   4
loop_
 _symmetry_equiv_pos_site_id
 _symmetry_equiv_pos_as_xyz
  1  'x, y, z'
loop_
 _atom_site_type_symbol
 _atom_site_label
 _atom_site_symmetry_multiplicity
 _atom_site_fract_x
 _atom_site_fract_y
 _atom_site_fract_z
 _atom_site_occupancy
  Ti  Ti0  1  0.75657100  0.66841200  0.25074900  1
  Ti  Ti1  1  0.24342900  0.16841200  0.74925100  1
  Ti  Ti2  1  0.24342900  0.16841200  0.25074900  1
  Ti  Ti3  1  0.75657100  0.66841200  0.74925100  1
  Cd  Cd4  1  0.26100300  0.69459500  0.50000000  1
  Cd  Cd5  1  0.73899700  0.19459500  0.50000000  1
  Cd  Cd6  1  0.75025900  0.11669600  0.00000000  1
  Cd  Cd7  1  0.24974100  0.61669600  0.00000000  1
  O  O8  1  0.04985000  0.84138400  0.79524000  1
  O  O9  1  0.95015000  0.34138400  0.20476000  1
  O  O10  1  0.95015000  0.34138400  0.79524000  1
  O  O11  1  0.04985000  0.84138400  0.20476000  1
  O  O12  1  0.44457500  0.43941100  0.70249400  1
  O  O13  1  0.55542500  0.93941100  0.29750600  1
  O  O14  1  0.55542500  0.93941100  0.70249400  1
  O  O15  1  0.44457500  0.43941100  0.29750600  1
  O  O16  1  0.16199300  0.11098400  0.50000000  1
  O  O17  1  0.83800700  0.61098400  0.50000000  1
  O  O18  1  0.33673800  0.16941100  0.00000000  1
  O  O19  1  0.66326200  0.66941100  0.00000000  1
