# generated using pymatgen
data_CaH4SO6
_symmetry_space_group_name_H-M   'P 1'
_cell_length_a   6.41067200
_cell_length_b   15.08552200
_cell_length_c   5.76418668
_cell_angle_alpha   90.00000000
_cell_angle_beta   114.23154287
_cell_angle_gamma   90.00000000
_symmetry_Int_Tables_number   1
_chemical_formula_structural   CaH4SO6
_chemical_formula_sum   'Ca4 H16 S4 O24'
_cell_volume   508.33081787
_cell_formula_units_Z   4
loop_
 _symmetry_equiv_pos_site_id
 _symmetry_equiv_pos_as_xyz
  1  'x, y, z'
loop_
 _atom_site_type_symbol
 _atom_site_label
 _atom_site_symmetry_multiplicity
 _atom_site_fract_x
 _atom_site_fract_y
 _atom_site_fract_z
 _atom_site_occupancy
  Ca  Ca0  1  0.00000000  0.67007900  0.75000000  1
  Ca  Ca1  1  0.50000000  0.82992100  0.25000000  1
  Ca  Ca2  1  0.50000000  0.17007900  0.75000000  1
  Ca  Ca3  1  0.00000000  0.32992100  0.25000000  1
  H  H4  1  0.75413200  0.50667500  0.40998900  1
  H  H5  1  0.24586800  0.50667500  0.09001100  1
  H  H6  1  0.74586800  0.99332500  0.59001100  1
  H  H7  1  0.25413200  0.99332500  0.90998900  1
  H  H8  1  0.74999650  0.90995250  0.75764900  1
  H  H9  1  0.25000350  0.90995250  0.74235100  1
  H  H10  1  0.75000350  0.59004750  0.24235100  1
  H  H11  1  0.24999650  0.59004750  0.25764900  1
  H  H12  1  0.25413200  0.00667500  0.40998900  1
  H  H13  1  0.74586800  0.00667500  0.09001100  1
  H  H14  1  0.24586800  0.49332500  0.59001100  1
  H  H15  1  0.75413200  0.49332500  0.90998900  1
  H  H16  1  0.24999650  0.40995250  0.75764900  1
  H  H17  1  0.75000350  0.40995250  0.74235100  1
  H  H18  1  0.25000350  0.09004750  0.24235100  1
  H  H19  1  0.74999650  0.09004750  0.25764900  1
  S  S20  1  0.50000000  0.67144900  0.75000000  1
  S  S21  1  0.00000000  0.82855100  0.25000000  1
  S  S22  1  0.00000000  0.17144900  0.75000000  1
  S  S23  1  0.50000000  0.32855100  0.25000000  1
  O  O24  1  0.69748250  0.61544550  0.91579500  1
  O  O25  1  0.08590300  0.77239400  0.09524900  1
  O  O26  1  0.41409700  0.72760600  0.90475100  1
  O  O27  1  0.58590300  0.72760600  0.59524900  1
  O  O28  1  0.29276250  0.93002050  0.91909800  1
  O  O29  1  0.70723750  0.93002050  0.58090200  1
  O  O30  1  0.20723750  0.56997950  0.08090200  1
  O  O31  1  0.79276250  0.56997950  0.41909800  1
  O  O32  1  0.80251750  0.88455450  0.08420500  1
  O  O33  1  0.19748250  0.88455450  0.41579500  1
  O  O34  1  0.91409700  0.77239400  0.40475100  1
  O  O35  1  0.30251750  0.61544550  0.58420500  1
  O  O36  1  0.19748250  0.11544550  0.91579500  1
  O  O37  1  0.58590300  0.27239400  0.09524900  1
  O  O38  1  0.91409700  0.22760600  0.90475100  1
  O  O39  1  0.08590300  0.22760600  0.59524900  1
  O  O40  1  0.79276250  0.43002050  0.91909800  1
  O  O41  1  0.20723750  0.43002050  0.58090200  1
  O  O42  1  0.70723750  0.06997950  0.08090200  1
  O  O43  1  0.29276250  0.06997950  0.41909800  1
  O  O44  1  0.30251750  0.38455450  0.08420500  1
  O  O45  1  0.69748250  0.38455450  0.41579500  1
  O  O46  1  0.41409700  0.27239400  0.40475100  1
  O  O47  1  0.80251750  0.11544550  0.58420500  1
