# generated using pymatgen
data_K2CaH2S2O9
_symmetry_space_group_name_H-M   'P 1'
_cell_length_a   6.33497800
_cell_length_b   7.21284800
_cell_length_c   9.92538558
_cell_angle_alpha   90.00000000
_cell_angle_beta   103.61081467
_cell_angle_gamma   90.00000000
_symmetry_Int_Tables_number   1
_chemical_formula_structural   K2CaH2S2O9
_chemical_formula_sum   'K4 Ca2 H4 S4 O18'
_cell_volume   440.78649287
_cell_formula_units_Z   2
loop_
 _symmetry_equiv_pos_site_id
 _symmetry_equiv_pos_as_xyz
  1  'x, y, z'
loop_
 _atom_site_type_symbol
 _atom_site_label
 _atom_site_symmetry_multiplicity
 _atom_site_fract_x
 _atom_site_fract_y
 _atom_site_fract_z
 _atom_site_occupancy
  K  K0  1  0.81537800  0.49498900  0.66560700  1
  K  K1  1  0.18462200  0.99498900  0.33439300  1
  K  K2  1  0.18462200  0.50501100  0.33439300  1
  K  K3  1  0.81537800  0.00501100  0.66560700  1
  Ca  Ca4  1  0.66476500  0.25000000  0.03172300  1
  Ca  Ca5  1  0.33523500  0.75000000  0.96827700  1
  H  H6  1  0.58968200  0.86076100  0.24850800  1
  H  H7  1  0.41031800  0.36076100  0.75149200  1
  H  H8  1  0.41031800  0.13923900  0.75149200  1
  H  H9  1  0.58968200  0.63923900  0.24850800  1
  S  S10  1  0.71930000  0.25000000  0.35925500  1
  S  S11  1  0.28070000  0.75000000  0.64074500  1
  S  S12  1  0.15970200  0.25000000  0.00808900  1
  S  S13  1  0.84029800  0.75000000  0.99191100  1
  O  O14  1  0.50396200  0.25000000  0.77723900  1
  O  O15  1  0.49603800  0.75000000  0.22276100  1
  O  O16  1  0.69559600  0.58435300  0.98277100  1
  O  O17  1  0.30440400  0.08435300  0.01722900  1
  O  O18  1  0.30440400  0.41564700  0.01722900  1
  O  O19  1  0.69559600  0.91564700  0.98277100  1
  O  O20  1  0.01472500  0.75000000  0.12063700  1
  O  O21  1  0.98527500  0.25000000  0.87936300  1
  O  O22  1  0.06947800  0.75000000  0.53501500  1
  O  O23  1  0.93052200  0.25000000  0.46498500  1
  O  O24  1  0.46309400  0.75000000  0.56982900  1
  O  O25  1  0.53690600  0.25000000  0.43017100  1
  O  O26  1  0.29198600  0.91621200  0.73330300  1
  O  O27  1  0.70801400  0.41621200  0.26669700  1
  O  O28  1  0.70801400  0.08378800  0.26669700  1
  O  O29  1  0.29198600  0.58378800  0.73330300  1
  O  O30  1  0.94595900  0.75000000  0.87184500  1
  O  O31  1  0.05404100  0.25000000  0.12815500  1
