# generated using pymatgen
data_CaH12(ClO3)2
_symmetry_space_group_name_H-M   'P 1'
_cell_length_a   7.88405482
_cell_length_b   7.88405482
_cell_length_c   4.03028000
_cell_angle_alpha   90.00000000
_cell_angle_beta   90.00000000
_cell_angle_gamma   120.00000000
_symmetry_Int_Tables_number   1
_chemical_formula_structural   CaH12(ClO3)2
_chemical_formula_sum   'Ca1 H12 Cl2 O6'
_cell_volume   216.95273144
_cell_formula_units_Z   1
loop_
 _symmetry_equiv_pos_site_id
 _symmetry_equiv_pos_as_xyz
  1  'x, y, z'
loop_
 _atom_site_type_symbol
 _atom_site_label
 _atom_site_symmetry_multiplicity
 _atom_site_fract_x
 _atom_site_fract_y
 _atom_site_fract_z
 _atom_site_occupancy
  Ca  Ca0  1  0.00000000  0.00000000  0.00000000  1
  H  H1  1  0.11383200  0.76568400  0.51937800  1
  H  H2  1  0.23431600  0.34814800  0.51937800  1
  H  H3  1  0.65185200  0.88616800  0.51937800  1
  H  H4  1  0.34814800  0.23431600  0.48062200  1
  H  H5  1  0.88616800  0.65185200  0.48062200  1
  H  H6  1  0.76568400  0.11383200  0.48062200  1
  H  H7  1  0.10013600  0.43614800  0.09961800  1
  H  H8  1  0.56385200  0.66398800  0.09961800  1
  H  H9  1  0.33601200  0.89986400  0.09961800  1
  H  H10  1  0.43614800  0.10013600  0.90038200  1
  H  H11  1  0.89986400  0.33601200  0.90038200  1
  H  H12  1  0.66398800  0.56385200  0.90038200  1
  Cl  Cl13  1  0.66666667  0.33333333  0.60060800  1
  Cl  Cl14  1  0.33333333  0.66666667  0.39939200  1
  O  O15  1  0.21469800  0.21469800  0.50000000  1
  O  O16  1  0.00000000  0.78530200  0.50000000  1
  O  O17  1  0.78530200  0.00000000  0.50000000  1
  O  O18  1  0.68850700  0.68850700  0.00000000  1
  O  O19  1  0.00000000  0.31149300  0.00000000  1
  O  O20  1  0.31149300  0.00000000  0.00000000  1
