# generated using pymatgen
data_RbPb
_symmetry_space_group_name_H-M   'P 1'
_cell_length_a   12.14596400
_cell_length_b   12.14596400
_cell_length_c   19.90805600
_cell_angle_alpha   90.00000000
_cell_angle_beta   90.00000000
_cell_angle_gamma   90.00000000
_symmetry_Int_Tables_number   1
_chemical_formula_structural   RbPb
_chemical_formula_sum   'Rb32 Pb32'
_cell_volume   2936.92484254
_cell_formula_units_Z   32
loop_
 _symmetry_equiv_pos_site_id
 _symmetry_equiv_pos_as_xyz
  1  'x, y, z'
loop_
 _atom_site_type_symbol
 _atom_site_label
 _atom_site_symmetry_multiplicity
 _atom_site_fract_x
 _atom_site_fract_y
 _atom_site_fract_z
 _atom_site_occupancy
  Rb  Rb0  1  0.86390000  0.75000000  0.37500000  1
  Rb  Rb1  1  0.75000000  0.86390000  0.12500000  1
  Rb  Rb2  1  0.25000000  0.13610000  0.12500000  1
  Rb  Rb3  1  0.13610000  0.25000000  0.37500000  1
  Rb  Rb4  1  0.63610000  0.25000000  0.37500000  1
  Rb  Rb5  1  0.25000000  0.63610000  0.12500000  1
  Rb  Rb6  1  0.75000000  0.36390000  0.12500000  1
  Rb  Rb7  1  0.36390000  0.75000000  0.37500000  1
  Rb  Rb8  1  0.37921300  0.37921300  0.25000000  1
  Rb  Rb9  1  0.12078700  0.37921300  0.00000000  1
  Rb  Rb10  1  0.87921300  0.62078700  0.00000000  1
  Rb  Rb11  1  0.62078700  0.62078700  0.25000000  1
  Rb  Rb12  1  0.62078700  0.12078700  0.00000000  1
  Rb  Rb13  1  0.87921300  0.12078700  0.25000000  1
  Rb  Rb14  1  0.12078700  0.87921300  0.25000000  1
  Rb  Rb15  1  0.37921300  0.87921300  0.00000000  1
  Rb  Rb16  1  0.36390000  0.25000000  0.87500000  1
  Rb  Rb17  1  0.25000000  0.36390000  0.62500000  1
  Rb  Rb18  1  0.75000000  0.63610000  0.62500000  1
  Rb  Rb19  1  0.63610000  0.75000000  0.87500000  1
  Rb  Rb20  1  0.13610000  0.75000000  0.87500000  1
  Rb  Rb21  1  0.75000000  0.13610000  0.62500000  1
  Rb  Rb22  1  0.25000000  0.86390000  0.62500000  1
  Rb  Rb23  1  0.86390000  0.25000000  0.87500000  1
  Rb  Rb24  1  0.87921300  0.87921300  0.75000000  1
  Rb  Rb25  1  0.62078700  0.87921300  0.50000000  1
  Rb  Rb26  1  0.37921300  0.12078700  0.50000000  1
  Rb  Rb27  1  0.12078700  0.12078700  0.75000000  1
  Rb  Rb28  1  0.12078700  0.62078700  0.50000000  1
  Rb  Rb29  1  0.37921300  0.62078700  0.75000000  1
  Rb  Rb30  1  0.62078700  0.37921300  0.75000000  1
  Rb  Rb31  1  0.87921300  0.37921300  0.50000000  1
  Pb  Pb32  1  0.06083850  0.88559450  0.05680350  1
  Pb  Pb33  1  0.11440550  0.56083850  0.30680350  1
  Pb  Pb34  1  0.88559450  0.43916150  0.30680350  1
  Pb  Pb35  1  0.56083850  0.11440550  0.19319650  1
  Pb  Pb36  1  0.43916150  0.88559450  0.19319650  1
  Pb  Pb37  1  0.88559450  0.06083850  0.44319650  1
  Pb  Pb38  1  0.11440550  0.93916150  0.44319650  1
  Pb  Pb39  1  0.93916150  0.11440550  0.05680350  1
  Pb  Pb40  1  0.93916150  0.61440550  0.19319650  1
  Pb  Pb41  1  0.38559450  0.43916150  0.44319650  1
  Pb  Pb42  1  0.61440550  0.56083850  0.44319650  1
  Pb  Pb43  1  0.43916150  0.38559450  0.05680350  1
  Pb  Pb44  1  0.56083850  0.61440550  0.05680350  1
  Pb  Pb45  1  0.61440550  0.93916150  0.30680350  1
  Pb  Pb46  1  0.38559450  0.06083850  0.30680350  1
  Pb  Pb47  1  0.06083850  0.38559450  0.19319650  1
  Pb  Pb48  1  0.56083850  0.38559450  0.55680350  1
  Pb  Pb49  1  0.61440550  0.06083850  0.80680350  1
  Pb  Pb50  1  0.38559450  0.93916150  0.80680350  1
  Pb  Pb51  1  0.06083850  0.61440550  0.69319650  1
  Pb  Pb52  1  0.93916150  0.38559450  0.69319650  1
  Pb  Pb53  1  0.38559450  0.56083850  0.94319650  1
  Pb  Pb54  1  0.61440550  0.43916150  0.94319650  1
  Pb  Pb55  1  0.43916150  0.61440550  0.55680350  1
  Pb  Pb56  1  0.43916150  0.11440550  0.69319650  1
  Pb  Pb57  1  0.88559450  0.93916150  0.94319650  1
  Pb  Pb58  1  0.11440550  0.06083850  0.94319650  1
  Pb  Pb59  1  0.93916150  0.88559450  0.55680350  1
  Pb  Pb60  1  0.06083850  0.11440550  0.55680350  1
  Pb  Pb61  1  0.11440550  0.43916150  0.80680350  1
  Pb  Pb62  1  0.88559450  0.56083850  0.80680350  1
  Pb  Pb63  1  0.56083850  0.88559450  0.69319650  1
