# generated using pymatgen
data_Nd2(SO4)3
_symmetry_space_group_name_H-M   'P 1'
_cell_length_a   21.67208800
_cell_length_b   6.75251000
_cell_length_c   7.00254956
_cell_angle_alpha   90.00000000
_cell_angle_beta   107.14613049
_cell_angle_gamma   90.00000000
_symmetry_Int_Tables_number   1
_chemical_formula_structural   Nd2(SO4)3
_chemical_formula_sum   'Nd8 S12 O48'
_cell_volume   979.21557023
_cell_formula_units_Z   4
loop_
 _symmetry_equiv_pos_site_id
 _symmetry_equiv_pos_as_xyz
  1  'x, y, z'
loop_
 _atom_site_type_symbol
 _atom_site_label
 _atom_site_symmetry_multiplicity
 _atom_site_fract_x
 _atom_site_fract_y
 _atom_site_fract_z
 _atom_site_occupancy
  Nd  Nd0  1  0.36807300  0.14627300  0.36897900  1
  Nd  Nd1  1  0.13192700  0.64627300  0.13102100  1
  Nd  Nd2  1  0.13192700  0.35372700  0.63102100  1
  Nd  Nd3  1  0.36807300  0.85372700  0.86897900  1
  Nd  Nd4  1  0.86807300  0.64627300  0.36897900  1
  Nd  Nd5  1  0.63192700  0.14627300  0.13102100  1
  Nd  Nd6  1  0.63192700  0.85372700  0.63102100  1
  Nd  Nd7  1  0.86807300  0.35372700  0.86897900  1
  S  S8  1  0.00000000  0.33442100  0.75000000  1
  S  S9  1  0.00000000  0.66557900  0.25000000  1
  S  S10  1  0.18324050  0.18326750  0.17826600  1
  S  S11  1  0.31675950  0.68326750  0.32173400  1
  S  S12  1  0.31675950  0.31673250  0.82173400  1
  S  S13  1  0.18324050  0.81673250  0.67826600  1
  S  S14  1  0.50000000  0.83442100  0.75000000  1
  S  S15  1  0.50000000  0.16557900  0.25000000  1
  S  S16  1  0.68324050  0.68326750  0.17826600  1
  S  S17  1  0.81675950  0.18326750  0.32173400  1
  S  S18  1  0.81675950  0.81673250  0.82173400  1
  S  S19  1  0.68324050  0.31673250  0.67826600  1
  O  O20  1  0.05593050  0.46491650  0.85637600  1
  O  O21  1  0.44406950  0.96491650  0.64362400  1
  O  O22  1  0.44406950  0.03508350  0.14362400  1
  O  O23  1  0.05593050  0.53508350  0.35637600  1
  O  O24  1  0.14720500  0.99660300  0.12571000  1
  O  O25  1  0.35279500  0.49660300  0.37429000  1
  O  O26  1  0.35279500  0.50339700  0.87429000  1
  O  O27  1  0.14720500  0.00339700  0.62571000  1
  O  O28  1  0.02370600  0.21497700  0.60965700  1
  O  O29  1  0.47629400  0.71497700  0.89034300  1
  O  O30  1  0.34801450  0.81106750  0.19804100  1
  O  O31  1  0.15198550  0.31106750  0.30195900  1
  O  O32  1  0.15198550  0.68893250  0.80195900  1
  O  O33  1  0.34801450  0.18893250  0.69804100  1
  O  O34  1  0.25084050  0.85307850  0.78987500  1
  O  O35  1  0.24915950  0.35307850  0.71012500  1
  O  O36  1  0.24915950  0.64692150  0.21012500  1
  O  O37  1  0.25084050  0.14692150  0.28987500  1
  O  O38  1  0.17713600  0.69503700  0.49557800  1
  O  O39  1  0.32286400  0.19503700  0.00442200  1
  O  O40  1  0.32286400  0.80496300  0.50442200  1
  O  O41  1  0.17713600  0.30496300  0.99557800  1
  O  O42  1  0.02370600  0.78502300  0.10965700  1
  O  O43  1  0.47629400  0.28502300  0.39034300  1
  O  O44  1  0.55593050  0.96491650  0.85637600  1
  O  O45  1  0.94406950  0.46491650  0.64362400  1
  O  O46  1  0.94406950  0.53508350  0.14362400  1
  O  O47  1  0.55593050  0.03508350  0.35637600  1
  O  O48  1  0.64720500  0.49660300  0.12571000  1
  O  O49  1  0.85279500  0.99660300  0.37429000  1
  O  O50  1  0.85279500  0.00339700  0.87429000  1
  O  O51  1  0.64720500  0.50339700  0.62571000  1
  O  O52  1  0.52370600  0.71497700  0.60965700  1
  O  O53  1  0.97629400  0.21497700  0.89034300  1
  O  O54  1  0.84801450  0.31106750  0.19804100  1
  O  O55  1  0.65198550  0.81106750  0.30195900  1
  O  O56  1  0.65198550  0.18893250  0.80195900  1
  O  O57  1  0.84801450  0.68893250  0.69804100  1
  O  O58  1  0.75084050  0.35307850  0.78987500  1
  O  O59  1  0.74915950  0.85307850  0.71012500  1
  O  O60  1  0.74915950  0.14692150  0.21012500  1
  O  O61  1  0.75084050  0.64692150  0.28987500  1
  O  O62  1  0.67713600  0.19503700  0.49557800  1
  O  O63  1  0.82286400  0.69503700  0.00442200  1
  O  O64  1  0.82286400  0.30496300  0.50442200  1
  O  O65  1  0.67713600  0.80496300  0.99557800  1
  O  O66  1  0.52370600  0.28502300  0.10965700  1
  O  O67  1  0.97629400  0.78502300  0.39034300  1
