# generated using pymatgen
data_KY3F10
_symmetry_space_group_name_H-M   'P 1'
_cell_length_a   11.71538400
_cell_length_b   11.71538400
_cell_length_c   11.71538400
_cell_angle_alpha   90.00000000
_cell_angle_beta   90.00000000
_cell_angle_gamma   90.00000000
_symmetry_Int_Tables_number   1
_chemical_formula_structural   KY3F10
_chemical_formula_sum   'K8 Y24 F80'
_cell_volume   1607.93905795
_cell_formula_units_Z   8
loop_
 _symmetry_equiv_pos_site_id
 _symmetry_equiv_pos_as_xyz
  1  'x, y, z'
loop_
 _atom_site_type_symbol
 _atom_site_label
 _atom_site_symmetry_multiplicity
 _atom_site_fract_x
 _atom_site_fract_y
 _atom_site_fract_z
 _atom_site_occupancy
  K  K0  1  0.25000000  0.25000000  0.75000000  1
  K  K1  1  0.25000000  0.75000000  0.75000000  1
  K  K2  1  0.25000000  0.75000000  0.25000000  1
  K  K3  1  0.25000000  0.25000000  0.25000000  1
  K  K4  1  0.75000000  0.25000000  0.25000000  1
  K  K5  1  0.75000000  0.75000000  0.25000000  1
  K  K6  1  0.75000000  0.75000000  0.75000000  1
  K  K7  1  0.75000000  0.25000000  0.75000000  1
  Y  Y8  1  0.00000000  0.00000000  0.75955400  1
  Y  Y9  1  0.50000000  0.74044600  0.00000000  1
  Y  Y10  1  0.24044600  0.00000000  0.00000000  1
  Y  Y11  1  0.50000000  0.00000000  0.74044600  1
  Y  Y12  1  0.50000000  0.25955400  0.00000000  1
  Y  Y13  1  0.75955400  0.00000000  0.00000000  1
  Y  Y14  1  0.00000000  0.50000000  0.25955400  1
  Y  Y15  1  0.50000000  0.24044600  0.50000000  1
  Y  Y16  1  0.24044600  0.50000000  0.50000000  1
  Y  Y17  1  0.50000000  0.50000000  0.24044600  1
  Y  Y18  1  0.50000000  0.75955400  0.50000000  1
  Y  Y19  1  0.75955400  0.50000000  0.50000000  1
  Y  Y20  1  0.50000000  0.00000000  0.25955400  1
  Y  Y21  1  0.00000000  0.74044600  0.50000000  1
  Y  Y22  1  0.74044600  0.00000000  0.50000000  1
  Y  Y23  1  0.00000000  0.00000000  0.24044600  1
  Y  Y24  1  0.00000000  0.25955400  0.50000000  1
  Y  Y25  1  0.25955400  0.00000000  0.50000000  1
  Y  Y26  1  0.50000000  0.50000000  0.75955400  1
  Y  Y27  1  0.00000000  0.24044600  0.00000000  1
  Y  Y28  1  0.74044600  0.50000000  0.00000000  1
  Y  Y29  1  0.00000000  0.50000000  0.74044600  1
  Y  Y30  1  0.00000000  0.75955400  0.00000000  1
  Y  Y31  1  0.25955400  0.50000000  0.00000000  1
  F  F32  1  0.11154900  0.11154900  0.88845100  1
  F  F33  1  0.11154900  0.38845100  0.61154900  1
  F  F34  1  0.38845100  0.11154900  0.61154900  1
  F  F35  1  0.38845100  0.38845100  0.88845100  1
  F  F36  1  0.38845100  0.88845100  0.61154900  1
  F  F37  1  0.38845100  0.61154900  0.88845100  1
  F  F38  1  0.11154900  0.88845100  0.88845100  1
  F  F39  1  0.11154900  0.61154900  0.61154900  1
  F  F40  1  0.66493650  0.16493650  0.00000000  1
  F  F41  1  0.66493650  0.00000000  0.83506350  1
  F  F42  1  0.50000000  0.16493650  0.83506350  1
  F  F43  1  0.66493650  0.83506350  0.00000000  1
  F  F44  1  0.16493650  0.00000000  0.66493650  1
  F  F45  1  0.00000000  0.83506350  0.66493650  1
  F  F46  1  0.33506350  0.16493650  0.00000000  1
  F  F47  1  0.83506350  0.00000000  0.66493650  1
  F  F48  1  0.00000000  0.16493650  0.66493650  1
  F  F49  1  0.33506350  0.83506350  0.00000000  1
  F  F50  1  0.33506350  0.00000000  0.83506350  1
  F  F51  1  0.50000000  0.83506350  0.83506350  1
  F  F52  1  0.11154900  0.61154900  0.38845100  1
  F  F53  1  0.11154900  0.88845100  0.11154900  1
  F  F54  1  0.38845100  0.61154900  0.11154900  1
  F  F55  1  0.38845100  0.88845100  0.38845100  1
  F  F56  1  0.38845100  0.38845100  0.11154900  1
  F  F57  1  0.38845100  0.11154900  0.38845100  1
  F  F58  1  0.11154900  0.38845100  0.38845100  1
  F  F59  1  0.11154900  0.11154900  0.11154900  1
  F  F60  1  0.66493650  0.66493650  0.50000000  1
  F  F61  1  0.66493650  0.50000000  0.33506350  1
  F  F62  1  0.50000000  0.66493650  0.33506350  1
  F  F63  1  0.66493650  0.33506350  0.50000000  1
  F  F64  1  0.16493650  0.50000000  0.16493650  1
  F  F65  1  0.00000000  0.33506350  0.16493650  1
  F  F66  1  0.33506350  0.66493650  0.50000000  1
  F  F67  1  0.83506350  0.50000000  0.16493650  1
  F  F68  1  0.00000000  0.66493650  0.16493650  1
  F  F69  1  0.33506350  0.33506350  0.50000000  1
  F  F70  1  0.33506350  0.50000000  0.33506350  1
  F  F71  1  0.50000000  0.33506350  0.33506350  1
  F  F72  1  0.61154900  0.11154900  0.38845100  1
  F  F73  1  0.61154900  0.38845100  0.11154900  1
  F  F74  1  0.88845100  0.11154900  0.11154900  1
  F  F75  1  0.88845100  0.38845100  0.38845100  1
  F  F76  1  0.88845100  0.88845100  0.11154900  1
  F  F77  1  0.88845100  0.61154900  0.38845100  1
  F  F78  1  0.61154900  0.88845100  0.38845100  1
  F  F79  1  0.61154900  0.61154900  0.11154900  1
  F  F80  1  0.16493650  0.16493650  0.50000000  1
  F  F81  1  0.16493650  0.00000000  0.33506350  1
  F  F82  1  0.00000000  0.16493650  0.33506350  1
  F  F83  1  0.16493650  0.83506350  0.50000000  1
  F  F84  1  0.66493650  0.00000000  0.16493650  1
  F  F85  1  0.50000000  0.83506350  0.16493650  1
  F  F86  1  0.83506350  0.16493650  0.50000000  1
  F  F87  1  0.33506350  0.00000000  0.16493650  1
  F  F88  1  0.50000000  0.16493650  0.16493650  1
  F  F89  1  0.83506350  0.83506350  0.50000000  1
  F  F90  1  0.83506350  0.00000000  0.33506350  1
  F  F91  1  0.00000000  0.83506350  0.33506350  1
  F  F92  1  0.61154900  0.61154900  0.88845100  1
  F  F93  1  0.61154900  0.88845100  0.61154900  1
  F  F94  1  0.88845100  0.61154900  0.61154900  1
  F  F95  1  0.88845100  0.88845100  0.88845100  1
  F  F96  1  0.88845100  0.38845100  0.61154900  1
  F  F97  1  0.88845100  0.11154900  0.88845100  1
  F  F98  1  0.61154900  0.38845100  0.88845100  1
  F  F99  1  0.61154900  0.11154900  0.61154900  1
  F  F100  1  0.16493650  0.66493650  0.00000000  1
  F  F101  1  0.16493650  0.50000000  0.83506350  1
  F  F102  1  0.00000000  0.66493650  0.83506350  1
  F  F103  1  0.16493650  0.33506350  0.00000000  1
  F  F104  1  0.66493650  0.50000000  0.66493650  1
  F  F105  1  0.50000000  0.33506350  0.66493650  1
  F  F106  1  0.83506350  0.66493650  0.00000000  1
  F  F107  1  0.33506350  0.50000000  0.66493650  1
  F  F108  1  0.50000000  0.66493650  0.66493650  1
  F  F109  1  0.83506350  0.33506350  0.00000000  1
  F  F110  1  0.83506350  0.50000000  0.83506350  1
  F  F111  1  0.00000000  0.33506350  0.83506350  1
