# generated using pymatgen
data_CsCuBr3
_symmetry_space_group_name_H-M   'P 1'
_cell_length_a   7.83866800
_cell_length_b   12.99711000
_cell_length_c   13.05974500
_cell_angle_alpha   90.00000000
_cell_angle_beta   90.00000000
_cell_angle_gamma   90.00000000
_symmetry_Int_Tables_number   1
_chemical_formula_structural   CsCuBr3
_chemical_formula_sum   'Cs8 Cu8 Br24'
_cell_volume   1330.52721565
_cell_formula_units_Z   8
loop_
 _symmetry_equiv_pos_site_id
 _symmetry_equiv_pos_as_xyz
  1  'x, y, z'
loop_
 _atom_site_type_symbol
 _atom_site_label
 _atom_site_symmetry_multiplicity
 _atom_site_fract_x
 _atom_site_fract_y
 _atom_site_fract_z
 _atom_site_occupancy
  Cs  Cs0  1  0.01176100  0.00000000  0.00000000  1
  Cs  Cs1  1  0.98823900  0.00000000  0.50000000  1
  Cs  Cs2  1  0.50000000  0.81859400  0.75000000  1
  Cs  Cs3  1  0.50000000  0.18140600  0.25000000  1
  Cs  Cs4  1  0.51176100  0.50000000  0.00000000  1
  Cs  Cs5  1  0.48823900  0.50000000  0.50000000  1
  Cs  Cs6  1  0.00000000  0.31859400  0.75000000  1
  Cs  Cs7  1  0.00000000  0.68140600  0.25000000  1
  Cu  Cu8  1  0.50552050  0.84915650  0.12173500  1
  Cu  Cu9  1  0.49447950  0.15084350  0.62173500  1
  Cu  Cu10  1  0.50552050  0.15084350  0.87826500  1
  Cu  Cu11  1  0.49447950  0.84915650  0.37826500  1
  Cu  Cu12  1  0.00552050  0.34915650  0.12173500  1
  Cu  Cu13  1  0.99447950  0.65084350  0.62173500  1
  Cu  Cu14  1  0.00552050  0.65084350  0.87826500  1
  Cu  Cu15  1  0.99447950  0.34915650  0.37826500  1
  Br  Br16  1  0.70425450  0.76869950  0.48193700  1
  Br  Br17  1  0.29574550  0.23130050  0.98193700  1
  Br  Br18  1  0.50037900  0.00000000  0.50000000  1
  Br  Br19  1  0.49962100  0.00000000  0.00000000  1
  Br  Br20  1  0.50000000  0.70253400  0.25000000  1
  Br  Br21  1  0.50000000  0.29746600  0.75000000  1
  Br  Br22  1  0.26250350  0.92904350  0.28781100  1
  Br  Br23  1  0.73749650  0.07095650  0.78781100  1
  Br  Br24  1  0.26250350  0.07095650  0.71218900  1
  Br  Br25  1  0.73749650  0.92904350  0.21218900  1
  Br  Br26  1  0.70425450  0.23130050  0.51806300  1
  Br  Br27  1  0.29574550  0.76869950  0.01806300  1
  Br  Br28  1  0.20425450  0.26869950  0.48193700  1
  Br  Br29  1  0.79574550  0.73130050  0.98193700  1
  Br  Br30  1  0.00037900  0.50000000  0.50000000  1
  Br  Br31  1  0.99962100  0.50000000  0.00000000  1
  Br  Br32  1  0.00000000  0.20253400  0.25000000  1
  Br  Br33  1  0.00000000  0.79746600  0.75000000  1
  Br  Br34  1  0.76250350  0.42904350  0.28781100  1
  Br  Br35  1  0.23749650  0.57095650  0.78781100  1
  Br  Br36  1  0.76250350  0.57095650  0.71218900  1
  Br  Br37  1  0.23749650  0.42904350  0.21218900  1
  Br  Br38  1  0.20425450  0.73130050  0.51806300  1
  Br  Br39  1  0.79574550  0.26869950  0.01806300  1
