# generated using pymatgen
data_CsMgH3
_symmetry_space_group_name_H-M   'P 1'
_cell_length_a   6.25727931
_cell_length_b   6.25727931
_cell_length_c   22.38459551
_cell_angle_alpha   90.00000000
_cell_angle_beta   90.00000000
_cell_angle_gamma   120.00000000
_symmetry_Int_Tables_number   1
_chemical_formula_structural   CsMgH3
_chemical_formula_sum   'Cs9 Mg9 H27'
_cell_volume   759.01605931
_cell_formula_units_Z   9
loop_
 _symmetry_equiv_pos_site_id
 _symmetry_equiv_pos_as_xyz
  1  'x, y, z'
loop_
 _atom_site_type_symbol
 _atom_site_label
 _atom_site_symmetry_multiplicity
 _atom_site_fract_x
 _atom_site_fract_y
 _atom_site_fract_z
 _atom_site_occupancy
  Cs  Cs0  1  0.00000000  0.00000000  0.00000000  1
  Cs  Cs1  1  0.66666667  0.33333333  0.11953933  1
  Cs  Cs2  1  0.00000000  0.00000000  0.21379400  1
  Cs  Cs3  1  0.66666667  0.33333333  0.33333333  1
  Cs  Cs4  1  0.33333333  0.66666667  0.45287267  1
  Cs  Cs5  1  0.66666667  0.33333333  0.54712733  1
  Cs  Cs6  1  0.33333333  0.66666667  0.66666667  1
  Cs  Cs7  1  0.00000000  0.00000000  0.78620600  1
  Cs  Cs8  1  0.33333333  0.66666667  0.88046067  1
  Mg  Mg9  1  0.33333333  0.66666667  0.16666667  1
  Mg  Mg10  1  0.33333333  0.66666667  0.28752767  1
  Mg  Mg11  1  0.33333333  0.66666667  0.04580567  1
  Mg  Mg12  1  1.00000000  1.00000000  0.50000000  1
  Mg  Mg13  1  0.00000000  0.00000000  0.62086100  1
  Mg  Mg14  1  0.00000000  0.00000000  0.37913900  1
  Mg  Mg15  1  0.66666667  0.33333333  0.83333333  1
  Mg  Mg16  1  0.66666667  0.33333333  0.95419433  1
  Mg  Mg17  1  0.66666667  0.33333333  0.71247233  1
  H  H18  1  0.50000000  0.00000000  0.00000000  1
  H  H19  1  0.00000000  0.50000000  0.00000000  1
  H  H20  1  0.50000000  0.50000000  0.00000000  1
  H  H21  1  0.19641667  0.39283333  0.10750333  1
  H  H22  1  0.60716667  0.80358333  0.10750333  1
  H  H23  1  0.19641667  0.80358333  0.10750333  1
  H  H24  1  0.47025000  0.52975000  0.22583000  1
  H  H25  1  0.05950000  0.52975000  0.22583000  1
  H  H26  1  0.47025000  0.94050000  0.22583000  1
  H  H27  1  0.16666667  0.33333333  0.33333333  1
  H  H28  1  0.66666667  0.83333333  0.33333333  1
  H  H29  1  0.16666667  0.83333333  0.33333333  1
  H  H30  1  0.86308333  0.72616667  0.44083667  1
  H  H31  1  0.27383333  0.13691667  0.44083667  1
  H  H32  1  0.86308333  0.13691667  0.44083667  1
  H  H33  1  0.13691667  0.86308333  0.55916333  1
  H  H34  1  0.72616667  0.86308333  0.55916333  1
  H  H35  1  0.13691667  0.27383333  0.55916333  1
  H  H36  1  0.83333333  0.66666667  0.66666667  1
  H  H37  1  0.33333333  0.16666667  0.66666667  1
  H  H38  1  0.83333333  0.16666667  0.66666667  1
  H  H39  1  0.52975000  0.05950000  0.77417000  1
  H  H40  1  0.94050000  0.47025000  0.77417000  1
  H  H41  1  0.52975000  0.47025000  0.77417000  1
  H  H42  1  0.80358333  0.19641667  0.89249667  1
  H  H43  1  0.39283333  0.19641667  0.89249667  1
  H  H44  1  0.80358333  0.60716667  0.89249667  1
