# generated using pymatgen
data_K2CuH12(SO7)2
_symmetry_space_group_name_H-M   'P 1'
_cell_length_a   6.18425500
_cell_length_b   12.32451700
_cell_length_c   9.13744752
_cell_angle_alpha   90.00000000
_cell_angle_beta   104.19424761
_cell_angle_gamma   90.00000000
_symmetry_Int_Tables_number   1
_chemical_formula_structural   K2CuH12(SO7)2
_chemical_formula_sum   'K4 Cu2 H24 S4 O28'
_cell_volume   675.17531402
_cell_formula_units_Z   2
loop_
 _symmetry_equiv_pos_site_id
 _symmetry_equiv_pos_as_xyz
  1  'x, y, z'
loop_
 _atom_site_type_symbol
 _atom_site_label
 _atom_site_symmetry_multiplicity
 _atom_site_fract_x
 _atom_site_fract_y
 _atom_site_fract_z
 _atom_site_occupancy
  K  K0  1  0.65415300  0.15030100  0.37557900  1
  K  K1  1  0.65415300  0.34969900  0.87557900  1
  K  K2  1  0.34584700  0.65030100  0.12442100  1
  K  K3  1  0.34584700  0.84969900  0.62442100  1
  Cu  Cu4  1  0.00000000  0.00000000  0.00000000  1
  Cu  Cu5  1  0.00000000  0.50000000  0.50000000  1
  H  H6  1  0.32640000  0.43921600  0.39862200  1
  H  H7  1  0.07451900  0.39332200  0.78960000  1
  H  H8  1  0.00452200  0.69540000  0.33643600  1
  H  H9  1  0.67360000  0.56078400  0.60137800  1
  H  H10  1  0.31515200  0.14176300  0.03423600  1
  H  H11  1  0.31830800  0.58934100  0.70343100  1
  H  H12  1  0.92548100  0.89332200  0.71040000  1
  H  H13  1  0.31830800  0.91065900  0.20343100  1
  H  H14  1  0.91541700  0.37609700  0.26105700  1
  H  H15  1  0.32640000  0.06078400  0.89862200  1
  H  H16  1  0.08458300  0.87609700  0.23894300  1
  H  H17  1  0.91541700  0.12390300  0.76105700  1
  H  H18  1  0.31515200  0.35823700  0.53423600  1
  H  H19  1  0.99547800  0.19540000  0.16356400  1
  H  H20  1  0.08458300  0.62390300  0.73894300  1
  H  H21  1  0.68484800  0.64176300  0.46576400  1
  H  H22  1  0.99547800  0.30460000  0.66356400  1
  H  H23  1  0.68484800  0.85823700  0.96576400  1
  H  H24  1  0.07451900  0.10667800  0.28960000  1
  H  H25  1  0.67360000  0.93921600  0.10137800  1
  H  H26  1  0.92548100  0.60667800  0.21040000  1
  H  H27  1  0.68169200  0.41065900  0.29656900  1
  H  H28  1  0.00452200  0.80460000  0.83643600  1
  H  H29  1  0.68169200  0.08934100  0.79656900  1
  S  S30  1  0.27659600  0.13821000  0.60277600  1
  S  S31  1  0.72340400  0.86179000  0.39722400  1
  S  S32  1  0.72340400  0.63821000  0.89722400  1
  S  S33  1  0.27659600  0.36179000  0.10277600  1
  O  O34  1  0.04910100  0.33293600  0.12099400  1
  O  O35  1  0.25944000  0.07739900  0.46025000  1
  O  O36  1  0.95089900  0.83293600  0.37900600  1
  O  O37  1  0.28947800  0.43541900  0.49929400  1
  O  O38  1  0.41186700  0.26102000  0.10372900  1
  O  O39  1  0.60545900  0.93221300  0.26764600  1
  O  O40  1  0.71052200  0.56458100  0.50070600  1
  O  O41  1  0.60545900  0.56778700  0.76764600  1
  O  O42  1  0.16163900  0.88763700  0.15641200  1
  O  O43  1  0.28947800  0.06458100  0.99929400  1
  O  O44  1  0.83836100  0.38763700  0.34358800  1
  O  O45  1  0.39454100  0.43221300  0.23235400  1
  O  O46  1  0.16163900  0.61236300  0.65641200  1
  O  O47  1  0.58813300  0.76102000  0.39627100  1
  O  O48  1  0.71052200  0.93541900  0.00070600  1
  O  O49  1  0.74056000  0.57739900  0.03975000  1
  O  O50  1  0.04128300  0.62235600  0.30452600  1
  O  O51  1  0.58813300  0.73898000  0.89627100  1
  O  O52  1  0.25944000  0.42260100  0.96025000  1
  O  O53  1  0.95871700  0.37764400  0.69547400  1
  O  O54  1  0.83836100  0.11236300  0.84358800  1
  O  O55  1  0.95089900  0.66706400  0.87900600  1
  O  O56  1  0.41186700  0.23898000  0.60372900  1
  O  O57  1  0.95871700  0.12235600  0.19547400  1
  O  O58  1  0.39454100  0.06778700  0.73235400  1
  O  O59  1  0.04128300  0.87764400  0.80452600  1
  O  O60  1  0.04910100  0.16706400  0.62099400  1
  O  O61  1  0.74056000  0.92260100  0.53975000  1
