# generated using pymatgen
data_Hg2As3Br
_symmetry_space_group_name_H-M   'P 1'
_cell_length_a   8.30751600
_cell_length_b   9.51112600
_cell_length_c   8.38777066
_cell_angle_alpha   90.00000000
_cell_angle_beta   98.54085937
_cell_angle_gamma   90.00000000
_symmetry_Int_Tables_number   1
_chemical_formula_structural   Hg2As3Br
_chemical_formula_sum   'Hg8 As12 Br4'
_cell_volume   655.40013622
_cell_formula_units_Z   4
loop_
 _symmetry_equiv_pos_site_id
 _symmetry_equiv_pos_as_xyz
  1  'x, y, z'
loop_
 _atom_site_type_symbol
 _atom_site_label
 _atom_site_symmetry_multiplicity
 _atom_site_fract_x
 _atom_site_fract_y
 _atom_site_fract_z
 _atom_site_occupancy
  Hg  Hg0  1  0.72545400  0.86713100  0.65930900  1
  Hg  Hg1  1  0.27454600  0.86713100  0.84069100  1
  Hg  Hg2  1  0.72545400  0.13286900  0.15930900  1
  Hg  Hg3  1  0.27454600  0.13286900  0.34069100  1
  Hg  Hg4  1  0.22545400  0.36713100  0.65930900  1
  Hg  Hg5  1  0.77454600  0.36713100  0.84069100  1
  Hg  Hg6  1  0.22545400  0.63286900  0.15930900  1
  Hg  Hg7  1  0.77454600  0.63286900  0.34069100  1
  As  As8  1  0.87245600  0.93910900  0.01700600  1
  As  As9  1  0.12754400  0.93910900  0.48299400  1
  As  As10  1  0.12754400  0.06089100  0.98299400  1
  As  As11  1  0.50000000  0.70396100  0.75000000  1
  As  As12  1  0.50000000  0.29603900  0.25000000  1
  As  As13  1  0.87245600  0.06089100  0.51700600  1
  As  As14  1  0.37245600  0.43910900  0.01700600  1
  As  As15  1  0.62754400  0.43910900  0.48299400  1
  As  As16  1  0.62754400  0.56089100  0.98299400  1
  As  As17  1  0.00000000  0.20396100  0.75000000  1
  As  As18  1  0.00000000  0.79603900  0.25000000  1
  As  As19  1  0.37245600  0.56089100  0.51700600  1
  Br  Br20  1  0.50000000  0.13504200  0.75000000  1
  Br  Br21  1  0.50000000  0.86495800  0.25000000  1
  Br  Br22  1  0.00000000  0.63504200  0.75000000  1
  Br  Br23  1  0.00000000  0.36495800  0.25000000  1
