# generated using pymatgen
data_Cd5P3ClO12
_symmetry_space_group_name_H-M   'P 1'
_cell_length_a   9.92485413
_cell_length_b   9.92485413
_cell_length_c   6.57008800
_cell_angle_alpha   90.00000000
_cell_angle_beta   90.00000000
_cell_angle_gamma   120.00000000
_symmetry_Int_Tables_number   1
_chemical_formula_structural   Cd5P3ClO12
_chemical_formula_sum   'Cd10 P6 Cl2 O24'
_cell_volume   560.46704747
_cell_formula_units_Z   2
loop_
 _symmetry_equiv_pos_site_id
 _symmetry_equiv_pos_as_xyz
  1  'x, y, z'
loop_
 _atom_site_type_symbol
 _atom_site_label
 _atom_site_symmetry_multiplicity
 _atom_site_fract_x
 _atom_site_fract_y
 _atom_site_fract_z
 _atom_site_occupancy
  Cd  Cd0  1  0.33333333  0.66666667  0.50429500  1
  Cd  Cd1  1  0.66666667  0.33333333  0.00429500  1
  Cd  Cd2  1  0.33333333  0.66666667  0.99570500  1
  Cd  Cd3  1  0.66666667  0.33333333  0.49570500  1
  Cd  Cd4  1  0.02854000  0.27608500  0.25000000  1
  Cd  Cd5  1  0.75245500  0.02854000  0.75000000  1
  Cd  Cd6  1  0.27608500  0.24754500  0.75000000  1
  Cd  Cd7  1  0.72391500  0.75245500  0.25000000  1
  Cd  Cd8  1  0.24754500  0.97146000  0.25000000  1
  Cd  Cd9  1  0.97146000  0.72391500  0.75000000  1
  P  P10  1  0.62065000  0.59581300  0.75000000  1
  P  P11  1  0.97516300  0.37935000  0.75000000  1
  P  P12  1  0.02483700  0.62065000  0.25000000  1
  P  P13  1  0.59581300  0.97516300  0.25000000  1
  P  P14  1  0.37935000  0.40418700  0.25000000  1
  P  P15  1  0.40418700  0.02483700  0.75000000  1
  Cl  Cl16  1  0.00000000  0.00000000  0.75000000  1
  Cl  Cl17  1  0.00000000  0.00000000  0.25000000  1
  O  O18  1  0.64311100  0.14910900  0.25000000  1
  O  O19  1  0.27114800  0.34406500  0.06035900  1
  O  O20  1  0.34406500  0.07291700  0.93964100  1
  O  O21  1  0.27114800  0.34406500  0.43964100  1
  O  O22  1  0.07291700  0.72885200  0.43964100  1
  O  O23  1  0.92708300  0.27114800  0.93964100  1
  O  O24  1  0.72885200  0.65593500  0.93964100  1
  O  O25  1  0.65593500  0.92708300  0.43964100  1
  O  O26  1  0.65593500  0.92708300  0.06035900  1
  O  O27  1  0.72885200  0.65593500  0.56035900  1
  O  O28  1  0.34406500  0.07291700  0.56035900  1
  O  O29  1  0.41189700  0.86745600  0.25000000  1
  O  O30  1  0.54444100  0.41189700  0.75000000  1
  O  O31  1  0.86745600  0.45555900  0.75000000  1
  O  O32  1  0.13254400  0.54444100  0.25000000  1
  O  O33  1  0.45555900  0.58810300  0.25000000  1
  O  O34  1  0.35688900  0.85089100  0.75000000  1
  O  O35  1  0.50599800  0.35688900  0.25000000  1
  O  O36  1  0.85089100  0.49400200  0.25000000  1
  O  O37  1  0.14910900  0.50599800  0.75000000  1
  O  O38  1  0.49400200  0.64311100  0.75000000  1
  O  O39  1  0.07291700  0.72885200  0.06035900  1
  O  O40  1  0.58810300  0.13254400  0.75000000  1
  O  O41  1  0.92708300  0.27114800  0.56035900  1
