# generated using pymatgen
data_Na4Sn3S8
_symmetry_space_group_name_H-M   'P 1'
_cell_length_a   11.43805000
_cell_length_b   7.43345600
_cell_length_c   17.86213367
_cell_angle_alpha   90.00000000
_cell_angle_beta   94.95890053
_cell_angle_gamma   90.00000000
_symmetry_Int_Tables_number   1
_chemical_formula_structural   Na4Sn3S8
_chemical_formula_sum   'Na16 Sn12 S32'
_cell_volume   1513.02975739
_cell_formula_units_Z   4
loop_
 _symmetry_equiv_pos_site_id
 _symmetry_equiv_pos_as_xyz
  1  'x, y, z'
loop_
 _atom_site_type_symbol
 _atom_site_label
 _atom_site_symmetry_multiplicity
 _atom_site_fract_x
 _atom_site_fract_y
 _atom_site_fract_z
 _atom_site_occupancy
  Na  Na0  1  0.26313500  0.16496900  0.12387100  1
  Na  Na1  1  0.73686500  0.83503100  0.87612900  1
  Na  Na2  1  0.26313500  0.83503100  0.62387100  1
  Na  Na3  1  0.73686500  0.16496900  0.37612900  1
  Na  Na4  1  0.35932100  0.87349200  0.83594800  1
  Na  Na5  1  0.64067900  0.87349200  0.66405200  1
  Na  Na6  1  0.35932100  0.12650800  0.33594800  1
  Na  Na7  1  0.64067900  0.12650800  0.16405200  1
  Na  Na8  1  0.76313500  0.66496900  0.12387100  1
  Na  Na9  1  0.23686500  0.33503100  0.87612900  1
  Na  Na10  1  0.76313500  0.33503100  0.62387100  1
  Na  Na11  1  0.23686500  0.66496900  0.37612900  1
  Na  Na12  1  0.85932100  0.37349200  0.83594800  1
  Na  Na13  1  0.14067900  0.37349200  0.66405200  1
  Na  Na14  1  0.85932100  0.62650800  0.33594800  1
  Na  Na15  1  0.14067900  0.62650800  0.16405200  1
  Sn  Sn16  1  0.60130000  0.33346400  0.96756800  1
  Sn  Sn17  1  0.39870000  0.33346400  0.53243200  1
  Sn  Sn18  1  0.39870000  0.66653600  0.03243200  1
  Sn  Sn19  1  0.60130000  0.66653600  0.46756800  1
  Sn  Sn20  1  0.50000000  0.41659800  0.75000000  1
  Sn  Sn21  1  0.50000000  0.58340200  0.25000000  1
  Sn  Sn22  1  0.10130000  0.83346400  0.96756800  1
  Sn  Sn23  1  0.89870000  0.83346400  0.53243200  1
  Sn  Sn24  1  0.89870000  0.16653600  0.03243200  1
  Sn  Sn25  1  0.10130000  0.16653600  0.46756800  1
  Sn  Sn26  1  0.00000000  0.91659800  0.75000000  1
  Sn  Sn27  1  0.00000000  0.08340200  0.25000000  1
  S  S28  1  0.47991350  0.34880350  0.07301500  1
  S  S29  1  0.52008650  0.34880350  0.42698500  1
  S  S30  1  0.51962250  0.18174550  0.85029100  1
  S  S31  1  0.51962250  0.81825450  0.35029100  1
  S  S32  1  0.48037750  0.18174550  0.64970900  1
  S  S33  1  0.48037750  0.81825450  0.14970900  1
  S  S34  1  0.29746000  0.03122800  0.48430900  1
  S  S35  1  0.70254000  0.03122800  0.01569100  1
  S  S36  1  0.70254000  0.96877200  0.51569100  1
  S  S37  1  0.29746000  0.96877200  0.98430900  1
  S  S38  1  0.81709300  0.07025000  0.74731300  1
  S  S39  1  0.18290700  0.07025000  0.75268700  1
  S  S40  1  0.18290700  0.92975000  0.25268700  1
  S  S41  1  0.81709300  0.92975000  0.24731300  1
  S  S42  1  0.52008650  0.65119650  0.92698500  1
  S  S43  1  0.47991350  0.65119650  0.57301500  1
  S  S44  1  0.97991350  0.84880350  0.07301500  1
  S  S45  1  0.02008650  0.84880350  0.42698500  1
  S  S46  1  0.01962250  0.68174550  0.85029100  1
  S  S47  1  0.01962250  0.31825450  0.35029100  1
  S  S48  1  0.98037750  0.68174550  0.64970900  1
  S  S49  1  0.98037750  0.31825450  0.14970900  1
  S  S50  1  0.79746000  0.53122800  0.48430900  1
  S  S51  1  0.20254000  0.53122800  0.01569100  1
  S  S52  1  0.20254000  0.46877200  0.51569100  1
  S  S53  1  0.79746000  0.46877200  0.98430900  1
  S  S54  1  0.31709300  0.57025000  0.74731300  1
  S  S55  1  0.68290700  0.57025000  0.75268700  1
  S  S56  1  0.68290700  0.42975000  0.25268700  1
  S  S57  1  0.31709300  0.42975000  0.24731300  1
  S  S58  1  0.02008650  0.15119650  0.92698500  1
  S  S59  1  0.97991350  0.15119650  0.57301500  1
