# generated using pymatgen
data_CaAl4Si2(HO6)2
_symmetry_space_group_name_H-M   'P 1'
_cell_length_a   5.15353000
_cell_length_b   8.93361200
_cell_length_c   19.41433026
_cell_angle_alpha   90.00000000
_cell_angle_beta   95.61363596
_cell_angle_gamma   90.00000000
_symmetry_Int_Tables_number   1
_chemical_formula_structural   CaAl4Si2(HO6)2
_chemical_formula_sum   'Ca4 Al16 Si8 H8 O48'
_cell_volume   889.54205598
_cell_formula_units_Z   4
loop_
 _symmetry_equiv_pos_site_id
 _symmetry_equiv_pos_as_xyz
  1  'x, y, z'
loop_
 _atom_site_type_symbol
 _atom_site_label
 _atom_site_symmetry_multiplicity
 _atom_site_fract_x
 _atom_site_fract_y
 _atom_site_fract_z
 _atom_site_occupancy
  Ca  Ca0  1  0.00080650  0.90675650  0.25083700  1
  Ca  Ca1  1  0.50080650  0.59324350  0.75083700  1
  Ca  Ca2  1  0.50080650  0.40675650  0.25083700  1
  Ca  Ca3  1  0.00080650  0.09324350  0.75083700  1
  Al  Al4  1  0.95187050  0.75673150  0.64243100  1
  Al  Al5  1  0.45187050  0.74326850  0.14243100  1
  Al  Al6  1  0.25021850  0.91771950  0.00100300  1
  Al  Al7  1  0.75021850  0.58228050  0.50100300  1
  Al  Al8  1  0.24938800  0.58493700  0.00086800  1
  Al  Al9  1  0.74938800  0.91506300  0.50086800  1
  Al  Al10  1  0.03755300  0.57056600  0.35956200  1
  Al  Al11  1  0.53755300  0.92943400  0.85956200  1
  Al  Al12  1  0.45187050  0.25673150  0.64243100  1
  Al  Al13  1  0.95187050  0.24326850  0.14243100  1
  Al  Al14  1  0.75021850  0.41771950  0.00100300  1
  Al  Al15  1  0.25021850  0.08228050  0.50100300  1
  Al  Al16  1  0.74938800  0.08493700  0.00086800  1
  Al  Al17  1  0.24938800  0.41506300  0.50086800  1
  Al  Al18  1  0.53755300  0.07056600  0.35956200  1
  Al  Al19  1  0.03755300  0.42943400  0.85956200  1
  Si  Si20  1  0.96487400  0.57332000  0.14572100  1
  Si  Si21  1  0.46487400  0.92668000  0.64572100  1
  Si  Si22  1  0.04742650  0.75850650  0.85611500  1
  Si  Si23  1  0.54742650  0.74149350  0.35611500  1
  Si  Si24  1  0.46487400  0.07332000  0.14572100  1
  Si  Si25  1  0.96487400  0.42668000  0.64572100  1
  Si  Si26  1  0.54742650  0.25850650  0.85611500  1
  Si  Si27  1  0.04742650  0.24149350  0.35611500  1
  H  H28  1  0.36290150  0.65482550  0.56190100  1
  H  H29  1  0.86290150  0.84517450  0.06190100  1
  H  H30  1  0.13337000  0.84318800  0.43873400  1
  H  H31  1  0.63337000  0.65681200  0.93873400  1
  H  H32  1  0.86290150  0.15482550  0.56190100  1
  H  H33  1  0.36290150  0.34517450  0.06190100  1
  H  H34  1  0.63337000  0.34318800  0.43873400  1
  H  H35  1  0.13337000  0.15681200  0.93873400  1
  O  O36  1  0.45276950  0.56242050  0.55261500  1
  O  O37  1  0.95276950  0.93757950  0.05261500  1
  O  O38  1  0.04359100  0.93484100  0.44916300  1
  O  O39  1  0.54359100  0.56515900  0.94916300  1
  O  O40  1  0.76672400  0.89716100  0.68072900  1
  O  O41  1  0.26672400  0.60283900  0.18072900  1
  O  O42  1  0.71282450  0.60739550  0.32140300  1
  O  O43  1  0.21282450  0.89260450  0.82140300  1
  O  O44  1  0.28846850  0.78470150  0.66963500  1
  O  O45  1  0.78846850  0.71529850  0.16963500  1
  O  O46  1  0.53648600  0.94823300  0.94855600  1
  O  O47  1  0.03648600  0.55176700  0.44855600  1
  O  O48  1  0.95639400  0.55991900  0.06138800  1
  O  O49  1  0.45639400  0.94008100  0.56138800  1
  O  O50  1  0.10833650  0.75505950  0.94046700  1
  O  O51  1  0.60833650  0.74494050  0.44046700  1
  O  O52  1  0.37714800  0.74969000  0.05328700  1
  O  O53  1  0.87714800  0.75031000  0.55328700  1
  O  O54  1  0.13797550  0.59925250  0.82236400  1
  O  O55  1  0.63797550  0.90074750  0.32236400  1
  O  O56  1  0.36249100  0.91710900  0.17926300  1
  O  O57  1  0.86249100  0.58289100  0.67926300  1
  O  O58  1  0.73268250  0.77999350  0.83235900  1
  O  O59  1  0.23268250  0.72000650  0.33235900  1
  O  O60  1  0.95276950  0.06242050  0.55261500  1
  O  O61  1  0.45276950  0.43757950  0.05261500  1
  O  O62  1  0.54359100  0.43484100  0.44916300  1
  O  O63  1  0.04359100  0.06515900  0.94916300  1
  O  O64  1  0.26672400  0.39716100  0.68072900  1
  O  O65  1  0.76672400  0.10283900  0.18072900  1
  O  O66  1  0.21282450  0.10739550  0.32140300  1
  O  O67  1  0.71282450  0.39260450  0.82140300  1
  O  O68  1  0.78846850  0.28470150  0.66963500  1
  O  O69  1  0.28846850  0.21529850  0.16963500  1
  O  O70  1  0.03648600  0.44823300  0.94855600  1
  O  O71  1  0.53648600  0.05176700  0.44855600  1
  O  O72  1  0.45639400  0.05991900  0.06138800  1
  O  O73  1  0.95639400  0.44008100  0.56138800  1
  O  O74  1  0.60833650  0.25505950  0.94046700  1
  O  O75  1  0.10833650  0.24494050  0.44046700  1
  O  O76  1  0.87714800  0.24969000  0.05328700  1
  O  O77  1  0.37714800  0.25031000  0.55328700  1
  O  O78  1  0.63797550  0.09925250  0.82236400  1
  O  O79  1  0.13797550  0.40074750  0.32236400  1
  O  O80  1  0.86249100  0.41710900  0.17926300  1
  O  O81  1  0.36249100  0.08289100  0.67926300  1
  O  O82  1  0.23268250  0.27999350  0.83235900  1
  O  O83  1  0.73268250  0.22000650  0.33235900  1
