# generated using pymatgen
data_BaPbO3
_symmetry_space_group_name_H-M   'P 1'
_cell_length_a   8.71686000
_cell_length_b   8.67896200
_cell_length_c   6.13110795
_cell_angle_alpha   90.00000000
_cell_angle_beta   134.47354810
_cell_angle_gamma   90.00000000
_symmetry_Int_Tables_number   1
_chemical_formula_structural   BaPbO3
_chemical_formula_sum   'Ba4 Pb4 O12'
_cell_volume   330.98309741
_cell_formula_units_Z   4
loop_
 _symmetry_equiv_pos_site_id
 _symmetry_equiv_pos_as_xyz
  1  'x, y, z'
loop_
 _atom_site_type_symbol
 _atom_site_label
 _atom_site_symmetry_multiplicity
 _atom_site_fract_x
 _atom_site_fract_y
 _atom_site_fract_z
 _atom_site_occupancy
  Ba  Ba0  1  0.75649400  0.50000000  0.00541700  1
  Ba  Ba1  1  0.24350600  0.50000000  0.99458300  1
  Ba  Ba2  1  0.25649400  0.00000000  0.00541700  1
  Ba  Ba3  1  0.74350600  0.00000000  0.99458300  1
  Pb  Pb4  1  0.25000000  0.75000000  0.50000000  1
  Pb  Pb5  1  0.75000000  0.75000000  0.50000000  1
  Pb  Pb6  1  0.75000000  0.25000000  0.50000000  1
  Pb  Pb7  1  0.25000000  0.25000000  0.50000000  1
  O  O8  1  0.31957000  0.50000000  0.56103000  1
  O  O9  1  0.68043000  0.50000000  0.43897000  1
  O  O10  1  0.00000000  0.71243000  0.00000000  1
  O  O11  1  0.00000000  0.28757000  0.00000000  1
  O  O12  1  0.00000000  0.70687300  0.50000000  1
  O  O13  1  0.00000000  0.29312700  0.50000000  1
  O  O14  1  0.81957000  0.00000000  0.56103000  1
  O  O15  1  0.18043000  0.00000000  0.43897000  1
  O  O16  1  0.50000000  0.21243000  0.00000000  1
  O  O17  1  0.50000000  0.78757000  0.00000000  1
  O  O18  1  0.50000000  0.20687300  0.50000000  1
  O  O19  1  0.50000000  0.79312700  0.50000000  1
