# generated using pymatgen
data_CuSeO3
_symmetry_space_group_name_H-M   'P 1'
_cell_length_a   6.03593800
_cell_length_b   7.26511200
_cell_length_c   12.36079800
_cell_angle_alpha   90.00000000
_cell_angle_beta   90.00000000
_cell_angle_gamma   90.00000000
_symmetry_Int_Tables_number   1
_chemical_formula_structural   CuSeO3
_chemical_formula_sum   'Cu8 Se8 O24'
_cell_volume   542.04281646
_cell_formula_units_Z   8
loop_
 _symmetry_equiv_pos_site_id
 _symmetry_equiv_pos_as_xyz
  1  'x, y, z'
loop_
 _atom_site_type_symbol
 _atom_site_label
 _atom_site_symmetry_multiplicity
 _atom_site_fract_x
 _atom_site_fract_y
 _atom_site_fract_z
 _atom_site_occupancy
  Cu  Cu0  1  0.84579800  0.42496600  0.40631400  1
  Cu  Cu1  1  0.34579800  0.57503400  0.09368600  1
  Cu  Cu2  1  0.65420200  0.92496600  0.59368600  1
  Cu  Cu3  1  0.15420200  0.07503400  0.90631400  1
  Cu  Cu4  1  0.15420200  0.57503400  0.59368600  1
  Cu  Cu5  1  0.65420200  0.42496600  0.90631400  1
  Cu  Cu6  1  0.34579800  0.07503400  0.40631400  1
  Cu  Cu7  1  0.84579800  0.92496600  0.09368600  1
  Se  Se8  1  0.89065700  0.95153800  0.35557600  1
  Se  Se9  1  0.39065700  0.04846200  0.14442400  1
  Se  Se10  1  0.60934300  0.45153800  0.64442400  1
  Se  Se11  1  0.10934300  0.54846200  0.85557600  1
  Se  Se12  1  0.10934300  0.04846200  0.64442400  1
  Se  Se13  1  0.60934300  0.95153800  0.85557600  1
  Se  Se14  1  0.39065700  0.54846200  0.35557600  1
  Se  Se15  1  0.89065700  0.45153800  0.14442400  1
  O  O16  1  0.02718200  0.64480600  0.09017400  1
  O  O17  1  0.52718200  0.35519400  0.40982600  1
  O  O18  1  0.47281800  0.14480600  0.90982600  1
  O  O19  1  0.97281800  0.85519400  0.59017400  1
  O  O20  1  0.97281800  0.35519400  0.90982600  1
  O  O21  1  0.47281800  0.64480600  0.59017400  1
  O  O22  1  0.52718200  0.85519400  0.09017400  1
  O  O23  1  0.02718200  0.14480600  0.40982600  1
  O  O24  1  0.64019300  0.46163900  0.06648600  1
  O  O25  1  0.14019300  0.53836100  0.43351400  1
  O  O26  1  0.85980700  0.96163900  0.93351400  1
  O  O27  1  0.35980700  0.03836100  0.56648600  1
  O  O28  1  0.35980700  0.53836100  0.93351400  1
  O  O29  1  0.85980700  0.46163900  0.56648600  1
  O  O30  1  0.14019300  0.03836100  0.06648600  1
  O  O31  1  0.64019300  0.96163900  0.43351400  1
  O  O32  1  0.79356700  0.04065400  0.23559300  1
  O  O33  1  0.29356700  0.95934600  0.26440700  1
  O  O34  1  0.70643300  0.54065400  0.76440700  1
  O  O35  1  0.20643300  0.45934600  0.73559300  1
  O  O36  1  0.20643300  0.95934600  0.76440700  1
  O  O37  1  0.70643300  0.04065400  0.73559300  1
  O  O38  1  0.29356700  0.45934600  0.23559300  1
  O  O39  1  0.79356700  0.54065400  0.26440700  1
