# generated using pymatgen
data_BaH2Cl2O7
_symmetry_space_group_name_H-M   'P 1'
_cell_length_a   12.87903600
_cell_length_b   8.03186400
_cell_length_c   9.05811587
_cell_angle_alpha   90.00000000
_cell_angle_beta   132.00277855
_cell_angle_gamma   90.00000000
_symmetry_Int_Tables_number   1
_chemical_formula_structural   BaH2Cl2O7
_chemical_formula_sum   'Ba4 H8 Cl8 O28'
_cell_volume   696.29306382
_cell_formula_units_Z   4
loop_
 _symmetry_equiv_pos_site_id
 _symmetry_equiv_pos_as_xyz
  1  'x, y, z'
loop_
 _atom_site_type_symbol
 _atom_site_label
 _atom_site_symmetry_multiplicity
 _atom_site_fract_x
 _atom_site_fract_y
 _atom_site_fract_z
 _atom_site_occupancy
  Ba  Ba0  1  0.00000000  0.85519000  0.25000000  1
  Ba  Ba1  1  0.50000000  0.64481000  0.75000000  1
  Ba  Ba2  1  0.50000000  0.35519000  0.25000000  1
  Ba  Ba3  1  0.00000000  0.14481000  0.75000000  1
  H  H4  1  0.54199400  0.76417400  0.36570100  1
  H  H5  1  0.95800600  0.26417400  0.13429900  1
  H  H6  1  0.95800600  0.73582600  0.63429900  1
  H  H7  1  0.54199400  0.23582600  0.86570100  1
  H  H8  1  0.04199400  0.26417400  0.36570100  1
  H  H9  1  0.45800600  0.76417400  0.13429900  1
  H  H10  1  0.45800600  0.23582600  0.63429900  1
  H  H11  1  0.04199400  0.73582600  0.86570100  1
  Cl  Cl12  1  0.19460600  0.48153800  0.18905500  1
  Cl  Cl13  1  0.30539400  0.98153800  0.31094500  1
  Cl  Cl14  1  0.30539400  0.01846200  0.81094500  1
  Cl  Cl15  1  0.19460600  0.51846200  0.68905500  1
  Cl  Cl16  1  0.69460600  0.98153800  0.18905500  1
  Cl  Cl17  1  0.80539400  0.48153800  0.31094500  1
  Cl  Cl18  1  0.80539400  0.51846200  0.81094500  1
  Cl  Cl19  1  0.69460600  0.01846200  0.68905500  1
  O  O20  1  0.50000000  0.69260100  0.25000000  1
  O  O21  1  0.00000000  0.80739900  0.75000000  1
  O  O22  1  0.19036950  0.58706450  0.52928800  1
  O  O23  1  0.30963050  0.08706450  0.97071200  1
  O  O24  1  0.30963050  0.91293550  0.47071200  1
  O  O25  1  0.19036950  0.41293550  0.02928800  1
  O  O26  1  0.61432400  0.85689600  0.61135100  1
  O  O27  1  0.38567600  0.85689600  0.88864900  1
  O  O28  1  0.88567600  0.64310400  0.38864900  1
  O  O29  1  0.11432400  0.64310400  0.11135100  1
  O  O30  1  0.84567700  0.97634200  0.86005400  1
  O  O31  1  0.15432300  0.97634200  0.63994600  1
  O  O32  1  0.65432300  0.52365800  0.13994600  1
  O  O33  1  0.34567700  0.52365800  0.36005400  1
  O  O34  1  0.00000000  0.19260100  0.25000000  1
  O  O35  1  0.50000000  0.30739900  0.75000000  1
  O  O36  1  0.69036950  0.08706450  0.52928800  1
  O  O37  1  0.80963050  0.58706450  0.97071200  1
  O  O38  1  0.80963050  0.41293550  0.47071200  1
  O  O39  1  0.69036950  0.91293550  0.02928800  1
  O  O40  1  0.11432400  0.35689600  0.61135100  1
  O  O41  1  0.88567600  0.35689600  0.88864900  1
  O  O42  1  0.38567600  0.14310400  0.38864900  1
  O  O43  1  0.61432400  0.14310400  0.11135100  1
  O  O44  1  0.34567700  0.47634200  0.86005400  1
  O  O45  1  0.65432300  0.47634200  0.63994600  1
  O  O46  1  0.15432300  0.02365800  0.13994600  1
  O  O47  1  0.84567700  0.02365800  0.36005400  1
