# generated using pymatgen
data_AlP(H2O3)2
_symmetry_space_group_name_H-M   'P 1'
_cell_length_a   5.21059700
_cell_length_b   9.60964000
_cell_length_c   9.98736854
_cell_angle_alpha   90.00000000
_cell_angle_beta   121.11411272
_cell_angle_gamma   90.00000000
_symmetry_Int_Tables_number   1
_chemical_formula_structural   AlP(H2O3)2
_chemical_formula_sum   'Al4 P4 H16 O24'
_cell_volume   428.14451161
_cell_formula_units_Z   4
loop_
 _symmetry_equiv_pos_site_id
 _symmetry_equiv_pos_as_xyz
  1  'x, y, z'
loop_
 _atom_site_type_symbol
 _atom_site_label
 _atom_site_symmetry_multiplicity
 _atom_site_fract_x
 _atom_site_fract_y
 _atom_site_fract_z
 _atom_site_occupancy
  Al  Al0  1  0.09571900  0.67460000  0.69271400  1
  Al  Al1  1  0.90428100  0.17460000  0.80728600  1
  Al  Al2  1  0.90428100  0.32540000  0.30728600  1
  Al  Al3  1  0.09571900  0.82540000  0.19271400  1
  P  P4  1  0.72522700  0.85271400  0.81592500  1
  P  P5  1  0.27477300  0.35271400  0.68407500  1
  P  P6  1  0.27477300  0.14728600  0.18407500  1
  P  P7  1  0.72522700  0.64728600  0.31592500  1
  H  H8  1  0.53793800  0.85341400  0.48031400  1
  H  H9  1  0.46206200  0.35341400  0.01968600  1
  H  H10  1  0.46206200  0.14658600  0.51968600  1
  H  H11  1  0.53793800  0.64658600  0.98031400  1
  H  H12  1  0.24456700  0.82768700  0.48603200  1
  H  H13  1  0.75543300  0.32768700  0.01396800  1
  H  H14  1  0.75543300  0.17231300  0.51396800  1
  H  H15  1  0.24456700  0.67231300  0.98603200  1
  H  H16  1  0.40420200  0.05964300  0.83134800  1
  H  H17  1  0.59579800  0.55964300  0.66865200  1
  H  H18  1  0.87681300  0.04250400  0.21804600  1
  H  H19  1  0.12318700  0.54250400  0.28195400  1
  H  H20  1  0.12318700  0.95749600  0.78195400  1
  H  H21  1  0.87681300  0.45749600  0.71804600  1
  H  H22  1  0.59579800  0.94035700  0.16865200  1
  H  H23  1  0.40420200  0.44035700  0.33134800  1
  O  O24  1  0.89099600  0.71722900  0.47844000  1
  O  O25  1  0.59482000  0.29353900  0.78131200  1
  O  O26  1  0.59482000  0.20646100  0.28131200  1
  O  O27  1  0.40518000  0.79353900  0.71868800  1
  O  O28  1  0.70885400  0.01361400  0.82739700  1
  O  O29  1  0.29114600  0.51361400  0.67260300  1
  O  O30  1  0.29114600  0.98638600  0.17260300  1
  O  O31  1  0.70885400  0.48638600  0.32739700  1
  O  O32  1  0.79282500  0.55165200  0.67471700  1
  O  O33  1  0.20717500  0.05165200  0.82528300  1
  O  O34  1  0.20717500  0.44834800  0.32528300  1
  O  O35  1  0.79282500  0.94834800  0.17471700  1
  O  O36  1  0.31905000  0.63550300  0.91992900  1
  O  O37  1  0.68095000  0.13550300  0.58007100  1
  O  O38  1  0.68095000  0.36449700  0.08007100  1
  O  O39  1  0.31905000  0.86449700  0.41992900  1
  O  O40  1  0.10900400  0.28277100  0.52156000  1
  O  O41  1  0.89099600  0.78277100  0.97844000  1
  O  O42  1  0.89612300  0.67677000  0.22846600  1
  O  O43  1  0.10387700  0.17677000  0.27153400  1
  O  O44  1  0.10387700  0.32323000  0.77153400  1
  O  O45  1  0.89612300  0.82323000  0.72846600  1
  O  O46  1  0.40518000  0.70646100  0.21868800  1
  O  O47  1  0.10900400  0.21722900  0.02156000  1
