# generated using pymatgen
data_SrN6
_symmetry_space_group_name_H-M   'P 1'
_cell_length_a   6.18429400
_cell_length_b   11.64715600
_cell_length_c   12.10373000
_cell_angle_alpha   90.00000000
_cell_angle_beta   90.00000000
_cell_angle_gamma   90.00000000
_symmetry_Int_Tables_number   1
_chemical_formula_structural   SrN6
_chemical_formula_sum   'Sr8 N48'
_cell_volume   871.82485711
_cell_formula_units_Z   8
loop_
 _symmetry_equiv_pos_site_id
 _symmetry_equiv_pos_as_xyz
  1  'x, y, z'
loop_
 _atom_site_type_symbol
 _atom_site_label
 _atom_site_symmetry_multiplicity
 _atom_site_fract_x
 _atom_site_fract_y
 _atom_site_fract_z
 _atom_site_occupancy
  Sr  Sr0  1  0.50000000  0.00000000  0.00000000  1
  Sr  Sr1  1  0.75000000  0.75000000  0.75000000  1
  Sr  Sr2  1  0.50000000  0.50000000  0.50000000  1
  Sr  Sr3  1  0.75000000  0.25000000  0.25000000  1
  Sr  Sr4  1  0.00000000  0.00000000  0.50000000  1
  Sr  Sr5  1  0.25000000  0.75000000  0.25000000  1
  Sr  Sr6  1  0.00000000  0.50000000  0.00000000  1
  Sr  Sr7  1  0.25000000  0.25000000  0.75000000  1
  N  N8  1  0.39914350  0.81368450  0.87501400  1
  N  N9  1  0.39914350  0.68631550  0.62498600  1
  N  N10  1  0.25000000  0.75000000  0.62399700  1
  N  N11  1  0.25000000  0.75000000  0.87600300  1
  N  N12  1  0.50000000  0.00000000  0.62600300  1
  N  N13  1  0.00000000  0.00000000  0.87399700  1
  N  N14  1  0.64914350  0.56368450  0.87498600  1
  N  N15  1  0.64914350  0.93631550  0.62501400  1
  N  N16  1  0.85085650  0.56368450  0.62501400  1
  N  N17  1  0.85085650  0.93631550  0.87498600  1
  N  N18  1  0.10085650  0.68631550  0.87501400  1
  N  N19  1  0.10085650  0.81368450  0.62498600  1
  N  N20  1  0.39914350  0.31368450  0.37501400  1
  N  N21  1  0.39914350  0.18631550  0.12498600  1
  N  N22  1  0.25000000  0.25000000  0.12399700  1
  N  N23  1  0.25000000  0.25000000  0.37600300  1
  N  N24  1  0.50000000  0.50000000  0.12600300  1
  N  N25  1  0.00000000  0.50000000  0.37399700  1
  N  N26  1  0.64914350  0.06368450  0.37498600  1
  N  N27  1  0.64914350  0.43631550  0.12501400  1
  N  N28  1  0.85085650  0.06368450  0.12501400  1
  N  N29  1  0.85085650  0.43631550  0.37498600  1
  N  N30  1  0.10085650  0.18631550  0.37501400  1
  N  N31  1  0.10085650  0.31368450  0.12498600  1
  N  N32  1  0.89914350  0.81368450  0.37501400  1
  N  N33  1  0.89914350  0.68631550  0.12498600  1
  N  N34  1  0.75000000  0.75000000  0.12399700  1
  N  N35  1  0.75000000  0.75000000  0.37600300  1
  N  N36  1  0.00000000  0.00000000  0.12600300  1
  N  N37  1  0.50000000  0.00000000  0.37399700  1
  N  N38  1  0.14914350  0.56368450  0.37498600  1
  N  N39  1  0.14914350  0.93631550  0.12501400  1
  N  N40  1  0.35085650  0.56368450  0.12501400  1
  N  N41  1  0.35085650  0.93631550  0.37498600  1
  N  N42  1  0.60085650  0.68631550  0.37501400  1
  N  N43  1  0.60085650  0.81368450  0.12498600  1
  N  N44  1  0.89914350  0.31368450  0.87501400  1
  N  N45  1  0.89914350  0.18631550  0.62498600  1
  N  N46  1  0.75000000  0.25000000  0.62399700  1
  N  N47  1  0.75000000  0.25000000  0.87600300  1
  N  N48  1  0.00000000  0.50000000  0.62600300  1
  N  N49  1  0.50000000  0.50000000  0.87399700  1
  N  N50  1  0.14914350  0.06368450  0.87498600  1
  N  N51  1  0.14914350  0.43631550  0.62501400  1
  N  N52  1  0.35085650  0.06368450  0.62501400  1
  N  N53  1  0.35085650  0.43631550  0.87498600  1
  N  N54  1  0.60085650  0.18631550  0.87501400  1
  N  N55  1  0.60085650  0.31368450  0.62498600  1
