# generated using pymatgen
data_Ba4P2O
_symmetry_space_group_name_H-M   'P 1'
_cell_length_a   7.25727600
_cell_length_b   16.58632600
_cell_length_c   7.62743200
_cell_angle_alpha   90.00000000
_cell_angle_beta   90.00000000
_cell_angle_gamma   90.00000000
_symmetry_Int_Tables_number   1
_chemical_formula_structural   Ba4P2O
_chemical_formula_sum   'Ba16 P8 O4'
_cell_volume   918.12577886
_cell_formula_units_Z   4
loop_
 _symmetry_equiv_pos_site_id
 _symmetry_equiv_pos_as_xyz
  1  'x, y, z'
loop_
 _atom_site_type_symbol
 _atom_site_label
 _atom_site_symmetry_multiplicity
 _atom_site_fract_x
 _atom_site_fract_y
 _atom_site_fract_z
 _atom_site_occupancy
  Ba  Ba0  1  0.50000000  0.82241300  0.43020600  1
  Ba  Ba1  1  0.00000000  0.67758700  0.56979400  1
  Ba  Ba2  1  0.00000000  0.82241300  0.06979400  1
  Ba  Ba3  1  0.50000000  0.67758700  0.93020600  1
  Ba  Ba4  1  0.25000000  0.52017700  0.25000000  1
  Ba  Ba5  1  0.75000000  0.97982300  0.75000000  1
  Ba  Ba6  1  0.25000000  0.97982300  0.75000000  1
  Ba  Ba7  1  0.75000000  0.52017700  0.25000000  1
  Ba  Ba8  1  0.00000000  0.32241300  0.43020600  1
  Ba  Ba9  1  0.50000000  0.17758700  0.56979400  1
  Ba  Ba10  1  0.50000000  0.32241300  0.06979400  1
  Ba  Ba11  1  0.00000000  0.17758700  0.93020600  1
  Ba  Ba12  1  0.75000000  0.02017700  0.25000000  1
  Ba  Ba13  1  0.25000000  0.47982300  0.75000000  1
  Ba  Ba14  1  0.75000000  0.47982300  0.75000000  1
  Ba  Ba15  1  0.25000000  0.02017700  0.25000000  1
  P  P16  1  0.00000000  0.86563900  0.47542400  1
  P  P17  1  0.50000000  0.63436100  0.52457600  1
  P  P18  1  0.00000000  0.63436100  0.97542400  1
  P  P19  1  0.50000000  0.86563900  0.02457600  1
  P  P20  1  0.50000000  0.36563900  0.47542400  1
  P  P21  1  0.00000000  0.13436100  0.52457600  1
  P  P22  1  0.50000000  0.13436100  0.97542400  1
  P  P23  1  0.00000000  0.36563900  0.02457600  1
  O  O24  1  0.50000000  0.00000000  0.50000000  1
  O  O25  1  0.00000000  0.00000000  0.00000000  1
  O  O26  1  0.00000000  0.50000000  0.50000000  1
  O  O27  1  0.50000000  0.50000000  0.00000000  1
