# generated using pymatgen
data_Zn(InSe2)2
_symmetry_space_group_name_H-M   'P 1'
_cell_length_a   5.82426600
_cell_length_b   5.82426600
_cell_length_c   11.71311400
_cell_angle_alpha   90.00000000
_cell_angle_beta   90.00000000
_cell_angle_gamma   90.00000000
_symmetry_Int_Tables_number   1
_chemical_formula_structural   Zn(InSe2)2
_chemical_formula_sum   'Zn2 In4 Se8'
_cell_volume   397.33312502
_cell_formula_units_Z   2
loop_
 _symmetry_equiv_pos_site_id
 _symmetry_equiv_pos_as_xyz
  1  'x, y, z'
loop_
 _atom_site_type_symbol
 _atom_site_label
 _atom_site_symmetry_multiplicity
 _atom_site_fract_x
 _atom_site_fract_y
 _atom_site_fract_z
 _atom_site_occupancy
  Zn  Zn0  1  0.00000000  0.00000000  0.00000000  1
  Zn  Zn1  1  0.50000000  0.50000000  0.50000000  1
  In  In2  1  0.50000000  0.50000000  0.00000000  1
  In  In3  1  0.50000000  0.00000000  0.25000000  1
  In  In4  1  0.00000000  0.00000000  0.50000000  1
  In  In5  1  0.00000000  0.50000000  0.75000000  1
  Se  Se6  1  0.78176400  0.26132000  0.13072600  1
  Se  Se7  1  0.21823600  0.73868000  0.13072600  1
  Se  Se8  1  0.76132000  0.71823600  0.36927400  1
  Se  Se9  1  0.23868000  0.28176400  0.36927400  1
  Se  Se10  1  0.28176400  0.76132000  0.63072600  1
  Se  Se11  1  0.71823600  0.23868000  0.63072600  1
  Se  Se12  1  0.26132000  0.21823600  0.86927400  1
  Se  Se13  1  0.73868000  0.78176400  0.86927400  1
