# generated using pymatgen
data_Be(H2N)2
_symmetry_space_group_name_H-M   'P 1'
_cell_length_a   10.33451000
_cell_length_b   10.33451000
_cell_length_c   16.26135800
_cell_angle_alpha   90.00000000
_cell_angle_beta   90.00000000
_cell_angle_gamma   90.00000000
_symmetry_Int_Tables_number   1
_chemical_formula_structural   Be(H2N)2
_chemical_formula_sum   'Be32 H128 N64'
_cell_volume   1736.74713349
_cell_formula_units_Z   32
loop_
 _symmetry_equiv_pos_site_id
 _symmetry_equiv_pos_as_xyz
  1  'x, y, z'
loop_
 _atom_site_type_symbol
 _atom_site_label
 _atom_site_symmetry_multiplicity
 _atom_site_fract_x
 _atom_site_fract_y
 _atom_site_fract_z
 _atom_site_occupancy
  Be  Be0  1  0.87664750  0.56813650  0.18631450  1
  Be  Be1  1  0.43186350  0.37664750  0.43631450  1
  Be  Be2  1  0.56813650  0.62335250  0.43631450  1
  Be  Be3  1  0.37664750  0.43186350  0.06368550  1
  Be  Be4  1  0.62335250  0.56813650  0.06368550  1
  Be  Be5  1  0.56813650  0.87664750  0.31368550  1
  Be  Be6  1  0.43186350  0.12335250  0.31368550  1
  Be  Be7  1  0.12335250  0.43186350  0.18631450  1
  Be  Be8  1  0.12335250  0.93186350  0.06368550  1
  Be  Be9  1  0.06813650  0.62335250  0.31368550  1
  Be  Be10  1  0.93186350  0.37664750  0.31368550  1
  Be  Be11  1  0.62335250  0.06813650  0.18631450  1
  Be  Be12  1  0.37664750  0.93186350  0.18631450  1
  Be  Be13  1  0.93186350  0.12335250  0.43631450  1
  Be  Be14  1  0.06813650  0.87664750  0.43631450  1
  Be  Be15  1  0.87664750  0.06813650  0.06368550  1
  Be  Be16  1  0.37664750  0.06813650  0.68631450  1
  Be  Be17  1  0.93186350  0.87664750  0.93631450  1
  Be  Be18  1  0.06813650  0.12335250  0.93631450  1
  Be  Be19  1  0.87664750  0.93186350  0.56368550  1
  Be  Be20  1  0.12335250  0.06813650  0.56368550  1
  Be  Be21  1  0.06813650  0.37664750  0.81368550  1
  Be  Be22  1  0.93186350  0.62335250  0.81368550  1
  Be  Be23  1  0.62335250  0.93186350  0.68631450  1
  Be  Be24  1  0.62335250  0.43186350  0.56368550  1
  Be  Be25  1  0.56813650  0.12335250  0.81368550  1
  Be  Be26  1  0.43186350  0.87664750  0.81368550  1
  Be  Be27  1  0.12335250  0.56813650  0.68631450  1
  Be  Be28  1  0.87664750  0.43186350  0.68631450  1
  Be  Be29  1  0.43186350  0.62335250  0.93631450  1
  Be  Be30  1  0.56813650  0.37664750  0.93631450  1
  Be  Be31  1  0.37664750  0.56813650  0.56368550  1
  H  H32  1  0.30172150  0.29657450  0.33562650  1
  H  H33  1  0.29657450  0.30172150  0.16437350  1
  H  H34  1  0.70342550  0.69827850  0.16437350  1
  H  H35  1  0.30172150  0.20342550  0.41437350  1
  H  H36  1  0.69827850  0.79657450  0.41437350  1
  H  H37  1  0.20342550  0.30172150  0.08562650  1
  H  H38  1  0.79657450  0.69827850  0.08562650  1
  H  H39  1  0.69827850  0.70342550  0.33562650  1
  H  H40  1  0.19827850  0.70342550  0.41437350  1
  H  H41  1  0.70342550  0.19827850  0.08562650  1
  H  H42  1  0.29657450  0.80172150  0.08562650  1
  H  H43  1  0.19827850  0.79657450  0.33562650  1
  H  H44  1  0.80172150  0.20342550  0.33562650  1
  H  H45  1  0.79657450  0.19827850  0.16437350  1
  H  H46  1  0.20342550  0.80172150  0.16437350  1
  H  H47  1  0.80172150  0.29657450  0.41437350  1
  H  H48  1  0.06647200  0.46007700  0.41216800  1
  H  H49  1  0.46007700  0.06647200  0.08783200  1
  H  H50  1  0.53992300  0.93352800  0.08783200  1
  H  H51  1  0.06647200  0.03992300  0.33783200  1
  H  H52  1  0.93352800  0.96007700  0.33783200  1
  H  H53  1  0.03992300  0.06647200  0.16216800  1
  H  H54  1  0.96007700  0.93352800  0.16216800  1
  H  H55  1  0.93352800  0.53992300  0.41216800  1
  H  H56  1  0.43352800  0.53992300  0.33783200  1
  H  H57  1  0.53992300  0.43352800  0.16216800  1
  H  H58  1  0.46007700  0.56647200  0.16216800  1
  H  H59  1  0.00466050  0.24690850  0.21086850  1
  H  H60  1  0.43352800  0.96007700  0.41216800  1
  H  H61  1  0.96007700  0.43352800  0.08783200  1
  H  H62  1  0.03992300  0.56647200  0.08783200  1
  H  H63  1  0.56647200  0.46007700  0.33783200  1
  H  H64  1  0.11302900  0.26112400  0.28123000  1
  H  H65  1  0.26112400  0.11302900  0.21877000  1
  H  H66  1  0.73887600  0.88697100  0.21877000  1
  H  H67  1  0.11302900  0.23887600  0.46877000  1
  H  H68  1  0.88697100  0.76112400  0.46877000  1
  H  H69  1  0.23887600  0.11302900  0.03123000  1
  H  H70  1  0.76112400  0.88697100  0.03123000  1
  H  H71  1  0.88697100  0.73887600  0.28123000  1
  H  H72  1  0.38697100  0.73887600  0.46877000  1
  H  H73  1  0.73887600  0.38697100  0.03123000  1
  H  H74  1  0.26112400  0.61302900  0.03123000  1
  H  H75  1  0.38697100  0.76112400  0.28123000  1
  H  H76  1  0.61302900  0.23887600  0.28123000  1
  H  H77  1  0.76112400  0.38697100  0.21877000  1
  H  H78  1  0.23887600  0.61302900  0.21877000  1
  H  H79  1  0.61302900  0.26112400  0.46877000  1
  H  H80  1  0.00466050  0.74690850  0.03913150  1
  H  H81  1  0.25309150  0.50466050  0.28913150  1
  H  H82  1  0.74690850  0.49533950  0.28913150  1
  H  H83  1  0.50466050  0.25309150  0.21086850  1
  H  H84  1  0.49533950  0.74690850  0.21086850  1
  H  H85  1  0.74690850  0.00466050  0.46086850  1
  H  H86  1  0.25309150  0.99533950  0.46086850  1
  H  H87  1  0.99533950  0.25309150  0.03913150  1
  H  H88  1  0.99533950  0.75309150  0.21086850  1
  H  H89  1  0.24690850  0.49533950  0.46086850  1
  H  H90  1  0.75309150  0.50466050  0.46086850  1
  H  H91  1  0.49533950  0.24690850  0.03913150  1
  H  H92  1  0.50466050  0.75309150  0.03913150  1
  H  H93  1  0.75309150  0.99533950  0.28913150  1
  H  H94  1  0.24690850  0.00466050  0.28913150  1
  H  H95  1  0.56647200  0.03992300  0.41216800  1
  H  H96  1  0.80172150  0.79657450  0.83562650  1
  H  H97  1  0.79657450  0.80172150  0.66437350  1
  H  H98  1  0.20342550  0.19827850  0.66437350  1
  H  H99  1  0.80172150  0.70342550  0.91437350  1
  H  H100  1  0.19827850  0.29657450  0.91437350  1
  H  H101  1  0.70342550  0.80172150  0.58562650  1
  H  H102  1  0.29657450  0.19827850  0.58562650  1
  H  H103  1  0.19827850  0.20342550  0.83562650  1
  H  H104  1  0.69827850  0.20342550  0.91437350  1
  H  H105  1  0.20342550  0.69827850  0.58562650  1
  H  H106  1  0.79657450  0.30172150  0.58562650  1
  H  H107  1  0.69827850  0.29657450  0.83562650  1
  H  H108  1  0.30172150  0.70342550  0.83562650  1
  H  H109  1  0.29657450  0.69827850  0.66437350  1
  H  H110  1  0.70342550  0.30172150  0.66437350  1
  H  H111  1  0.30172150  0.79657450  0.91437350  1
  H  H112  1  0.56647200  0.96007700  0.91216800  1
  H  H113  1  0.96007700  0.56647200  0.58783200  1
  H  H114  1  0.03992300  0.43352800  0.58783200  1
  H  H115  1  0.56647200  0.53992300  0.83783200  1
  H  H116  1  0.43352800  0.46007700  0.83783200  1
  H  H117  1  0.53992300  0.56647200  0.66216800  1
  H  H118  1  0.46007700  0.43352800  0.66216800  1
  H  H119  1  0.43352800  0.03992300  0.91216800  1
  H  H120  1  0.93352800  0.03992300  0.83783200  1
  H  H121  1  0.03992300  0.93352800  0.66216800  1
  H  H122  1  0.96007700  0.06647200  0.66216800  1
  H  H123  1  0.50466050  0.74690850  0.71086850  1
  H  H124  1  0.93352800  0.46007700  0.91216800  1
  H  H125  1  0.46007700  0.93352800  0.58783200  1
  H  H126  1  0.53992300  0.06647200  0.58783200  1
  H  H127  1  0.06647200  0.96007700  0.83783200  1
  H  H128  1  0.61302900  0.76112400  0.78123000  1
  H  H129  1  0.76112400  0.61302900  0.71877000  1
  H  H130  1  0.23887600  0.38697100  0.71877000  1
  H  H131  1  0.61302900  0.73887600  0.96877000  1
  H  H132  1  0.38697100  0.26112400  0.96877000  1
  H  H133  1  0.73887600  0.61302900  0.53123000  1
  H  H134  1  0.26112400  0.38697100  0.53123000  1
  H  H135  1  0.38697100  0.23887600  0.78123000  1
  H  H136  1  0.88697100  0.23887600  0.96877000  1
  H  H137  1  0.23887600  0.88697100  0.53123000  1
  H  H138  1  0.76112400  0.11302900  0.53123000  1
  H  H139  1  0.88697100  0.26112400  0.78123000  1
  H  H140  1  0.11302900  0.73887600  0.78123000  1
  H  H141  1  0.26112400  0.88697100  0.71877000  1
  H  H142  1  0.73887600  0.11302900  0.71877000  1
  H  H143  1  0.11302900  0.76112400  0.96877000  1
  H  H144  1  0.50466050  0.24690850  0.53913150  1
  H  H145  1  0.75309150  0.00466050  0.78913150  1
  H  H146  1  0.24690850  0.99533950  0.78913150  1
  H  H147  1  0.00466050  0.75309150  0.71086850  1
  H  H148  1  0.99533950  0.24690850  0.71086850  1
  H  H149  1  0.24690850  0.50466050  0.96086850  1
  H  H150  1  0.75309150  0.49533950  0.96086850  1
  H  H151  1  0.49533950  0.75309150  0.53913150  1
  H  H152  1  0.49533950  0.25309150  0.71086850  1
  H  H153  1  0.74690850  0.99533950  0.96086850  1
  H  H154  1  0.25309150  0.00466050  0.96086850  1
  H  H155  1  0.99533950  0.74690850  0.53913150  1
  H  H156  1  0.00466050  0.25309150  0.53913150  1
  H  H157  1  0.25309150  0.49533950  0.78913150  1
  H  H158  1  0.74690850  0.50466050  0.78913150  1
  H  H159  1  0.06647200  0.53992300  0.91216800  1
  N  N160  1  0.04854750  0.31461650  0.24754850  1
  N  N161  1  0.31461650  0.04854750  0.25245150  1
  N  N162  1  0.68538350  0.95145250  0.25245150  1
  N  N163  1  0.54854750  0.68538350  0.00245150  1
  N  N164  1  0.45145250  0.31461650  0.00245150  1
  N  N165  1  0.68538350  0.54854750  0.49754850  1
  N  N166  1  0.31461650  0.45145250  0.49754850  1
  N  N167  1  0.95145250  0.68538350  0.24754850  1
  N  N168  1  0.95145250  0.18538350  0.00245150  1
  N  N169  1  0.18538350  0.95145250  0.49754850  1
  N  N170  1  0.81461650  0.04854750  0.49754850  1
  N  N171  1  0.45145250  0.81461650  0.24754850  1
  N  N172  1  0.54854750  0.18538350  0.24754850  1
  N  N173  1  0.81461650  0.45145250  0.25245150  1
  N  N174  1  0.18538350  0.54854750  0.25245150  1
  N  N175  1  0.04854750  0.81461650  0.00245150  1
  N  N176  1  0.50000000  0.50000000  0.37707900  1
  N  N177  1  0.00000000  0.50000000  0.12707900  1
  N  N178  1  0.50000000  0.00000000  0.37292100  1
  N  N179  1  0.50000000  0.50000000  0.12292100  1
  N  N180  1  0.00000000  0.50000000  0.37292100  1
  N  N181  1  0.00000000  0.00000000  0.12292100  1
  N  N182  1  0.00000000  0.00000000  0.37707900  1
  N  N183  1  0.50000000  0.00000000  0.12707900  1
  N  N184  1  0.86411000  0.25000000  0.37500000  1
  N  N185  1  0.25000000  0.86411000  0.12500000  1
  N  N186  1  0.75000000  0.13589000  0.12500000  1
  N  N187  1  0.13589000  0.75000000  0.37500000  1
  N  N188  1  0.63589000  0.75000000  0.37500000  1
  N  N189  1  0.75000000  0.63589000  0.12500000  1
  N  N190  1  0.25000000  0.36411000  0.12500000  1
  N  N191  1  0.36411000  0.25000000  0.37500000  1
  N  N192  1  0.54854750  0.81461650  0.74754850  1
  N  N193  1  0.81461650  0.54854750  0.75245150  1
  N  N194  1  0.18538350  0.45145250  0.75245150  1
  N  N195  1  0.04854750  0.18538350  0.50245150  1
  N  N196  1  0.95145250  0.81461650  0.50245150  1
  N  N197  1  0.18538350  0.04854750  0.99754850  1
  N  N198  1  0.81461650  0.95145250  0.99754850  1
  N  N199  1  0.45145250  0.18538350  0.74754850  1
  N  N200  1  0.45145250  0.68538350  0.50245150  1
  N  N201  1  0.68538350  0.45145250  0.99754850  1
  N  N202  1  0.31461650  0.54854750  0.99754850  1
  N  N203  1  0.95145250  0.31461650  0.74754850  1
  N  N204  1  0.04854750  0.68538350  0.74754850  1
  N  N205  1  0.31461650  0.95145250  0.75245150  1
  N  N206  1  0.68538350  0.04854750  0.75245150  1
  N  N207  1  0.54854750  0.31461650  0.50245150  1
  N  N208  1  0.00000000  0.00000000  0.87707900  1
  N  N209  1  0.50000000  0.00000000  0.62707900  1
  N  N210  1  0.00000000  0.50000000  0.87292100  1
  N  N211  1  0.00000000  0.00000000  0.62292100  1
  N  N212  1  0.50000000  0.00000000  0.87292100  1
  N  N213  1  0.50000000  0.50000000  0.62292100  1
  N  N214  1  0.50000000  0.50000000  0.87707900  1
  N  N215  1  0.00000000  0.50000000  0.62707900  1
  N  N216  1  0.36411000  0.75000000  0.87500000  1
  N  N217  1  0.75000000  0.36411000  0.62500000  1
  N  N218  1  0.25000000  0.63589000  0.62500000  1
  N  N219  1  0.63589000  0.25000000  0.87500000  1
  N  N220  1  0.13589000  0.25000000  0.87500000  1
  N  N221  1  0.25000000  0.13589000  0.62500000  1
  N  N222  1  0.75000000  0.86411000  0.62500000  1
  N  N223  1  0.86411000  0.75000000  0.87500000  1
