# generated using pymatgen
data_Bi3Se4Br
_symmetry_space_group_name_H-M   'P 1'
_cell_length_a   21.14738400
_cell_length_b   4.12547000
_cell_length_c   12.20323122
_cell_angle_alpha   90.00000000
_cell_angle_beta   113.96360593
_cell_angle_gamma   90.00000000
_symmetry_Int_Tables_number   1
_chemical_formula_structural   Bi3Se4Br
_chemical_formula_sum   'Bi12 Se16 Br4'
_cell_volume   972.87670433
_cell_formula_units_Z   4
loop_
 _symmetry_equiv_pos_site_id
 _symmetry_equiv_pos_as_xyz
  1  'x, y, z'
loop_
 _atom_site_type_symbol
 _atom_site_label
 _atom_site_symmetry_multiplicity
 _atom_site_fract_x
 _atom_site_fract_y
 _atom_site_fract_z
 _atom_site_occupancy
  Bi  Bi0  1  0.41094500  0.50000000  0.03731800  1
  Bi  Bi1  1  0.08905500  0.00000000  0.96268200  1
  Bi  Bi2  1  0.32730800  0.00000000  0.26274300  1
  Bi  Bi3  1  0.17269200  0.50000000  0.73725700  1
  Bi  Bi4  1  0.34843600  0.50000000  0.58541200  1
  Bi  Bi5  1  0.15156400  0.00000000  0.41458800  1
  Bi  Bi6  1  0.91094500  0.00000000  0.03731800  1
  Bi  Bi7  1  0.58905500  0.50000000  0.96268200  1
  Bi  Bi8  1  0.82730800  0.50000000  0.26274300  1
  Bi  Bi9  1  0.67269200  0.00000000  0.73725700  1
  Bi  Bi10  1  0.84843600  0.00000000  0.58541200  1
  Bi  Bi11  1  0.65156400  0.50000000  0.41458800  1
  Se  Se12  1  0.08556900  0.50000000  0.49199700  1
  Se  Se13  1  0.41443100  0.00000000  0.50800300  1
  Se  Se14  1  0.31346700  0.00000000  0.98164800  1
  Se  Se15  1  0.18653300  0.50000000  0.01835200  1
  Se  Se16  1  0.42297200  0.50000000  0.27299500  1
  Se  Se17  1  0.07702800  0.00000000  0.72700500  1
  Se  Se18  1  0.24649700  0.50000000  0.35740400  1
  Se  Se19  1  0.25350300  0.00000000  0.64259600  1
  Se  Se20  1  0.58556900  0.00000000  0.49199700  1
  Se  Se21  1  0.91443100  0.50000000  0.50800300  1
  Se  Se22  1  0.81346700  0.50000000  0.98164800  1
  Se  Se23  1  0.68653300  0.00000000  0.01835200  1
  Se  Se24  1  0.92297200  0.00000000  0.27299500  1
  Se  Se25  1  0.57702800  0.50000000  0.72700500  1
  Se  Se26  1  0.74649700  0.00000000  0.35740400  1
  Se  Se27  1  0.75350300  0.50000000  0.64259600  1
  Br  Br28  1  0.04329500  0.50000000  0.16539400  1
  Br  Br29  1  0.45670500  0.00000000  0.83460600  1
  Br  Br30  1  0.54329500  0.00000000  0.16539400  1
  Br  Br31  1  0.95670500  0.50000000  0.83460600  1
