# generated using pymatgen
data_ThTa2O7
_symmetry_space_group_name_H-M   'P 1'
_cell_length_a   15.62812200
_cell_length_b   3.91518200
_cell_length_c   8.41860586
_cell_angle_alpha   90.00000000
_cell_angle_beta   95.86287020
_cell_angle_gamma   90.00000000
_symmetry_Int_Tables_number   1
_chemical_formula_structural   ThTa2O7
_chemical_formula_sum   'Th4 Ta8 O28'
_cell_volume   512.41432843
_cell_formula_units_Z   4
loop_
 _symmetry_equiv_pos_site_id
 _symmetry_equiv_pos_as_xyz
  1  'x, y, z'
loop_
 _atom_site_type_symbol
 _atom_site_label
 _atom_site_symmetry_multiplicity
 _atom_site_fract_x
 _atom_site_fract_y
 _atom_site_fract_z
 _atom_site_occupancy
  Th  Th0  1  0.81177300  0.50000000  0.33349100  1
  Th  Th1  1  0.68822700  0.00000000  0.66650900  1
  Th  Th2  1  0.31177300  0.00000000  0.33349100  1
  Th  Th3  1  0.18822700  0.50000000  0.66650900  1
  Ta  Ta4  1  0.60815000  0.50000000  0.98019000  1
  Ta  Ta5  1  0.89185000  0.00000000  0.01981000  1
  Ta  Ta6  1  0.57129000  0.50000000  0.36699000  1
  Ta  Ta7  1  0.92871000  0.00000000  0.63301000  1
  Ta  Ta8  1  0.10815000  0.00000000  0.98019000  1
  Ta  Ta9  1  0.39185000  0.50000000  0.01981000  1
  Ta  Ta10  1  0.07129000  0.00000000  0.36699000  1
  Ta  Ta11  1  0.42871000  0.50000000  0.63301000  1
  O  O12  1  0.51258600  0.50000000  0.14141600  1
  O  O13  1  0.98741400  0.00000000  0.85858400  1
  O  O14  1  0.55636900  0.50000000  0.60796400  1
  O  O15  1  0.94363100  0.00000000  0.39203600  1
  O  O16  1  0.89246300  0.50000000  0.06417700  1
  O  O17  1  0.60753700  0.00000000  0.93582300  1
  O  O18  1  0.58607800  0.00000000  0.38930900  1
  O  O19  1  0.91392200  0.50000000  0.61069100  1
  O  O20  1  0.80470000  0.00000000  0.50223100  1
  O  O21  1  0.69530000  0.50000000  0.49776900  1
  O  O22  1  0.80419300  0.00000000  0.16821600  1
  O  O23  1  0.69580700  0.50000000  0.83178400  1
  O  O24  1  0.83199000  0.00000000  0.80762600  1
  O  O25  1  0.66801000  0.50000000  0.19237400  1
  O  O26  1  0.01258600  0.00000000  0.14141600  1
  O  O27  1  0.48741400  0.50000000  0.85858400  1
  O  O28  1  0.05636900  0.00000000  0.60796400  1
  O  O29  1  0.44363100  0.50000000  0.39203600  1
  O  O30  1  0.39246300  0.00000000  0.06417700  1
  O  O31  1  0.10753700  0.50000000  0.93582300  1
  O  O32  1  0.08607800  0.50000000  0.38930900  1
  O  O33  1  0.41392200  0.00000000  0.61069100  1
  O  O34  1  0.30470000  0.50000000  0.50223100  1
  O  O35  1  0.19530000  0.00000000  0.49776900  1
  O  O36  1  0.30419300  0.50000000  0.16821600  1
  O  O37  1  0.19580700  0.00000000  0.83178400  1
  O  O38  1  0.33199000  0.50000000  0.80762600  1
  O  O39  1  0.16801000  0.00000000  0.19237400  1
