# generated using pymatgen
data_Er2Se3
_symmetry_space_group_name_H-M   'P 1'
_cell_length_a   8.18314600
_cell_length_b   11.46081800
_cell_length_c   24.34395400
_cell_angle_alpha   90.00000000
_cell_angle_beta   90.00000000
_cell_angle_gamma   90.00000000
_symmetry_Int_Tables_number   1
_chemical_formula_structural   Er2Se3
_chemical_formula_sum   'Er32 Se48'
_cell_volume   2283.11104139
_cell_formula_units_Z   16
loop_
 _symmetry_equiv_pos_site_id
 _symmetry_equiv_pos_as_xyz
  1  'x, y, z'
loop_
 _atom_site_type_symbol
 _atom_site_label
 _atom_site_symmetry_multiplicity
 _atom_site_fract_x
 _atom_site_fract_y
 _atom_site_fract_z
 _atom_site_occupancy
  Er  Er0  1  0.50000000  0.00000000  0.25267200  1
  Er  Er1  1  0.00000000  0.00000000  0.24732800  1
  Er  Er2  1  0.75000000  0.75000000  0.49732800  1
  Er  Er3  1  0.75000000  0.75000000  0.00267200  1
  Er  Er4  1  0.00000000  0.00000000  0.41616500  1
  Er  Er5  1  0.50000000  0.00000000  0.08383500  1
  Er  Er6  1  0.75000000  0.25000000  0.33383500  1
  Er  Er7  1  0.75000000  0.25000000  0.16616500  1
  Er  Er8  1  0.50000000  0.50000000  0.75267200  1
  Er  Er9  1  0.00000000  0.50000000  0.74732800  1
  Er  Er10  1  0.75000000  0.25000000  0.99732800  1
  Er  Er11  1  0.75000000  0.25000000  0.50267200  1
  Er  Er12  1  0.00000000  0.50000000  0.91616500  1
  Er  Er13  1  0.50000000  0.50000000  0.58383500  1
  Er  Er14  1  0.75000000  0.75000000  0.83383500  1
  Er  Er15  1  0.75000000  0.75000000  0.66616500  1
  Er  Er16  1  0.00000000  0.00000000  0.75267200  1
  Er  Er17  1  0.50000000  0.00000000  0.74732800  1
  Er  Er18  1  0.25000000  0.75000000  0.99732800  1
  Er  Er19  1  0.25000000  0.75000000  0.50267200  1
  Er  Er20  1  0.50000000  0.00000000  0.91616500  1
  Er  Er21  1  0.00000000  0.00000000  0.58383500  1
  Er  Er22  1  0.25000000  0.25000000  0.83383500  1
  Er  Er23  1  0.25000000  0.25000000  0.66616500  1
  Er  Er24  1  0.00000000  0.50000000  0.25267200  1
  Er  Er25  1  0.50000000  0.50000000  0.24732800  1
  Er  Er26  1  0.25000000  0.25000000  0.49732800  1
  Er  Er27  1  0.25000000  0.25000000  0.00267200  1
  Er  Er28  1  0.50000000  0.50000000  0.41616500  1
  Er  Er29  1  0.00000000  0.50000000  0.08383500  1
  Er  Er30  1  0.25000000  0.75000000  0.33383500  1
  Er  Er31  1  0.25000000  0.75000000  0.16616500  1
  Se  Se32  1  0.99210100  0.24686250  0.41899950  1
  Se  Se33  1  0.49210100  0.75313750  0.08100050  1
  Se  Se34  1  0.50789900  0.24686250  0.08100050  1
  Se  Se35  1  0.00789900  0.75313750  0.41899950  1
  Se  Se36  1  0.75789900  0.00313750  0.33100050  1
  Se  Se37  1  0.25789900  0.99686250  0.16899950  1
  Se  Se38  1  0.74210100  0.00313750  0.16899950  1
  Se  Se39  1  0.24210100  0.99686250  0.33100050  1
  Se  Se40  1  0.50776800  0.25000000  0.25000000  1
  Se  Se41  1  0.99223200  0.25000000  0.25000000  1
  Se  Se42  1  0.74223200  0.00000000  0.00000000  1
  Se  Se43  1  0.25776800  0.00000000  0.00000000  1
  Se  Se44  1  0.99210100  0.74686250  0.91899950  1
  Se  Se45  1  0.49210100  0.25313750  0.58100050  1
  Se  Se46  1  0.50789900  0.74686250  0.58100050  1
  Se  Se47  1  0.00789900  0.25313750  0.91899950  1
  Se  Se48  1  0.75789900  0.50313750  0.83100050  1
  Se  Se49  1  0.25789900  0.49686250  0.66899950  1
  Se  Se50  1  0.74210100  0.50313750  0.66899950  1
  Se  Se51  1  0.24210100  0.49686250  0.83100050  1
  Se  Se52  1  0.50776800  0.75000000  0.75000000  1
  Se  Se53  1  0.99223200  0.75000000  0.75000000  1
  Se  Se54  1  0.74223200  0.50000000  0.50000000  1
  Se  Se55  1  0.25776800  0.50000000  0.50000000  1
  Se  Se56  1  0.49210100  0.24686250  0.91899950  1
  Se  Se57  1  0.99210100  0.75313750  0.58100050  1
  Se  Se58  1  0.00789900  0.24686250  0.58100050  1
  Se  Se59  1  0.50789900  0.75313750  0.91899950  1
  Se  Se60  1  0.25789900  0.00313750  0.83100050  1
  Se  Se61  1  0.75789900  0.99686250  0.66899950  1
  Se  Se62  1  0.24210100  0.00313750  0.66899950  1
  Se  Se63  1  0.74210100  0.99686250  0.83100050  1
  Se  Se64  1  0.00776800  0.25000000  0.75000000  1
  Se  Se65  1  0.49223200  0.25000000  0.75000000  1
  Se  Se66  1  0.24223200  0.00000000  0.50000000  1
  Se  Se67  1  0.75776800  0.00000000  0.50000000  1
  Se  Se68  1  0.49210100  0.74686250  0.41899950  1
  Se  Se69  1  0.99210100  0.25313750  0.08100050  1
  Se  Se70  1  0.00789900  0.74686250  0.08100050  1
  Se  Se71  1  0.50789900  0.25313750  0.41899950  1
  Se  Se72  1  0.25789900  0.50313750  0.33100050  1
  Se  Se73  1  0.75789900  0.49686250  0.16899950  1
  Se  Se74  1  0.24210100  0.50313750  0.16899950  1
  Se  Se75  1  0.74210100  0.49686250  0.33100050  1
  Se  Se76  1  0.00776800  0.75000000  0.25000000  1
  Se  Se77  1  0.49223200  0.75000000  0.25000000  1
  Se  Se78  1  0.24223200  0.50000000  0.00000000  1
  Se  Se79  1  0.75776800  0.50000000  0.00000000  1
