# generated using pymatgen
data_Th2AuF11
_symmetry_space_group_name_H-M   'P 1'
_cell_length_a   11.48357600
_cell_length_b   11.48357600
_cell_length_c   6.37086600
_cell_angle_alpha   90.00000000
_cell_angle_beta   90.00000000
_cell_angle_gamma   90.00000000
_symmetry_Int_Tables_number   1
_chemical_formula_structural   Th2AuF11
_chemical_formula_sum   'Th8 Au4 F44'
_cell_volume   840.14213965
_cell_formula_units_Z   4
loop_
 _symmetry_equiv_pos_site_id
 _symmetry_equiv_pos_as_xyz
  1  'x, y, z'
loop_
 _atom_site_type_symbol
 _atom_site_label
 _atom_site_symmetry_multiplicity
 _atom_site_fract_x
 _atom_site_fract_y
 _atom_site_fract_z
 _atom_site_occupancy
  Th  Th0  1  0.35652400  0.14347600  0.50000000  1
  Th  Th1  1  0.35652400  0.85652400  0.00000000  1
  Th  Th2  1  0.64347600  0.14347600  0.00000000  1
  Th  Th3  1  0.64347600  0.85652400  0.50000000  1
  Th  Th4  1  0.85652400  0.64347600  0.00000000  1
  Th  Th5  1  0.85652400  0.35652400  0.50000000  1
  Th  Th6  1  0.14347600  0.64347600  0.50000000  1
  Th  Th7  1  0.14347600  0.35652400  0.00000000  1
  Au  Au8  1  0.00000000  0.00000000  0.00000000  1
  Au  Au9  1  0.00000000  0.00000000  0.50000000  1
  Au  Au10  1  0.50000000  0.50000000  0.50000000  1
  Au  Au11  1  0.50000000  0.50000000  0.00000000  1
  F  F12  1  0.13472800  0.89602700  0.00000000  1
  F  F13  1  0.86527200  0.10397300  0.00000000  1
  F  F14  1  0.60397300  0.63472800  0.50000000  1
  F  F15  1  0.39602700  0.36527200  0.50000000  1
  F  F16  1  0.13472800  0.10397300  0.50000000  1
  F  F17  1  0.39602700  0.63472800  0.00000000  1
  F  F18  1  0.50000000  0.00000000  0.50000000  1
  F  F19  1  0.50000000  0.00000000  0.00000000  1
  F  F20  1  0.75000000  0.75000000  0.75000000  1
  F  F21  1  0.75000000  0.25000000  0.25000000  1
  F  F22  1  0.75000000  0.25000000  0.75000000  1
  F  F23  1  0.75000000  0.75000000  0.25000000  1
  F  F24  1  0.50000000  0.80965600  0.25000000  1
  F  F25  1  0.69034400  0.00000000  0.75000000  1
  F  F26  1  0.30965600  0.00000000  0.75000000  1
  F  F27  1  0.50000000  0.19034400  0.25000000  1
  F  F28  1  0.50000000  0.19034400  0.75000000  1
  F  F29  1  0.30965600  0.00000000  0.25000000  1
  F  F30  1  0.69034400  0.00000000  0.25000000  1
  F  F31  1  0.50000000  0.80965600  0.75000000  1
  F  F32  1  0.86527200  0.89602700  0.50000000  1
  F  F33  1  0.60397300  0.36527200  0.00000000  1
  F  F34  1  0.63472800  0.39602700  0.50000000  1
  F  F35  1  0.36527200  0.60397300  0.50000000  1
  F  F36  1  0.10397300  0.13472800  0.00000000  1
  F  F37  1  0.89602700  0.86527200  0.00000000  1
  F  F38  1  0.63472800  0.60397300  0.00000000  1
  F  F39  1  0.89602700  0.13472800  0.50000000  1
  F  F40  1  0.00000000  0.50000000  0.00000000  1
  F  F41  1  0.00000000  0.50000000  0.50000000  1
  F  F42  1  0.25000000  0.25000000  0.25000000  1
  F  F43  1  0.25000000  0.75000000  0.75000000  1
  F  F44  1  0.25000000  0.75000000  0.25000000  1
  F  F45  1  0.25000000  0.25000000  0.75000000  1
  F  F46  1  0.00000000  0.30965600  0.75000000  1
  F  F47  1  0.19034400  0.50000000  0.25000000  1
  F  F48  1  0.80965600  0.50000000  0.25000000  1
  F  F49  1  0.00000000  0.69034400  0.75000000  1
  F  F50  1  0.00000000  0.69034400  0.25000000  1
  F  F51  1  0.80965600  0.50000000  0.75000000  1
  F  F52  1  0.19034400  0.50000000  0.75000000  1
  F  F53  1  0.00000000  0.30965600  0.25000000  1
  F  F54  1  0.36527200  0.39602700  0.00000000  1
  F  F55  1  0.10397300  0.86527200  0.50000000  1
