# generated using pymatgen
data_FeBiO3
_symmetry_space_group_name_H-M   'P 1'
_cell_length_a   5.61559664
_cell_length_b   5.61559664
_cell_length_c   14.08162803
_cell_angle_alpha   90.00000000
_cell_angle_beta   90.00000000
_cell_angle_gamma   120.00000000
_symmetry_Int_Tables_number   1
_chemical_formula_structural   FeBiO3
_chemical_formula_sum   'Fe6 Bi6 O18'
_cell_volume   384.56991919
_cell_formula_units_Z   6
loop_
 _symmetry_equiv_pos_site_id
 _symmetry_equiv_pos_as_xyz
  1  'x, y, z'
loop_
 _atom_site_type_symbol
 _atom_site_label
 _atom_site_symmetry_multiplicity
 _atom_site_fract_x
 _atom_site_fract_y
 _atom_site_fract_z
 _atom_site_occupancy
  Fe  Fe0  1  0.00000000  0.00000000  0.78096900  1
  Fe  Fe1  1  0.33333333  0.66666667  0.94763567  1
  Fe  Fe2  1  0.66666667  0.33333333  0.11430233  1
  Fe  Fe3  1  0.00000000  0.00000000  0.28096900  1
  Fe  Fe4  1  0.33333333  0.66666667  0.44763567  1
  Fe  Fe5  1  0.66666667  0.33333333  0.61430233  1
  Bi  Bi6  1  0.66666667  0.33333333  0.83475200  1
  Bi  Bi7  1  0.33333333  0.66666667  0.66808533  1
  Bi  Bi8  1  0.33333333  0.66666667  0.16808533  1
  Bi  Bi9  1  0.00000000  0.00000000  0.00141867  1
  Bi  Bi10  1  0.00000000  0.00000000  0.50141867  1
  Bi  Bi11  1  0.66666667  0.33333333  0.33475200  1
  O  O12  1  0.08457567  0.76833533  0.88019233  1
  O  O13  1  0.23166467  0.31624033  0.88019233  1
  O  O14  1  0.68375967  0.91542433  0.88019233  1
  O  O15  1  0.75124233  0.64957367  0.71352567  1
  O  O16  1  0.35042633  0.10166867  0.71352567  1
  O  O17  1  0.89833133  0.24875767  0.71352567  1
  O  O18  1  0.75124233  0.10166867  0.21352567  1
  O  O19  1  0.89833133  0.64957367  0.21352567  1
  O  O20  1  0.35042633  0.24875767  0.21352567  1
  O  O21  1  0.41790900  0.98290700  0.04685900  1
  O  O22  1  0.01709300  0.43500200  0.04685900  1
  O  O23  1  0.56499800  0.58209100  0.04685900  1
  O  O24  1  0.41790900  0.43500200  0.54685900  1
  O  O25  1  0.56499800  0.98290700  0.54685900  1
  O  O26  1  0.01709300  0.58209100  0.54685900  1
  O  O27  1  0.08457567  0.31624033  0.38019233  1
  O  O28  1  0.68375967  0.76833533  0.38019233  1
  O  O29  1  0.23166467  0.91542433  0.38019233  1
