# generated using pymatgen
data_Zn2Ge3O8
_symmetry_space_group_name_H-M   'P 1'
_cell_length_a   8.34598800
_cell_length_b   8.34598800
_cell_length_c   8.34598800
_cell_angle_alpha   90.00000000
_cell_angle_beta   90.00000000
_cell_angle_gamma   90.00000000
_symmetry_Int_Tables_number   1
_chemical_formula_structural   Zn2Ge3O8
_chemical_formula_sum   'Zn8 Ge12 O32'
_cell_volume   581.34409813
_cell_formula_units_Z   4
loop_
 _symmetry_equiv_pos_site_id
 _symmetry_equiv_pos_as_xyz
  1  'x, y, z'
loop_
 _atom_site_type_symbol
 _atom_site_label
 _atom_site_symmetry_multiplicity
 _atom_site_fract_x
 _atom_site_fract_y
 _atom_site_fract_z
 _atom_site_occupancy
  Zn  Zn0  1  0.24831700  0.24831700  0.24831700  1
  Zn  Zn1  1  0.99831700  0.50168300  0.49831700  1
  Zn  Zn2  1  0.50168300  0.49831700  0.99831700  1
  Zn  Zn3  1  0.49831700  0.99831700  0.50168300  1
  Zn  Zn4  1  0.74831700  0.25168300  0.75168300  1
  Zn  Zn5  1  0.25168300  0.75168300  0.74831700  1
  Zn  Zn6  1  0.75168300  0.74831700  0.25168300  1
  Zn  Zn7  1  0.00168300  0.00168300  0.00168300  1
  Ge  Ge8  1  0.62500000  0.12926400  0.12073600  1
  Ge  Ge9  1  0.62073600  0.87500000  0.87073600  1
  Ge  Ge10  1  0.62926400  0.37926400  0.37500000  1
  Ge  Ge11  1  0.37073600  0.87926400  0.12500000  1
  Ge  Ge12  1  0.87926400  0.12500000  0.37073600  1
  Ge  Ge13  1  0.12073600  0.62500000  0.12926400  1
  Ge  Ge14  1  0.37926400  0.37500000  0.62926400  1
  Ge  Ge15  1  0.87073600  0.62073600  0.87500000  1
  Ge  Ge16  1  0.12926400  0.12073600  0.62500000  1
  Ge  Ge17  1  0.37500000  0.62926400  0.37926400  1
  Ge  Ge18  1  0.87500000  0.87073600  0.62073600  1
  Ge  Ge19  1  0.12500000  0.37073600  0.87926400  1
  O  O20  1  0.86170600  0.86170600  0.86170600  1
  O  O21  1  0.61170600  0.88829400  0.11170600  1
  O  O22  1  0.88829400  0.11170600  0.61170600  1
  O  O23  1  0.11170600  0.61170600  0.88829400  1
  O  O24  1  0.36170600  0.63829400  0.13829400  1
  O  O25  1  0.63829400  0.13829400  0.36170600  1
  O  O26  1  0.13829400  0.36170600  0.63829400  1
  O  O27  1  0.38829400  0.38829400  0.38829400  1
  O  O28  1  0.15145100  0.85438100  0.11039300  1
  O  O29  1  0.65145100  0.64561900  0.88960700  1
  O  O30  1  0.85438100  0.11039300  0.15145100  1
  O  O31  1  0.14561900  0.61039300  0.34854900  1
  O  O32  1  0.11039300  0.15145100  0.85438100  1
  O  O33  1  0.38960700  0.84854900  0.35438100  1
  O  O34  1  0.40145100  0.86039300  0.89561900  1
  O  O35  1  0.90145100  0.63960700  0.10438100  1
  O  O36  1  0.59854900  0.36039300  0.60438100  1
  O  O37  1  0.63960700  0.10438100  0.90145100  1
  O  O38  1  0.60438100  0.59854900  0.36039300  1
  O  O39  1  0.10438100  0.90145100  0.63960700  1
  O  O40  1  0.09854900  0.13960700  0.39561900  1
  O  O41  1  0.84854900  0.35438100  0.38960700  1
  O  O42  1  0.34854900  0.14561900  0.61039300  1
  O  O43  1  0.64561900  0.88960700  0.65145100  1
  O  O44  1  0.35438100  0.38960700  0.84854900  1
  O  O45  1  0.61039300  0.34854900  0.14561900  1
  O  O46  1  0.88960700  0.65145100  0.64561900  1
  O  O47  1  0.39561900  0.09854900  0.13960700  1
  O  O48  1  0.13960700  0.39561900  0.09854900  1
  O  O49  1  0.36039300  0.60438100  0.59854900  1
  O  O50  1  0.89561900  0.40145100  0.86039300  1
  O  O51  1  0.86039300  0.89561900  0.40145100  1
