# generated using pymatgen
data_Re(AgCl3)2
_symmetry_space_group_name_H-M   'P 1'
_cell_length_a   6.73637618
_cell_length_b   6.73637618
_cell_length_c   18.05940806
_cell_angle_alpha   90.00000000
_cell_angle_beta   90.00000000
_cell_angle_gamma   120.00000000
_symmetry_Int_Tables_number   1
_chemical_formula_structural   Re(AgCl3)2
_chemical_formula_sum   'Re3 Ag6 Cl18'
_cell_volume   709.71961178
_cell_formula_units_Z   3
loop_
 _symmetry_equiv_pos_site_id
 _symmetry_equiv_pos_as_xyz
  1  'x, y, z'
loop_
 _atom_site_type_symbol
 _atom_site_label
 _atom_site_symmetry_multiplicity
 _atom_site_fract_x
 _atom_site_fract_y
 _atom_site_fract_z
 _atom_site_occupancy
  Re  Re0  1  0.33333333  0.66666667  0.16666667  1
  Re  Re1  1  1.00000000  0.00000000  0.50000000  1
  Re  Re2  1  0.66666667  0.33333333  0.83333333  1
  Ag  Ag3  1  0.00000000  0.00000000  0.23429400  1
  Ag  Ag4  1  0.66666667  0.33333333  0.09903933  1
  Ag  Ag5  1  0.66666667  0.33333333  0.56762733  1
  Ag  Ag6  1  0.33333333  0.66666667  0.43237267  1
  Ag  Ag7  1  0.33333333  0.66666667  0.90096067  1
  Ag  Ag8  1  0.00000000  0.00000000  0.76570600  1
  Cl  Cl9  1  0.60427933  0.96850467  0.24331367  1
  Cl  Cl10  1  0.03149533  0.63577467  0.24331367  1
  Cl  Cl11  1  0.36422533  0.39572067  0.24331367  1
  Cl  Cl12  1  0.30244133  0.93761267  0.09001967  1
  Cl  Cl13  1  0.63517133  0.69755867  0.09001967  1
  Cl  Cl14  1  0.06238733  0.36482867  0.09001967  1
  Cl  Cl15  1  0.27094600  0.30183800  0.57664700  1
  Cl  Cl16  1  0.69816200  0.96910800  0.57664700  1
  Cl  Cl17  1  0.03089200  0.72905400  0.57664700  1
  Cl  Cl18  1  0.96910800  0.27094600  0.42335300  1
  Cl  Cl19  1  0.30183800  0.03089200  0.42335300  1
  Cl  Cl20  1  0.72905400  0.69816200  0.42335300  1
  Cl  Cl21  1  0.93761267  0.63517133  0.90998033  1
  Cl  Cl22  1  0.36482867  0.30244133  0.90998033  1
  Cl  Cl23  1  0.69755867  0.06238733  0.90998033  1
  Cl  Cl24  1  0.63577467  0.60427933  0.75668633  1
  Cl  Cl25  1  0.96850467  0.36422533  0.75668633  1
  Cl  Cl26  1  0.39572067  0.03149533  0.75668633  1
