# generated using pymatgen
data_Bi2P4O13
_symmetry_space_group_name_H-M   'P 1'
_cell_length_a   12.16003600
_cell_length_b   6.98524800
_cell_length_c   13.39076301
_cell_angle_alpha   90.00000000
_cell_angle_beta   106.03037493
_cell_angle_gamma   90.00000000
_symmetry_Int_Tables_number   1
_chemical_formula_structural   Bi2P4O13
_chemical_formula_sum   'Bi8 P16 O52'
_cell_volume   1093.19482113
_cell_formula_units_Z   4
loop_
 _symmetry_equiv_pos_site_id
 _symmetry_equiv_pos_as_xyz
  1  'x, y, z'
loop_
 _atom_site_type_symbol
 _atom_site_label
 _atom_site_symmetry_multiplicity
 _atom_site_fract_x
 _atom_site_fract_y
 _atom_site_fract_z
 _atom_site_occupancy
  Bi  Bi0  1  0.69790850  0.00113650  0.05890100  1
  Bi  Bi1  1  0.80209150  0.50113650  0.44109900  1
  Bi  Bi2  1  0.80209150  0.49886350  0.94109900  1
  Bi  Bi3  1  0.69790850  0.99886350  0.55890100  1
  Bi  Bi4  1  0.19790850  0.50113650  0.05890100  1
  Bi  Bi5  1  0.30209150  0.00113650  0.44109900  1
  Bi  Bi6  1  0.30209150  0.99886350  0.94109900  1
  Bi  Bi7  1  0.19790850  0.49886350  0.55890100  1
  P  P8  1  0.51025100  0.64486200  0.36355000  1
  P  P9  1  0.98974900  0.14486200  0.13645000  1
  P  P10  1  0.98974900  0.85513800  0.63645000  1
  P  P11  1  0.51025100  0.35513800  0.86355000  1
  P  P12  1  0.76965600  0.00694900  0.34157600  1
  P  P13  1  0.73034400  0.50694900  0.15842400  1
  P  P14  1  0.73034400  0.49305100  0.65842400  1
  P  P15  1  0.76965600  0.99305100  0.84157600  1
  P  P16  1  0.01025100  0.14486200  0.36355000  1
  P  P17  1  0.48974900  0.64486200  0.13645000  1
  P  P18  1  0.48974900  0.35513800  0.63645000  1
  P  P19  1  0.01025100  0.85513800  0.86355000  1
  P  P20  1  0.26965600  0.50694900  0.34157600  1
  P  P21  1  0.23034400  0.00694900  0.15842400  1
  P  P22  1  0.23034400  0.99305100  0.65842400  1
  P  P23  1  0.26965600  0.49305100  0.84157600  1
  O  O24  1  0.00000000  0.23316000  0.25000000  1
  O  O25  1  0.00000000  0.76684000  0.75000000  1
  O  O26  1  0.99755750  0.30897450  0.06580800  1
  O  O27  1  0.50244250  0.80897450  0.43419200  1
  O  O28  1  0.50244250  0.19102550  0.93419200  1
  O  O29  1  0.99755750  0.69102550  0.56580800  1
  O  O30  1  0.88964000  0.00769800  0.10644100  1
  O  O31  1  0.61036000  0.50769800  0.39355900  1
  O  O32  1  0.61036000  0.49230200  0.89355900  1
  O  O33  1  0.88964000  0.99230200  0.60644100  1
  O  O34  1  0.90326350  0.00340550  0.34473500  1
  O  O35  1  0.59673650  0.50340550  0.15526500  1
  O  O36  1  0.79898650  0.49292850  0.77161500  1
  O  O37  1  0.70101350  0.99292850  0.72838500  1
  O  O38  1  0.70101350  0.00707150  0.22838500  1
  O  O39  1  0.79898650  0.50707150  0.27161500  1
  O  O40  1  0.74601100  0.82069500  0.90414000  1
  O  O41  1  0.75398900  0.32069500  0.59586000  1
  O  O42  1  0.75398900  0.67930500  0.09586000  1
  O  O43  1  0.74601100  0.17930500  0.40414000  1
  O  O44  1  0.75137650  0.17070150  0.90269500  1
  O  O45  1  0.74862350  0.67070150  0.59730500  1
  O  O46  1  0.74862350  0.32929850  0.09730500  1
  O  O47  1  0.75137650  0.82929850  0.40269500  1
  O  O48  1  0.90326350  0.99659450  0.84473500  1
  O  O49  1  0.59673650  0.49659450  0.65526500  1
  O  O50  1  0.50000000  0.73316000  0.25000000  1
  O  O51  1  0.50000000  0.26684000  0.75000000  1
  O  O52  1  0.49755750  0.80897450  0.06580800  1
  O  O53  1  0.00244250  0.30897450  0.43419200  1
  O  O54  1  0.00244250  0.69102550  0.93419200  1
  O  O55  1  0.49755750  0.19102550  0.56580800  1
  O  O56  1  0.38964000  0.50769800  0.10644100  1
  O  O57  1  0.11036000  0.00769800  0.39355900  1
  O  O58  1  0.11036000  0.99230200  0.89355900  1
  O  O59  1  0.38964000  0.49230200  0.60644100  1
  O  O60  1  0.40326350  0.50340550  0.34473500  1
  O  O61  1  0.09673650  0.00340550  0.15526500  1
  O  O62  1  0.29898650  0.99292850  0.77161500  1
  O  O63  1  0.20101350  0.49292850  0.72838500  1
  O  O64  1  0.20101350  0.50707150  0.22838500  1
  O  O65  1  0.29898650  0.00707150  0.27161500  1
  O  O66  1  0.24601100  0.32069500  0.90414000  1
  O  O67  1  0.25398900  0.82069500  0.59586000  1
  O  O68  1  0.25398900  0.17930500  0.09586000  1
  O  O69  1  0.24601100  0.67930500  0.40414000  1
  O  O70  1  0.25137650  0.67070150  0.90269500  1
  O  O71  1  0.24862350  0.17070150  0.59730500  1
  O  O72  1  0.24862350  0.82929850  0.09730500  1
  O  O73  1  0.25137650  0.32929850  0.40269500  1
  O  O74  1  0.40326350  0.49659450  0.84473500  1
  O  O75  1  0.09673650  0.99659450  0.65526500  1
