# generated using pymatgen
data_InSn2I5
_symmetry_space_group_name_H-M   'P 1'
_cell_length_a   8.92200200
_cell_length_b   8.92200200
_cell_length_c   15.65350200
_cell_angle_alpha   90.00000000
_cell_angle_beta   90.00000000
_cell_angle_gamma   90.00000000
_symmetry_Int_Tables_number   1
_chemical_formula_structural   InSn2I5
_chemical_formula_sum   'In4 Sn8 I20'
_cell_volume   1246.05193974
_cell_formula_units_Z   4
loop_
 _symmetry_equiv_pos_site_id
 _symmetry_equiv_pos_as_xyz
  1  'x, y, z'
loop_
 _atom_site_type_symbol
 _atom_site_label
 _atom_site_symmetry_multiplicity
 _atom_site_fract_x
 _atom_site_fract_y
 _atom_site_fract_z
 _atom_site_occupancy
  In  In0  1  0.50000000  0.50000000  0.25000000  1
  In  In1  1  0.00000000  0.00000000  0.25000000  1
  In  In2  1  0.00000000  0.00000000  0.75000000  1
  In  In3  1  0.50000000  0.50000000  0.75000000  1
  Sn  Sn4  1  0.67169900  0.17169900  0.00000000  1
  Sn  Sn5  1  0.82830100  0.67169900  0.00000000  1
  Sn  Sn6  1  0.17169900  0.32830100  0.00000000  1
  Sn  Sn7  1  0.32830100  0.82830100  0.00000000  1
  Sn  Sn8  1  0.17169900  0.67169900  0.50000000  1
  Sn  Sn9  1  0.32830100  0.17169900  0.50000000  1
  Sn  Sn10  1  0.67169900  0.82830100  0.50000000  1
  Sn  Sn11  1  0.82830100  0.32830100  0.50000000  1
  I  I12  1  0.50000000  0.50000000  0.00000000  1
  I  I13  1  0.00000000  0.00000000  0.00000000  1
  I  I14  1  0.65936800  0.15936800  0.36208700  1
  I  I15  1  0.84063200  0.65936800  0.36208700  1
  I  I16  1  0.15936800  0.34063200  0.36208700  1
  I  I17  1  0.65936800  0.84063200  0.13791300  1
  I  I18  1  0.34063200  0.15936800  0.13791300  1
  I  I19  1  0.15936800  0.65936800  0.13791300  1
  I  I20  1  0.84063200  0.34063200  0.13791300  1
  I  I21  1  0.34063200  0.84063200  0.36208700  1
  I  I22  1  0.00000000  0.00000000  0.50000000  1
  I  I23  1  0.50000000  0.50000000  0.50000000  1
  I  I24  1  0.15936800  0.65936800  0.86208700  1
  I  I25  1  0.34063200  0.15936800  0.86208700  1
  I  I26  1  0.65936800  0.84063200  0.86208700  1
  I  I27  1  0.15936800  0.34063200  0.63791300  1
  I  I28  1  0.84063200  0.65936800  0.63791300  1
  I  I29  1  0.65936800  0.15936800  0.63791300  1
  I  I30  1  0.34063200  0.84063200  0.63791300  1
  I  I31  1  0.84063200  0.34063200  0.86208700  1
