# generated using pymatgen
data_NbBiO4
_symmetry_space_group_name_H-M   'P 1'
_cell_length_a   5.10806500
_cell_length_b   5.83005100
_cell_length_c   11.79346400
_cell_angle_alpha   90.00000000
_cell_angle_beta   90.00000000
_cell_angle_gamma   90.00000000
_symmetry_Int_Tables_number   1
_chemical_formula_structural   NbBiO4
_chemical_formula_sum   'Nb4 Bi4 O16'
_cell_volume   351.21265374
_cell_formula_units_Z   4
loop_
 _symmetry_equiv_pos_site_id
 _symmetry_equiv_pos_as_xyz
  1  'x, y, z'
loop_
 _atom_site_type_symbol
 _atom_site_label
 _atom_site_symmetry_multiplicity
 _atom_site_fract_x
 _atom_site_fract_y
 _atom_site_fract_z
 _atom_site_occupancy
  Nb  Nb0  1  0.75000000  0.84603900  0.25000000  1
  Nb  Nb1  1  0.75000000  0.65396100  0.75000000  1
  Nb  Nb2  1  0.25000000  0.15396100  0.75000000  1
  Nb  Nb3  1  0.25000000  0.34603900  0.25000000  1
  Bi  Bi4  1  0.28442800  0.75000000  0.00000000  1
  Bi  Bi5  1  0.21557200  0.75000000  0.50000000  1
  Bi  Bi6  1  0.71557200  0.25000000  0.00000000  1
  Bi  Bi7  1  0.78442800  0.25000000  0.50000000  1
  O  O8  1  0.91276900  0.92071600  0.40135800  1
  O  O9  1  0.91276900  0.57928400  0.59864200  1
  O  O10  1  0.58723100  0.92071600  0.09864200  1
  O  O11  1  0.58723100  0.57928400  0.90135800  1
  O  O12  1  0.08723100  0.07928400  0.59864200  1
  O  O13  1  0.08723100  0.42071600  0.40135800  1
  O  O14  1  0.41276900  0.07928400  0.90135800  1
  O  O15  1  0.41276900  0.42071600  0.09864200  1
  O  O16  1  0.50329800  0.14364300  0.30715900  1
  O  O17  1  0.50329800  0.35635700  0.69284100  1
  O  O18  1  0.99670200  0.14364300  0.19284100  1
  O  O19  1  0.99670200  0.35635700  0.80715900  1
  O  O20  1  0.49670200  0.85635700  0.69284100  1
  O  O21  1  0.49670200  0.64364300  0.30715900  1
  O  O22  1  0.00329800  0.85635700  0.80715900  1
  O  O23  1  0.00329800  0.64364300  0.19284100  1
