# generated using pymatgen
data_NaClO4
_symmetry_space_group_name_H-M   'P 1'
_cell_length_a   6.58905000
_cell_length_b   7.18454800
_cell_length_c   7.17920400
_cell_angle_alpha   90.00000000
_cell_angle_beta   90.00000000
_cell_angle_gamma   90.00000000
_symmetry_Int_Tables_number   1
_chemical_formula_structural   NaClO4
_chemical_formula_sum   'Na4 Cl4 O16'
_cell_volume   339.85882216
_cell_formula_units_Z   4
loop_
 _symmetry_equiv_pos_site_id
 _symmetry_equiv_pos_as_xyz
  1  'x, y, z'
loop_
 _atom_site_type_symbol
 _atom_site_label
 _atom_site_symmetry_multiplicity
 _atom_site_fract_x
 _atom_site_fract_y
 _atom_site_fract_z
 _atom_site_occupancy
  Na  Na0  1  0.66365300  0.00000000  0.25000000  1
  Na  Na1  1  0.33634700  0.00000000  0.75000000  1
  Na  Na2  1  0.16365300  0.50000000  0.25000000  1
  Na  Na3  1  0.83634700  0.50000000  0.75000000  1
  Cl  Cl4  1  0.16813100  0.00000000  0.25000000  1
  Cl  Cl5  1  0.83186900  0.00000000  0.75000000  1
  Cl  Cl6  1  0.66813100  0.50000000  0.25000000  1
  Cl  Cl7  1  0.33186900  0.50000000  0.75000000  1
  O  O8  1  0.46187100  0.33520900  0.75000000  1
  O  O9  1  0.53812900  0.66479100  0.25000000  1
  O  O10  1  0.46187100  0.66479100  0.75000000  1
  O  O11  1  0.53812900  0.33520900  0.25000000  1
  O  O12  1  0.29899400  0.00000000  0.08598800  1
  O  O13  1  0.70100600  0.00000000  0.58598800  1
  O  O14  1  0.29899400  0.00000000  0.41401200  1
  O  O15  1  0.70100600  0.00000000  0.91401200  1
  O  O16  1  0.96187100  0.83520900  0.75000000  1
  O  O17  1  0.03812900  0.16479100  0.25000000  1
  O  O18  1  0.96187100  0.16479100  0.75000000  1
  O  O19  1  0.03812900  0.83520900  0.25000000  1
  O  O20  1  0.79899400  0.50000000  0.08598800  1
  O  O21  1  0.20100600  0.50000000  0.58598800  1
  O  O22  1  0.79899400  0.50000000  0.41401200  1
  O  O23  1  0.20100600  0.50000000  0.91401200  1
