# generated using pymatgen
data_Na2Si(H4O3)3
_symmetry_space_group_name_H-M   'P 1'
_cell_length_a   6.35528000
_cell_length_b   5.94910300
_cell_length_c   11.44933883
_cell_angle_alpha   90.00000000
_cell_angle_beta   101.87906029
_cell_angle_gamma   90.00000000
_symmetry_Int_Tables_number   1
_chemical_formula_structural   Na2Si(H4O3)3
_chemical_formula_sum   'Na4 Si2 H24 O18'
_cell_volume   423.60865095
_cell_formula_units_Z   2
loop_
 _symmetry_equiv_pos_site_id
 _symmetry_equiv_pos_as_xyz
  1  'x, y, z'
loop_
 _atom_site_type_symbol
 _atom_site_label
 _atom_site_symmetry_multiplicity
 _atom_site_fract_x
 _atom_site_fract_y
 _atom_site_fract_z
 _atom_site_occupancy
  Na  Na0  1  0.56889900  0.50271800  0.13637300  1
  Na  Na1  1  0.43110100  0.00271800  0.86362700  1
  Na  Na2  1  0.93115600  0.53104700  0.38487100  1
  Na  Na3  1  0.06884400  0.03104700  0.61512900  1
  Si  Si4  1  0.20786500  0.98561700  0.12670700  1
  Si  Si5  1  0.79213500  0.48561700  0.87329300  1
  H  H6  1  0.95501500  0.28348700  0.15991200  1
  H  H7  1  0.04498500  0.78348700  0.84008800  1
  H  H8  1  0.05735700  0.52648900  0.15475600  1
  H  H9  1  0.94264300  0.02648900  0.84524400  1
  H  H10  1  0.16193300  0.11530000  0.36799500  1
  H  H11  1  0.83806700  0.61530000  0.63200500  1
  H  H12  1  0.92943100  0.04711200  0.37240400  1
  H  H13  1  0.07056900  0.54711200  0.62759600  1
  H  H14  1  0.46998900  0.23787100  0.31522600  1
  H  H15  1  0.53001100  0.73787100  0.68477400  1
  H  H16  1  0.46201100  0.48281500  0.37479500  1
  H  H17  1  0.53798900  0.98281500  0.62520500  1
  H  H18  1  0.34939200  0.74103900  0.49704300  1
  H  H19  1  0.65060800  0.24103900  0.50295700  1
  H  H20  1  0.31577500  0.80498200  0.35906100  1
  H  H21  1  0.68422500  0.30498200  0.64093900  1
  H  H22  1  0.60077800  0.92278400  0.26970900  1
  H  H23  1  0.39922200  0.42278400  0.73029100  1
  H  H24  1  0.80859600  0.92247400  0.20674200  1
  H  H25  1  0.19140400  0.42247400  0.79325800  1
  H  H26  1  0.79369400  0.77767000  0.00687200  1
  H  H27  1  0.82308600  0.15954300  0.99325600  1
  H  H28  1  0.20630600  0.27767000  0.99312800  1
  H  H29  1  0.17691400  0.65954300  0.00674400  1
  O  O30  1  0.31195600  0.17952600  0.04549800  1
  O  O31  1  0.05470800  0.94436100  0.81547600  1
  O  O32  1  0.05014400  0.14191900  0.41515600  1
  O  O33  1  0.94985600  0.64191900  0.58484400  1
  O  O34  1  0.56166600  0.37174500  0.34804100  1
  O  O35  1  0.43833400  0.87174500  0.65195900  1
  O  O36  1  0.30193100  0.67804200  0.41585800  1
  O  O37  1  0.69806900  0.17804200  0.58414200  1
  O  O38  1  0.74937300  0.86156800  0.27525100  1
  O  O39  1  0.25062700  0.36156800  0.72474900  1
  O  O40  1  0.26386900  0.72723300  0.08395100  1
  O  O41  1  0.73613100  0.22723300  0.91604900  1
  O  O42  1  0.66236100  0.51003600  0.73584400  1
  O  O43  1  0.68804400  0.67952600  0.95450200  1
  O  O44  1  0.94705400  0.01902100  0.10297800  1
  O  O45  1  0.05294600  0.51902100  0.89702200  1
  O  O46  1  0.33763900  0.01003600  0.26415600  1
  O  O47  1  0.94529200  0.44436100  0.18452400  1
