# generated using pymatgen
data_BiSI
_symmetry_space_group_name_H-M   'P 1'
_cell_length_a   4.20810000
_cell_length_b   8.88705100
_cell_length_c   11.07134200
_cell_angle_alpha   90.00000000
_cell_angle_beta   90.00000000
_cell_angle_gamma   90.00000000
_symmetry_Int_Tables_number   1
_chemical_formula_structural   BiSI
_chemical_formula_sum   'Bi4 S4 I4'
_cell_volume   414.04161197
_cell_formula_units_Z   4
loop_
 _symmetry_equiv_pos_site_id
 _symmetry_equiv_pos_as_xyz
  1  'x, y, z'
loop_
 _atom_site_type_symbol
 _atom_site_label
 _atom_site_symmetry_multiplicity
 _atom_site_fract_x
 _atom_site_fract_y
 _atom_site_fract_z
 _atom_site_occupancy
  Bi  Bi0  1  0.25000000  0.39007400  0.37614900  1
  Bi  Bi1  1  0.75000000  0.60992600  0.62385100  1
  Bi  Bi2  1  0.25000000  0.89007400  0.12385100  1
  Bi  Bi3  1  0.75000000  0.10992600  0.87614900  1
  S  S4  1  0.75000000  0.33821500  0.53509400  1
  S  S5  1  0.25000000  0.16178500  0.03509400  1
  S  S6  1  0.75000000  0.83821500  0.96490600  1
  S  S7  1  0.25000000  0.66178500  0.46490600  1
  I  I8  1  0.25000000  0.47879200  0.81692700  1
  I  I9  1  0.75000000  0.02120800  0.31692700  1
  I  I10  1  0.25000000  0.97879200  0.68307300  1
  I  I11  1  0.75000000  0.52120800  0.18307300  1
