# generated using pymatgen
data_K3NO3
_symmetry_space_group_name_H-M   'P 1'
_cell_length_a   7.32225200
_cell_length_b   7.32225200
_cell_length_c   10.53749000
_cell_angle_alpha   90.00000000
_cell_angle_beta   90.00000000
_cell_angle_gamma   90.00000000
_symmetry_Int_Tables_number   1
_chemical_formula_structural   K3NO3
_chemical_formula_sum   'K12 N4 O12'
_cell_volume   564.97147108
_cell_formula_units_Z   4
loop_
 _symmetry_equiv_pos_site_id
 _symmetry_equiv_pos_as_xyz
  1  'x, y, z'
loop_
 _atom_site_type_symbol
 _atom_site_label
 _atom_site_symmetry_multiplicity
 _atom_site_fract_x
 _atom_site_fract_y
 _atom_site_fract_z
 _atom_site_occupancy
  K  K0  1  0.30831150  0.80831150  0.48882750  1
  K  K1  1  0.80831150  0.69168850  0.48882750  1
  K  K2  1  0.19168850  0.30831150  0.48882750  1
  K  K3  1  0.69168850  0.19168850  0.48882750  1
  K  K4  1  0.00000000  0.00000000  0.24617300  1
  K  K5  1  0.50000000  0.50000000  0.24617300  1
  K  K6  1  0.80831150  0.30831150  0.98882750  1
  K  K7  1  0.30831150  0.19168850  0.98882750  1
  K  K8  1  0.69168850  0.80831150  0.98882750  1
  K  K9  1  0.19168850  0.69168850  0.98882750  1
  K  K10  1  0.50000000  0.50000000  0.74617300  1
  K  K11  1  0.00000000  0.00000000  0.74617300  1
  N  N12  1  0.00000000  0.50000000  0.21303700  1
  N  N13  1  0.50000000  0.00000000  0.21303700  1
  N  N14  1  0.50000000  0.00000000  0.71303700  1
  N  N15  1  0.00000000  0.50000000  0.71303700  1
  O  O16  1  0.60454100  0.89545900  0.27851800  1
  O  O17  1  0.39545900  0.10454100  0.27851800  1
  O  O18  1  0.50000000  0.50000000  0.00009800  1
  O  O19  1  0.00000000  0.00000000  0.00009800  1
  O  O20  1  0.89545900  0.39545900  0.27851800  1
  O  O21  1  0.10454100  0.60454100  0.27851800  1
  O  O22  1  0.10454100  0.39545900  0.77851800  1
  O  O23  1  0.89545900  0.60454100  0.77851800  1
  O  O24  1  0.00000000  0.00000000  0.50009800  1
  O  O25  1  0.50000000  0.50000000  0.50009800  1
  O  O26  1  0.39545900  0.89545900  0.77851800  1
  O  O27  1  0.60454100  0.10454100  0.77851800  1
