# generated using pymatgen
data_Na4Sn3F10
_symmetry_space_group_name_H-M   'P 1'
_cell_length_a   12.34351800
_cell_length_b   18.45586600
_cell_length_c   5.55515469
_cell_angle_alpha   90.00000000
_cell_angle_beta   91.62340115
_cell_angle_gamma   90.00000000
_symmetry_Int_Tables_number   1
_chemical_formula_structural   Na4Sn3F10
_chemical_formula_sum   'Na16 Sn12 F40'
_cell_volume   1265.01358885
_cell_formula_units_Z   4
loop_
 _symmetry_equiv_pos_site_id
 _symmetry_equiv_pos_as_xyz
  1  'x, y, z'
loop_
 _atom_site_type_symbol
 _atom_site_label
 _atom_site_symmetry_multiplicity
 _atom_site_fract_x
 _atom_site_fract_y
 _atom_site_fract_z
 _atom_site_occupancy
  Na  Na0  1  0.67320300  0.77097100  0.75260500  1
  Na  Na1  1  0.32679700  0.77097100  0.74739500  1
  Na  Na2  1  0.32679700  0.22902900  0.24739500  1
  Na  Na3  1  0.67320300  0.22902900  0.25260500  1
  Na  Na4  1  0.50000000  0.84309500  0.25000000  1
  Na  Na5  1  0.50000000  0.15690500  0.75000000  1
  Na  Na6  1  0.50000000  0.95275700  0.75000000  1
  Na  Na7  1  0.50000000  0.04724300  0.25000000  1
  Na  Na8  1  0.17320300  0.27097100  0.75260500  1
  Na  Na9  1  0.82679700  0.27097100  0.74739500  1
  Na  Na10  1  0.82679700  0.72902900  0.24739500  1
  Na  Na11  1  0.17320300  0.72902900  0.25260500  1
  Na  Na12  1  0.00000000  0.34309500  0.25000000  1
  Na  Na13  1  0.00000000  0.65690500  0.75000000  1
  Na  Na14  1  0.00000000  0.45275700  0.75000000  1
  Na  Na15  1  0.00000000  0.54724300  0.25000000  1
  Sn  Sn16  1  0.25468950  0.08143650  0.66299300  1
  Sn  Sn17  1  0.74531050  0.08143650  0.83700700  1
  Sn  Sn18  1  0.74531050  0.91856350  0.33700700  1
  Sn  Sn19  1  0.25468950  0.91856350  0.16299300  1
  Sn  Sn20  1  0.50000000  0.65780600  0.25000000  1
  Sn  Sn21  1  0.50000000  0.34219400  0.75000000  1
  Sn  Sn22  1  0.75468950  0.58143650  0.66299300  1
  Sn  Sn23  1  0.24531050  0.58143650  0.83700700  1
  Sn  Sn24  1  0.24531050  0.41856350  0.33700700  1
  Sn  Sn25  1  0.75468950  0.41856350  0.16299300  1
  Sn  Sn26  1  0.00000000  0.15780600  0.25000000  1
  Sn  Sn27  1  0.00000000  0.84219400  0.75000000  1
  F  F28  1  0.53771850  0.25895450  0.51649100  1
  F  F29  1  0.46228150  0.25895450  0.98350900  1
  F  F30  1  0.46228150  0.74104550  0.48350900  1
  F  F31  1  0.53771850  0.74104550  0.01649100  1
  F  F32  1  0.73272050  0.17001350  0.60890600  1
  F  F33  1  0.26727950  0.17001350  0.89109400  1
  F  F34  1  0.26727950  0.82998650  0.39109400  1
  F  F35  1  0.73272050  0.82998650  0.10890600  1
  F  F36  1  0.60482900  0.04822300  0.61357200  1
  F  F37  1  0.39517100  0.04822300  0.88642800  1
  F  F38  1  0.39517100  0.95177700  0.38642800  1
  F  F39  1  0.60482900  0.95177700  0.11357200  1
  F  F40  1  0.66846450  0.32202450  0.93691400  1
  F  F41  1  0.33153550  0.32202450  0.56308600  1
  F  F42  1  0.61955050  0.87630350  0.54824300  1
  F  F43  1  0.38044950  0.87630350  0.95175700  1
  F  F44  1  0.38044950  0.12369650  0.45175700  1
  F  F45  1  0.61955050  0.12369650  0.04824300  1
  F  F46  1  0.66846450  0.67797550  0.43691400  1
  F  F47  1  0.33153550  0.67797550  0.06308600  1
  F  F48  1  0.03771850  0.75895450  0.51649100  1
  F  F49  1  0.96228150  0.75895450  0.98350900  1
  F  F50  1  0.96228150  0.24104550  0.48350900  1
  F  F51  1  0.03771850  0.24104550  0.01649100  1
  F  F52  1  0.23272050  0.67001350  0.60890600  1
  F  F53  1  0.76727950  0.67001350  0.89109400  1
  F  F54  1  0.76727950  0.32998650  0.39109400  1
  F  F55  1  0.23272050  0.32998650  0.10890600  1
  F  F56  1  0.10482900  0.54822300  0.61357200  1
  F  F57  1  0.89517100  0.54822300  0.88642800  1
  F  F58  1  0.89517100  0.45177700  0.38642800  1
  F  F59  1  0.10482900  0.45177700  0.11357200  1
  F  F60  1  0.16846450  0.82202450  0.93691400  1
  F  F61  1  0.83153550  0.82202450  0.56308600  1
  F  F62  1  0.11955050  0.37630350  0.54824300  1
  F  F63  1  0.88044950  0.37630350  0.95175700  1
  F  F64  1  0.88044950  0.62369650  0.45175700  1
  F  F65  1  0.11955050  0.62369650  0.04824300  1
  F  F66  1  0.16846450  0.17797550  0.43691400  1
  F  F67  1  0.83153550  0.17797550  0.06308600  1
