# generated using pymatgen
data_Be3P2
_symmetry_space_group_name_H-M   'P 1'
_cell_length_a   10.23585000
_cell_length_b   10.23585000
_cell_length_c   20.37496600
_cell_angle_alpha   90.00000000
_cell_angle_beta   90.00000000
_cell_angle_gamma   90.00000000
_symmetry_Int_Tables_number   1
_chemical_formula_structural   Be3P2
_chemical_formula_sum   'Be96 P64'
_cell_volume   2134.73867664
_cell_formula_units_Z   32
loop_
 _symmetry_equiv_pos_site_id
 _symmetry_equiv_pos_as_xyz
  1  'x, y, z'
loop_
 _atom_site_type_symbol
 _atom_site_label
 _atom_site_symmetry_multiplicity
 _atom_site_fract_x
 _atom_site_fract_y
 _atom_site_fract_z
 _atom_site_occupancy
  Be  Be0  1  0.63146500  0.64162300  0.18676300  1
  Be  Be1  1  0.35837700  0.13146500  0.43676300  1
  Be  Be2  1  0.64162300  0.86853500  0.43676300  1
  Be  Be3  1  0.13146500  0.35837700  0.06323700  1
  Be  Be4  1  0.86853500  0.64162300  0.06323700  1
  Be  Be5  1  0.64162300  0.63146500  0.31323700  1
  Be  Be6  1  0.35837700  0.36853500  0.31323700  1
  Be  Be7  1  0.36853500  0.35837700  0.18676300  1
  Be  Be8  1  0.36853500  0.85837700  0.06323700  1
  Be  Be9  1  0.14162300  0.86853500  0.31323700  1
  Be  Be10  1  0.85837700  0.13146500  0.31323700  1
  Be  Be11  1  0.86853500  0.14162300  0.18676300  1
  Be  Be12  1  0.13146500  0.85837700  0.18676300  1
  Be  Be13  1  0.85837700  0.36853500  0.43676300  1
  Be  Be14  1  0.14162300  0.63146500  0.43676300  1
  Be  Be15  1  0.63146500  0.14162300  0.06323700  1
  Be  Be16  1  0.88467600  0.61782000  0.19228100  1
  Be  Be17  1  0.38218000  0.38467600  0.44228100  1
  Be  Be18  1  0.61782000  0.61532400  0.44228100  1
  Be  Be19  1  0.38467600  0.38218000  0.05771900  1
  Be  Be20  1  0.61532400  0.61782000  0.05771900  1
  Be  Be21  1  0.61782000  0.88467600  0.30771900  1
  Be  Be22  1  0.38218000  0.11532400  0.30771900  1
  Be  Be23  1  0.11532400  0.38218000  0.19228100  1
  Be  Be24  1  0.11532400  0.88218000  0.05771900  1
  Be  Be25  1  0.11782000  0.61532400  0.30771900  1
  Be  Be26  1  0.88218000  0.38467600  0.30771900  1
  Be  Be27  1  0.61532400  0.11782000  0.19228100  1
  Be  Be28  1  0.38467600  0.88218000  0.19228100  1
  Be  Be29  1  0.88218000  0.11532400  0.44228100  1
  Be  Be30  1  0.11782000  0.88467600  0.44228100  1
  Be  Be31  1  0.88467600  0.11782000  0.05771900  1
  Be  Be32  1  0.63341700  0.37463900  0.18059300  1
  Be  Be33  1  0.62536100  0.13341700  0.43059300  1
  Be  Be34  1  0.37463900  0.86658300  0.43059300  1
  Be  Be35  1  0.13341700  0.62536100  0.06940700  1
  Be  Be36  1  0.86658300  0.37463900  0.06940700  1
  Be  Be37  1  0.37463900  0.63341700  0.31940700  1
  Be  Be38  1  0.62536100  0.36658300  0.31940700  1
  Be  Be39  1  0.36658300  0.62536100  0.18059300  1
  Be  Be40  1  0.36658300  0.12536100  0.06940700  1
  Be  Be41  1  0.87463900  0.86658300  0.31940700  1
  Be  Be42  1  0.12536100  0.13341700  0.31940700  1
  Be  Be43  1  0.86658300  0.87463900  0.18059300  1
  Be  Be44  1  0.13341700  0.12536100  0.18059300  1
  Be  Be45  1  0.12536100  0.36658300  0.43059300  1
  Be  Be46  1  0.87463900  0.63341700  0.43059300  1
  Be  Be47  1  0.63341700  0.87463900  0.06940700  1
  Be  Be48  1  0.13146500  0.14162300  0.68676300  1
  Be  Be49  1  0.85837700  0.63146500  0.93676300  1
  Be  Be50  1  0.14162300  0.36853500  0.93676300  1
  Be  Be51  1  0.63146500  0.85837700  0.56323700  1
  Be  Be52  1  0.36853500  0.14162300  0.56323700  1
  Be  Be53  1  0.14162300  0.13146500  0.81323700  1
  Be  Be54  1  0.85837700  0.86853500  0.81323700  1
  Be  Be55  1  0.86853500  0.85837700  0.68676300  1
  Be  Be56  1  0.86853500  0.35837700  0.56323700  1
  Be  Be57  1  0.64162300  0.36853500  0.81323700  1
  Be  Be58  1  0.35837700  0.63146500  0.81323700  1
  Be  Be59  1  0.36853500  0.64162300  0.68676300  1
  Be  Be60  1  0.63146500  0.35837700  0.68676300  1
  Be  Be61  1  0.35837700  0.86853500  0.93676300  1
  Be  Be62  1  0.64162300  0.13146500  0.93676300  1
  Be  Be63  1  0.13146500  0.64162300  0.56323700  1
  Be  Be64  1  0.38467600  0.11782000  0.69228100  1
  Be  Be65  1  0.88218000  0.88467600  0.94228100  1
  Be  Be66  1  0.11782000  0.11532400  0.94228100  1
  Be  Be67  1  0.88467600  0.88218000  0.55771900  1
  Be  Be68  1  0.11532400  0.11782000  0.55771900  1
  Be  Be69  1  0.11782000  0.38467600  0.80771900  1
  Be  Be70  1  0.88218000  0.61532400  0.80771900  1
  Be  Be71  1  0.61532400  0.88218000  0.69228100  1
  Be  Be72  1  0.61532400  0.38218000  0.55771900  1
  Be  Be73  1  0.61782000  0.11532400  0.80771900  1
  Be  Be74  1  0.38218000  0.88467600  0.80771900  1
  Be  Be75  1  0.11532400  0.61782000  0.69228100  1
  Be  Be76  1  0.88467600  0.38218000  0.69228100  1
  Be  Be77  1  0.38218000  0.61532400  0.94228100  1
  Be  Be78  1  0.61782000  0.38467600  0.94228100  1
  Be  Be79  1  0.38467600  0.61782000  0.55771900  1
  Be  Be80  1  0.13341700  0.87463900  0.68059300  1
  Be  Be81  1  0.12536100  0.63341700  0.93059300  1
  Be  Be82  1  0.87463900  0.36658300  0.93059300  1
  Be  Be83  1  0.63341700  0.12536100  0.56940700  1
  Be  Be84  1  0.36658300  0.87463900  0.56940700  1
  Be  Be85  1  0.87463900  0.13341700  0.81940700  1
  Be  Be86  1  0.12536100  0.86658300  0.81940700  1
  Be  Be87  1  0.86658300  0.12536100  0.68059300  1
  Be  Be88  1  0.86658300  0.62536100  0.56940700  1
  Be  Be89  1  0.37463900  0.36658300  0.81940700  1
  Be  Be90  1  0.62536100  0.63341700  0.81940700  1
  Be  Be91  1  0.36658300  0.37463900  0.68059300  1
  Be  Be92  1  0.63341700  0.62536100  0.68059300  1
  Be  Be93  1  0.62536100  0.86658300  0.93059300  1
  Be  Be94  1  0.37463900  0.13341700  0.93059300  1
  Be  Be95  1  0.13341700  0.37463900  0.56940700  1
  P  P96  1  0.00000000  0.00000000  0.00000000  1
  P  P97  1  0.00000000  0.50000000  0.25000000  1
  P  P98  1  0.50000000  0.00000000  0.25000000  1
  P  P99  1  0.50000000  0.50000000  0.00000000  1
  P  P100  1  0.50000000  0.50000000  0.25000000  1
  P  P101  1  0.00000000  0.50000000  0.00000000  1
  P  P102  1  0.50000000  0.00000000  0.00000000  1
  P  P103  1  0.00000000  0.00000000  0.25000000  1
  P  P104  1  0.50000000  0.25000000  0.12500000  1
  P  P105  1  0.75000000  0.00000000  0.37500000  1
  P  P106  1  0.25000000  0.00000000  0.37500000  1
  P  P107  1  0.00000000  0.75000000  0.12500000  1
  P  P108  1  0.00000000  0.25000000  0.12500000  1
  P  P109  1  0.25000000  0.50000000  0.37500000  1
  P  P110  1  0.75000000  0.50000000  0.37500000  1
  P  P111  1  0.50000000  0.75000000  0.12500000  1
  P  P112  1  0.48604900  0.25000000  0.37500000  1
  P  P113  1  0.25000000  0.48604900  0.12500000  1
  P  P114  1  0.75000000  0.51395100  0.12500000  1
  P  P115  1  0.51395100  0.75000000  0.37500000  1
  P  P116  1  0.01395100  0.75000000  0.37500000  1
  P  P117  1  0.75000000  0.01395100  0.12500000  1
  P  P118  1  0.25000000  0.98604900  0.12500000  1
  P  P119  1  0.98604900  0.25000000  0.37500000  1
  P  P120  1  0.75708350  0.75708350  0.25000000  1
  P  P121  1  0.74291650  0.75708350  0.00000000  1
  P  P122  1  0.25708350  0.24291650  0.00000000  1
  P  P123  1  0.24291650  0.24291650  0.25000000  1
  P  P124  1  0.74291650  0.24291650  0.50000000  1
  P  P125  1  0.25708350  0.74291650  0.25000000  1
  P  P126  1  0.74291650  0.25708350  0.25000000  1
  P  P127  1  0.75708350  0.25708350  0.00000000  1
  P  P128  1  0.50000000  0.50000000  0.50000000  1
  P  P129  1  0.50000000  0.00000000  0.75000000  1
  P  P130  1  0.00000000  0.50000000  0.75000000  1
  P  P131  1  0.00000000  0.00000000  0.50000000  1
  P  P132  1  0.00000000  0.00000000  0.75000000  1
  P  P133  1  0.50000000  0.00000000  0.50000000  1
  P  P134  1  0.00000000  0.50000000  0.50000000  1
  P  P135  1  0.50000000  0.50000000  0.75000000  1
  P  P136  1  0.00000000  0.75000000  0.62500000  1
  P  P137  1  0.25000000  0.50000000  0.87500000  1
  P  P138  1  0.75000000  0.50000000  0.87500000  1
  P  P139  1  0.50000000  0.25000000  0.62500000  1
  P  P140  1  0.50000000  0.75000000  0.62500000  1
  P  P141  1  0.75000000  0.00000000  0.87500000  1
  P  P142  1  0.25000000  0.00000000  0.87500000  1
  P  P143  1  0.00000000  0.25000000  0.62500000  1
  P  P144  1  0.98604900  0.75000000  0.87500000  1
  P  P145  1  0.75000000  0.98604900  0.62500000  1
  P  P146  1  0.25000000  0.01395100  0.62500000  1
  P  P147  1  0.01395100  0.25000000  0.87500000  1
  P  P148  1  0.51395100  0.25000000  0.87500000  1
  P  P149  1  0.25000000  0.51395100  0.62500000  1
  P  P150  1  0.75000000  0.48604900  0.62500000  1
  P  P151  1  0.48604900  0.75000000  0.87500000  1
  P  P152  1  0.25708350  0.25708350  0.75000000  1
  P  P153  1  0.24291650  0.25708350  0.50000000  1
  P  P154  1  0.75708350  0.74291650  0.50000000  1
  P  P155  1  0.74291650  0.74291650  0.75000000  1
  P  P156  1  0.24291650  0.74291650  0.00000000  1
  P  P157  1  0.75708350  0.24291650  0.75000000  1
  P  P158  1  0.24291650  0.75708350  0.75000000  1
  P  P159  1  0.25708350  0.75708350  0.50000000  1
