# generated using pymatgen
data_Bi3ClO4
_symmetry_space_group_name_H-M   'P 1'
_cell_length_a   19.60563000
_cell_length_b   5.79809600
_cell_length_c   5.79233360
_cell_angle_alpha   90.00000000
_cell_angle_beta   106.76611614
_cell_angle_gamma   90.00000000
_symmetry_Int_Tables_number   1
_chemical_formula_structural   Bi3ClO4
_chemical_formula_sum   'Bi12 Cl4 O16'
_cell_volume   630.45506035
_cell_formula_units_Z   4
loop_
 _symmetry_equiv_pos_site_id
 _symmetry_equiv_pos_as_xyz
  1  'x, y, z'
loop_
 _atom_site_type_symbol
 _atom_site_label
 _atom_site_symmetry_multiplicity
 _atom_site_fract_x
 _atom_site_fract_y
 _atom_site_fract_z
 _atom_site_occupancy
  Bi  Bi0  1  0.35527050  0.70328850  0.56135800  1
  Bi  Bi1  1  0.35527050  0.29671150  0.06135800  1
  Bi  Bi2  1  0.14472950  0.79671150  0.43864200  1
  Bi  Bi3  1  0.14472950  0.20328850  0.93864200  1
  Bi  Bi4  1  0.00000000  0.29522500  0.25000000  1
  Bi  Bi5  1  0.00000000  0.70477500  0.75000000  1
  Bi  Bi6  1  0.85527050  0.20328850  0.56135800  1
  Bi  Bi7  1  0.85527050  0.79671150  0.06135800  1
  Bi  Bi8  1  0.64472950  0.29671150  0.43864200  1
  Bi  Bi9  1  0.64472950  0.70328850  0.93864200  1
  Bi  Bi10  1  0.50000000  0.79522500  0.25000000  1
  Bi  Bi11  1  0.50000000  0.20477500  0.75000000  1
  Cl  Cl12  1  0.25000000  0.25000000  0.50000000  1
  Cl  Cl13  1  0.25000000  0.75000000  0.00000000  1
  Cl  Cl14  1  0.75000000  0.75000000  0.50000000  1
  Cl  Cl15  1  0.75000000  0.25000000  0.00000000  1
  O  O16  1  0.06629000  0.43370400  0.99293300  1
  O  O17  1  0.43371000  0.93370400  0.50706700  1
  O  O18  1  0.43371000  0.06629600  0.00706700  1
  O  O19  1  0.06629000  0.56629600  0.49293300  1
  O  O20  1  0.08991150  0.04121350  0.60245900  1
  O  O21  1  0.41008850  0.45878650  0.39754100  1
  O  O22  1  0.41008850  0.54121350  0.89754100  1
  O  O23  1  0.08991150  0.95878650  0.10245900  1
  O  O24  1  0.56629000  0.93370400  0.99293300  1
  O  O25  1  0.93371000  0.43370400  0.50706700  1
  O  O26  1  0.93371000  0.56629600  0.00706700  1
  O  O27  1  0.56629000  0.06629600  0.49293300  1
  O  O28  1  0.58991150  0.54121350  0.60245900  1
  O  O29  1  0.91008850  0.95878650  0.39754100  1
  O  O30  1  0.91008850  0.04121350  0.89754100  1
  O  O31  1  0.58991150  0.45878650  0.10245900  1
