# generated using pymatgen
data_AsI3
_symmetry_space_group_name_H-M   'P 1'
_cell_length_a   7.42479996
_cell_length_b   7.42479996
_cell_length_c   22.40740042
_cell_angle_alpha   90.00000000
_cell_angle_beta   90.00000000
_cell_angle_gamma   120.00000000
_symmetry_Int_Tables_number   1
_chemical_formula_structural   AsI3
_chemical_formula_sum   'As6 I18'
_cell_volume   1069.77297180
_cell_formula_units_Z   6
loop_
 _symmetry_equiv_pos_site_id
 _symmetry_equiv_pos_as_xyz
  1  'x, y, z'
loop_
 _atom_site_type_symbol
 _atom_site_label
 _atom_site_symmetry_multiplicity
 _atom_site_fract_x
 _atom_site_fract_y
 _atom_site_fract_z
 _atom_site_occupancy
  As  As0  1  0.00000000  0.00000000  0.18025100  1
  As  As1  1  0.66666667  0.33333333  0.15308233  1
  As  As2  1  0.66666667  0.33333333  0.51358433  1
  As  As3  1  0.33333333  0.66666667  0.48641567  1
  As  As4  1  0.33333333  0.66666667  0.84691767  1
  As  As5  1  0.00000000  0.00000000  0.81974900  1
  I  I6  1  0.96804733  0.31179167  0.08984367  1
  I  I7  1  0.34374433  0.03195267  0.08984367  1
  I  I8  1  0.68820833  0.65625567  0.08984367  1
  I  I9  1  0.69861933  0.02154167  0.24348967  1
  I  I10  1  0.32292233  0.30138067  0.24348967  1
  I  I11  1  0.97845833  0.67707767  0.24348967  1
  I  I12  1  0.63471400  0.64512500  0.42317700  1
  I  I13  1  0.01041100  0.36528600  0.42317700  1
  I  I14  1  0.35487500  0.98958900  0.42317700  1
  I  I15  1  0.36528600  0.35487500  0.57682300  1
  I  I16  1  0.98958900  0.63471400  0.57682300  1
  I  I17  1  0.64512500  0.01041100  0.57682300  1
  I  I18  1  0.30138067  0.97845833  0.75651033  1
  I  I19  1  0.67707767  0.69861933  0.75651033  1
  I  I20  1  0.02154167  0.32292233  0.75651033  1
  I  I21  1  0.03195267  0.68820833  0.91015633  1
  I  I22  1  0.65625567  0.96804733  0.91015633  1
  I  I23  1  0.31179167  0.34374433  0.91015633  1
