# generated using pymatgen
data_YbCl2
_symmetry_space_group_name_H-M   'P 1'
_cell_length_a   6.63542200
_cell_length_b   6.85063800
_cell_length_c   13.04745300
_cell_angle_alpha   90.00000000
_cell_angle_beta   90.00000000
_cell_angle_gamma   90.00000000
_symmetry_Int_Tables_number   1
_chemical_formula_structural   YbCl2
_chemical_formula_sum   'Yb8 Cl16'
_cell_volume   593.09642834
_cell_formula_units_Z   8
loop_
 _symmetry_equiv_pos_site_id
 _symmetry_equiv_pos_as_xyz
  1  'x, y, z'
loop_
 _atom_site_type_symbol
 _atom_site_label
 _atom_site_symmetry_multiplicity
 _atom_site_fract_x
 _atom_site_fract_y
 _atom_site_fract_z
 _atom_site_occupancy
  Yb  Yb0  1  0.73233400  0.04463000  0.61232300  1
  Yb  Yb1  1  0.23233400  0.95537000  0.88767700  1
  Yb  Yb2  1  0.76766600  0.54463000  0.38767700  1
  Yb  Yb3  1  0.26766600  0.45537000  0.11232300  1
  Yb  Yb4  1  0.26766600  0.95537000  0.38767700  1
  Yb  Yb5  1  0.76766600  0.04463000  0.11232300  1
  Yb  Yb6  1  0.23233400  0.45537000  0.61232300  1
  Yb  Yb7  1  0.73233400  0.54463000  0.88767700  1
  Cl  Cl8  1  0.99987900  0.23781600  0.47235000  1
  Cl  Cl9  1  0.49987900  0.76218400  0.02765000  1
  Cl  Cl10  1  0.50012100  0.73781600  0.52765000  1
  Cl  Cl11  1  0.00012100  0.26218400  0.97235000  1
  Cl  Cl12  1  0.00012100  0.76218400  0.52765000  1
  Cl  Cl13  1  0.50012100  0.23781600  0.97235000  1
  Cl  Cl14  1  0.49987900  0.26218400  0.47235000  1
  Cl  Cl15  1  0.99987900  0.73781600  0.02765000  1
  Cl  Cl16  1  0.86284100  0.87904200  0.79142200  1
  Cl  Cl17  1  0.36284100  0.12095800  0.70857800  1
  Cl  Cl18  1  0.63715900  0.37904200  0.20857800  1
  Cl  Cl19  1  0.13715900  0.62095800  0.29142200  1
  Cl  Cl20  1  0.13715900  0.12095800  0.20857800  1
  Cl  Cl21  1  0.63715900  0.87904200  0.29142200  1
  Cl  Cl22  1  0.36284100  0.62095800  0.79142200  1
  Cl  Cl23  1  0.86284100  0.37904200  0.70857800  1
