# generated using pymatgen
data_AlH3
_symmetry_space_group_name_H-M   'P 1'
_cell_length_a   4.46881745
_cell_length_b   4.46881745
_cell_length_c   11.84338512
_cell_angle_alpha   90.00000000
_cell_angle_beta   90.00000000
_cell_angle_gamma   120.00000000
_symmetry_Int_Tables_number   1
_chemical_formula_structural   AlH3
_chemical_formula_sum   'Al6 H18'
_cell_volume   204.82912586
_cell_formula_units_Z   6
loop_
 _symmetry_equiv_pos_site_id
 _symmetry_equiv_pos_as_xyz
  1  'x, y, z'
loop_
 _atom_site_type_symbol
 _atom_site_label
 _atom_site_symmetry_multiplicity
 _atom_site_fract_x
 _atom_site_fract_y
 _atom_site_fract_z
 _atom_site_occupancy
  Al  Al0  1  0.33333333  0.66666667  0.16666667  1
  Al  Al1  1  0.00000000  0.00000000  0.00000000  1
  Al  Al2  1  1.00000000  0.00000000  0.50000000  1
  Al  Al3  1  0.66666667  0.33333333  0.33333333  1
  Al  Al4  1  0.66666667  0.33333333  0.83333333  1
  Al  Al5  1  0.33333333  0.66666667  0.66666667  1
  H  H6  1  0.29525867  0.33333333  0.08333333  1
  H  H7  1  0.66666667  0.96192533  0.08333333  1
  H  H8  1  0.62859200  0.62859200  0.25000000  1
  H  H9  1  0.00000000  0.37140800  0.25000000  1
  H  H10  1  0.37140800  0.00000000  0.25000000  1
  H  H11  1  0.03807467  0.70474133  0.08333333  1
  H  H12  1  0.96192533  0.66666667  0.41666667  1
  H  H13  1  0.33333333  0.29525867  0.41666667  1
  H  H14  1  0.29525867  0.96192533  0.58333333  1
  H  H15  1  0.66666667  0.70474133  0.58333333  1
  H  H16  1  0.03807467  0.33333333  0.58333333  1
  H  H17  1  0.70474133  0.03807467  0.41666667  1
  H  H18  1  0.62859200  0.00000000  0.75000000  1
  H  H19  1  0.00000000  0.62859200  0.75000000  1
  H  H20  1  0.96192533  0.29525867  0.91666667  1
  H  H21  1  0.33333333  0.03807467  0.91666667  1
  H  H22  1  0.70474133  0.66666667  0.91666667  1
  H  H23  1  0.37140800  0.37140800  0.75000000  1
