# generated using pymatgen
data_Pb3O4
_symmetry_space_group_name_H-M   'P 1'
_cell_length_a   6.78126600
_cell_length_b   8.72224300
_cell_length_c   9.32949400
_cell_angle_alpha   90.00000000
_cell_angle_beta   90.00000000
_cell_angle_gamma   90.00000000
_symmetry_Int_Tables_number   1
_chemical_formula_structural   Pb3O4
_chemical_formula_sum   'Pb12 O16'
_cell_volume   551.81951075
_cell_formula_units_Z   4
loop_
 _symmetry_equiv_pos_site_id
 _symmetry_equiv_pos_as_xyz
  1  'x, y, z'
loop_
 _atom_site_type_symbol
 _atom_site_label
 _atom_site_symmetry_multiplicity
 _atom_site_fract_x
 _atom_site_fract_y
 _atom_site_fract_z
 _atom_site_occupancy
  Pb  Pb0  1  0.50000000  0.36738300  0.32535300  1
  Pb  Pb1  1  0.50000000  0.63261700  0.67464700  1
  Pb  Pb2  1  0.50000000  0.86738300  0.17464700  1
  Pb  Pb3  1  0.50000000  0.13261700  0.82535300  1
  Pb  Pb4  1  0.00000000  0.65836200  0.34322400  1
  Pb  Pb5  1  0.00000000  0.34163800  0.65677600  1
  Pb  Pb6  1  0.00000000  0.15836200  0.15677600  1
  Pb  Pb7  1  0.00000000  0.84163800  0.84322400  1
  Pb  Pb8  1  0.75075700  0.00000000  0.50000000  1
  Pb  Pb9  1  0.24924300  0.50000000  0.00000000  1
  Pb  Pb10  1  0.24924300  0.00000000  0.50000000  1
  Pb  Pb11  1  0.75075700  0.50000000  0.00000000  1
  O  O12  1  0.50000000  0.09794900  0.37128600  1
  O  O13  1  0.50000000  0.90205100  0.62871400  1
  O  O14  1  0.50000000  0.59794900  0.12871400  1
  O  O15  1  0.50000000  0.40205100  0.87128600  1
  O  O16  1  0.00000000  0.13935700  0.40906000  1
  O  O17  1  0.00000000  0.86064300  0.59094000  1
  O  O18  1  0.00000000  0.63935700  0.09094000  1
  O  O19  1  0.00000000  0.36064300  0.90906000  1
  O  O20  1  0.75082600  0.32870200  0.17089200  1
  O  O21  1  0.75082600  0.67129800  0.82910800  1
  O  O22  1  0.24917400  0.82870200  0.32910800  1
  O  O23  1  0.24917400  0.17129800  0.67089200  1
  O  O24  1  0.75082600  0.82870200  0.32910800  1
  O  O25  1  0.75082600  0.17129800  0.67089200  1
  O  O26  1  0.24917400  0.32870200  0.17089200  1
  O  O27  1  0.24917400  0.67129800  0.82910800  1
