# generated using pymatgen
data_RbClO3
_symmetry_space_group_name_H-M   'P 1'
_cell_length_a   6.15017412
_cell_length_b   6.15017412
_cell_length_c   8.75927577
_cell_angle_alpha   90.00000000
_cell_angle_beta   90.00000000
_cell_angle_gamma   120.00000000
_symmetry_Int_Tables_number   1
_chemical_formula_structural   RbClO3
_chemical_formula_sum   'Rb3 Cl3 O9'
_cell_volume   286.92847793
_cell_formula_units_Z   3
loop_
 _symmetry_equiv_pos_site_id
 _symmetry_equiv_pos_as_xyz
  1  'x, y, z'
loop_
 _atom_site_type_symbol
 _atom_site_label
 _atom_site_symmetry_multiplicity
 _atom_site_fract_x
 _atom_site_fract_y
 _atom_site_fract_z
 _atom_site_occupancy
  Rb  Rb0  1  0.33333333  0.66666667  0.64146367  1
  Rb  Rb1  1  0.00000000  0.00000000  0.97479700  1
  Rb  Rb2  1  0.66666667  0.33333333  0.30813033  1
  Cl  Cl3  1  0.33333333  0.66666667  0.15537567  1
  Cl  Cl4  1  0.00000000  0.00000000  0.48870900  1
  Cl  Cl5  1  0.66666667  0.33333333  0.82204233  1
  O  O6  1  0.20208733  0.40417467  0.22016467  1
  O  O7  1  0.20208733  0.79791267  0.22016467  1
  O  O8  1  0.59582533  0.79791267  0.22016467  1
  O  O9  1  0.86875400  0.73750800  0.55349800  1
  O  O10  1  0.86875400  0.13124600  0.55349800  1
  O  O11  1  0.26249200  0.13124600  0.55349800  1
  O  O12  1  0.53542067  0.07084133  0.88683133  1
  O  O13  1  0.53542067  0.46457933  0.88683133  1
  O  O14  1  0.92915867  0.46457933  0.88683133  1
