# generated using pymatgen
data_Rb4CdCl6
_symmetry_space_group_name_H-M   'P 1'
_cell_length_a   12.71716494
_cell_length_b   12.71716494
_cell_length_c   15.81042983
_cell_angle_alpha   90.00000000
_cell_angle_beta   90.00000000
_cell_angle_gamma   120.00000000
_symmetry_Int_Tables_number   1
_chemical_formula_structural   Rb4CdCl6
_chemical_formula_sum   'Rb24 Cd6 Cl36'
_cell_volume   2214.39410542
_cell_formula_units_Z   6
loop_
 _symmetry_equiv_pos_site_id
 _symmetry_equiv_pos_as_xyz
  1  'x, y, z'
loop_
 _atom_site_type_symbol
 _atom_site_label
 _atom_site_symmetry_multiplicity
 _atom_site_fract_x
 _atom_site_fract_y
 _atom_site_fract_z
 _atom_site_occupancy
  Rb  Rb0  1  0.33333333  0.66666667  0.41666667  1
  Rb  Rb1  1  0.33333333  0.66666667  0.91666667  1
  Rb  Rb2  1  0.00000000  0.37640400  0.25000000  1
  Rb  Rb3  1  0.62359600  0.62359600  0.25000000  1
  Rb  Rb4  1  0.37640400  0.00000000  0.25000000  1
  Rb  Rb5  1  0.66666667  0.95692933  0.08333333  1
  Rb  Rb6  1  0.04307067  0.70973733  0.08333333  1
  Rb  Rb7  1  0.29026267  0.33333333  0.08333333  1
  Rb  Rb8  1  0.00000000  0.00000000  0.75000000  1
  Rb  Rb9  1  0.00000000  0.00000000  0.25000000  1
  Rb  Rb10  1  0.66666667  0.70973733  0.58333333  1
  Rb  Rb11  1  0.29026267  0.95692933  0.58333333  1
  Rb  Rb12  1  0.04307067  0.33333333  0.58333333  1
  Rb  Rb13  1  0.33333333  0.29026267  0.41666667  1
  Rb  Rb14  1  0.70973733  0.04307067  0.41666667  1
  Rb  Rb15  1  0.95692933  0.66666667  0.41666667  1
  Rb  Rb16  1  0.66666667  0.33333333  0.08333333  1
  Rb  Rb17  1  0.66666667  0.33333333  0.58333333  1
  Rb  Rb18  1  0.33333333  0.04307067  0.91666667  1
  Rb  Rb19  1  0.95692933  0.29026267  0.91666667  1
  Rb  Rb20  1  0.70973733  0.66666667  0.91666667  1
  Rb  Rb21  1  0.00000000  0.62359600  0.75000000  1
  Rb  Rb22  1  0.37640400  0.37640400  0.75000000  1
  Rb  Rb23  1  0.62359600  0.00000000  0.75000000  1
  Cd  Cd24  1  0.33333333  0.66666667  0.16666667  1
  Cd  Cd25  1  0.00000000  0.00000000  0.00000000  1
  Cd  Cd26  1  1.00000000  0.00000000  0.50000000  1
  Cd  Cd27  1  0.66666667  0.33333333  0.33333333  1
  Cd  Cd28  1  0.66666667  0.33333333  0.83333333  1
  Cd  Cd29  1  0.33333333  0.66666667  0.66666667  1
  Cl  Cl30  1  0.84365633  0.81359867  0.09865167  1
  Cl  Cl31  1  0.18640133  0.03005767  0.09865167  1
  Cl  Cl32  1  0.96994233  0.15634367  0.09865167  1
  Cl  Cl33  1  0.36339100  0.85306800  0.06801500  1
  Cl  Cl34  1  0.14693200  0.51032300  0.06801500  1
  Cl  Cl35  1  0.48967700  0.63660900  0.06801500  1
  Cl  Cl36  1  0.82301033  0.51973467  0.23468167  1
  Cl  Cl37  1  0.48026533  0.30327567  0.23468167  1
  Cl  Cl38  1  0.69672433  0.17698967  0.23468167  1
  Cl  Cl39  1  0.30327567  0.48026533  0.26531833  1
  Cl  Cl40  1  0.17698967  0.69672433  0.26531833  1
  Cl  Cl41  1  0.51973467  0.82301033  0.26531833  1
  Cl  Cl42  1  0.51032300  0.14693200  0.43198500  1
  Cl  Cl43  1  0.85306800  0.36339100  0.43198500  1
  Cl  Cl44  1  0.63660900  0.48967700  0.43198500  1
  Cl  Cl45  1  0.03005767  0.18640133  0.40134833  1
  Cl  Cl46  1  0.81359867  0.84365633  0.40134833  1
  Cl  Cl47  1  0.15634367  0.96994233  0.40134833  1
  Cl  Cl48  1  0.48967700  0.85306800  0.56801500  1
  Cl  Cl49  1  0.14693200  0.63660900  0.56801500  1
  Cl  Cl50  1  0.36339100  0.51032300  0.56801500  1
  Cl  Cl51  1  0.96994233  0.81359867  0.59865167  1
  Cl  Cl52  1  0.84365633  0.03005767  0.59865167  1
  Cl  Cl53  1  0.18640133  0.15634367  0.59865167  1
  Cl  Cl54  1  0.17698967  0.48026533  0.76531833  1
  Cl  Cl55  1  0.51973467  0.69672433  0.76531833  1
  Cl  Cl56  1  0.30327567  0.82301033  0.76531833  1
  Cl  Cl57  1  0.69672433  0.51973467  0.73468167  1
  Cl  Cl58  1  0.48026533  0.17698967  0.73468167  1
  Cl  Cl59  1  0.82301033  0.30327567  0.73468167  1
  Cl  Cl60  1  0.15634367  0.18640133  0.90134833  1
  Cl  Cl61  1  0.81359867  0.96994233  0.90134833  1
  Cl  Cl62  1  0.03005767  0.84365633  0.90134833  1
  Cl  Cl63  1  0.63660900  0.14693200  0.93198500  1
  Cl  Cl64  1  0.51032300  0.36339100  0.93198500  1
  Cl  Cl65  1  0.85306800  0.48967700  0.93198500  1
