# generated using pymatgen
data_Ba3(GaS3)2
_symmetry_space_group_name_H-M   'P 1'
_cell_length_a   9.17135400
_cell_length_b   14.58522600
_cell_length_c   9.22970612
_cell_angle_alpha   90.00000000
_cell_angle_beta   91.73105448
_cell_angle_gamma   90.00000000
_symmetry_Int_Tables_number   1
_chemical_formula_structural   Ba3(GaS3)2
_chemical_formula_sum   'Ba12 Ga8 S24'
_cell_volume   1234.05992882
_cell_formula_units_Z   4
loop_
 _symmetry_equiv_pos_site_id
 _symmetry_equiv_pos_as_xyz
  1  'x, y, z'
loop_
 _atom_site_type_symbol
 _atom_site_label
 _atom_site_symmetry_multiplicity
 _atom_site_fract_x
 _atom_site_fract_y
 _atom_site_fract_z
 _atom_site_occupancy
  Ba  Ba0  1  0.50000000  0.46458600  0.75000000  1
  Ba  Ba1  1  0.50000000  0.53541400  0.25000000  1
  Ba  Ba2  1  0.59623750  0.13788250  0.50942800  1
  Ba  Ba3  1  0.40376250  0.13788250  0.99057200  1
  Ba  Ba4  1  0.40376250  0.86211750  0.49057200  1
  Ba  Ba5  1  0.59623750  0.86211750  0.00942800  1
  Ba  Ba6  1  0.00000000  0.96458600  0.75000000  1
  Ba  Ba7  1  0.00000000  0.03541400  0.25000000  1
  Ba  Ba8  1  0.09623750  0.63788250  0.50942800  1
  Ba  Ba9  1  0.90376250  0.63788250  0.99057200  1
  Ba  Ba10  1  0.90376250  0.36211750  0.49057200  1
  Ba  Ba11  1  0.09623750  0.36211750  0.00942800  1
  Ga  Ga12  1  0.18282800  0.83708900  0.06771900  1
  Ga  Ga13  1  0.81717200  0.83708900  0.43228100  1
  Ga  Ga14  1  0.81717200  0.16291100  0.93228100  1
  Ga  Ga15  1  0.18282800  0.16291100  0.56771900  1
  Ga  Ga16  1  0.68282800  0.33708900  0.06771900  1
  Ga  Ga17  1  0.31717200  0.33708900  0.43228100  1
  Ga  Ga18  1  0.31717200  0.66291100  0.93228100  1
  Ga  Ga19  1  0.68282800  0.66291100  0.56771900  1
  S  S20  1  0.27769900  0.19207900  0.33466400  1
  S  S21  1  0.72230100  0.19207900  0.16533600  1
  S  S22  1  0.72230100  0.80792100  0.66533600  1
  S  S23  1  0.27769900  0.80792100  0.83466400  1
  S  S24  1  0.68015200  0.04910400  0.83253400  1
  S  S25  1  0.31984800  0.04910400  0.66746600  1
  S  S26  1  0.31984800  0.95089600  0.16746600  1
  S  S27  1  0.68015200  0.95089600  0.33253400  1
  S  S28  1  0.43890300  0.35871200  0.04070300  1
  S  S29  1  0.56109700  0.35871200  0.45929700  1
  S  S30  1  0.43890300  0.64128800  0.54070300  1
  S  S31  1  0.56109700  0.64128800  0.95929700  1
  S  S32  1  0.77769900  0.69207900  0.33466400  1
  S  S33  1  0.22230100  0.69207900  0.16533600  1
  S  S34  1  0.22230100  0.30792100  0.66533600  1
  S  S35  1  0.77769900  0.30792100  0.83466400  1
  S  S36  1  0.18015200  0.54910400  0.83253400  1
  S  S37  1  0.81984800  0.54910400  0.66746600  1
  S  S38  1  0.81984800  0.45089600  0.16746600  1
  S  S39  1  0.18015200  0.45089600  0.33253400  1
  S  S40  1  0.93890300  0.85871200  0.04070300  1
  S  S41  1  0.06109700  0.85871200  0.45929700  1
  S  S42  1  0.93890300  0.14128800  0.54070300  1
  S  S43  1  0.06109700  0.14128800  0.95929700  1
