# generated using pymatgen
data_Sr5(AuO4)2
_symmetry_space_group_name_H-M   'P 1'
_cell_length_a   8.41990000
_cell_length_b   8.41990000
_cell_length_c   6.61166600
_cell_angle_alpha   90.00000000
_cell_angle_beta   90.00000000
_cell_angle_gamma   90.00000000
_symmetry_Int_Tables_number   1
_chemical_formula_structural   Sr5(AuO4)2
_chemical_formula_sum   'Sr10 Au4 O16'
_cell_volume   468.73218342
_cell_formula_units_Z   2
loop_
 _symmetry_equiv_pos_site_id
 _symmetry_equiv_pos_as_xyz
  1  'x, y, z'
loop_
 _atom_site_type_symbol
 _atom_site_label
 _atom_site_symmetry_multiplicity
 _atom_site_fract_x
 _atom_site_fract_y
 _atom_site_fract_z
 _atom_site_occupancy
  Sr  Sr0  1  0.77858400  0.77858400  0.50000000  1
  Sr  Sr1  1  0.72141600  0.72141600  0.00000000  1
  Sr  Sr2  1  0.72141600  0.27858400  0.00000000  1
  Sr  Sr3  1  0.77858400  0.22141600  0.50000000  1
  Sr  Sr4  1  0.00000000  0.00000000  0.00000000  1
  Sr  Sr5  1  0.27858400  0.27858400  0.00000000  1
  Sr  Sr6  1  0.22141600  0.22141600  0.50000000  1
  Sr  Sr7  1  0.22141600  0.77858400  0.50000000  1
  Sr  Sr8  1  0.27858400  0.72141600  0.00000000  1
  Sr  Sr9  1  0.50000000  0.50000000  0.50000000  1
  Au  Au10  1  0.50000000  0.00000000  0.75000000  1
  Au  Au11  1  0.50000000  0.00000000  0.25000000  1
  Au  Au12  1  0.00000000  0.50000000  0.25000000  1
  Au  Au13  1  0.00000000  0.50000000  0.75000000  1
  O  O14  1  0.74456950  0.00000000  0.76044750  1
  O  O15  1  0.25543050  0.00000000  0.76044750  1
  O  O16  1  0.50000000  0.75543050  0.73955250  1
  O  O17  1  0.50000000  0.24456950  0.73955250  1
  O  O18  1  0.50000000  0.24456950  0.26044750  1
  O  O19  1  0.50000000  0.75543050  0.26044750  1
  O  O20  1  0.25543050  0.00000000  0.23955250  1
  O  O21  1  0.74456950  0.00000000  0.23955250  1
  O  O22  1  0.24456950  0.50000000  0.26044750  1
  O  O23  1  0.75543050  0.50000000  0.26044750  1
  O  O24  1  0.00000000  0.25543050  0.23955250  1
  O  O25  1  0.00000000  0.74456950  0.23955250  1
  O  O26  1  0.00000000  0.74456950  0.76044750  1
  O  O27  1  0.00000000  0.25543050  0.76044750  1
  O  O28  1  0.75543050  0.50000000  0.73955250  1
  O  O29  1  0.24456950  0.50000000  0.73955250  1
