# generated using pymatgen
data_Li3TiF6
_symmetry_space_group_name_H-M   'P 1'
_cell_length_a   14.66506000
_cell_length_b   8.90051600
_cell_length_c   10.28997109
_cell_angle_alpha   90.00000000
_cell_angle_beta   96.48072326
_cell_angle_gamma   90.00000000
_symmetry_Int_Tables_number   1
_chemical_formula_structural   Li3TiF6
_chemical_formula_sum   'Li36 Ti12 F72'
_cell_volume   1334.53229464
_cell_formula_units_Z   12
loop_
 _symmetry_equiv_pos_site_id
 _symmetry_equiv_pos_as_xyz
  1  'x, y, z'
loop_
 _atom_site_type_symbol
 _atom_site_label
 _atom_site_symmetry_multiplicity
 _atom_site_fract_x
 _atom_site_fract_y
 _atom_site_fract_z
 _atom_site_occupancy
  Li  Li0  1  0.64033000  0.65379800  0.78043700  1
  Li  Li1  1  0.35967000  0.65379800  0.71956300  1
  Li  Li2  1  0.35967000  0.34620200  0.21956300  1
  Li  Li3  1  0.64033000  0.34620200  0.28043700  1
  Li  Li4  1  0.79825550  0.14329850  0.07131600  1
  Li  Li5  1  0.20174450  0.14329850  0.42868400  1
  Li  Li6  1  0.51892300  0.15214900  0.02638800  1
  Li  Li7  1  0.48107700  0.15214900  0.47361200  1
  Li  Li8  1  0.48107700  0.84785100  0.97361200  1
  Li  Li9  1  0.51892300  0.84785100  0.52638800  1
  Li  Li10  1  0.33039800  0.80019900  0.45186000  1
  Li  Li11  1  0.66960200  0.80019900  0.04814000  1
  Li  Li12  1  0.66960200  0.19980100  0.54814000  1
  Li  Li13  1  0.33039800  0.19980100  0.95186000  1
  Li  Li14  1  0.50000000  0.30264600  0.75000000  1
  Li  Li15  1  0.50000000  0.69735400  0.25000000  1
  Li  Li16  1  0.20174450  0.85670150  0.92868400  1
  Li  Li17  1  0.79825550  0.85670150  0.57131600  1
  Li  Li18  1  0.14033000  0.15379800  0.78043700  1
  Li  Li19  1  0.85967000  0.15379800  0.71956300  1
  Li  Li20  1  0.85967000  0.84620200  0.21956300  1
  Li  Li21  1  0.14033000  0.84620200  0.28043700  1
  Li  Li22  1  0.29825550  0.64329850  0.07131600  1
  Li  Li23  1  0.70174450  0.64329850  0.42868400  1
  Li  Li24  1  0.01892300  0.65214900  0.02638800  1
  Li  Li25  1  0.98107700  0.65214900  0.47361200  1
  Li  Li26  1  0.98107700  0.34785100  0.97361200  1
  Li  Li27  1  0.01892300  0.34785100  0.52638800  1
  Li  Li28  1  0.83039800  0.30019900  0.45186000  1
  Li  Li29  1  0.16960200  0.30019900  0.04814000  1
  Li  Li30  1  0.16960200  0.69980100  0.54814000  1
  Li  Li31  1  0.83039800  0.69980100  0.95186000  1
  Li  Li32  1  0.00000000  0.80264600  0.75000000  1
  Li  Li33  1  0.00000000  0.19735400  0.25000000  1
  Li  Li34  1  0.70174450  0.35670150  0.92868400  1
  Li  Li35  1  0.29825550  0.35670150  0.57131600  1
  Ti  Ti36  1  0.33844450  0.99713250  0.20786200  1
  Ti  Ti37  1  0.66155550  0.99713250  0.29213800  1
  Ti  Ti38  1  0.66155550  0.00286750  0.79213800  1
  Ti  Ti39  1  0.33844450  0.00286750  0.70786200  1
  Ti  Ti40  1  0.00000000  0.00000000  0.50000000  1
  Ti  Ti41  1  0.00000000  0.00000000  0.00000000  1
  Ti  Ti42  1  0.83844450  0.49713250  0.20786200  1
  Ti  Ti43  1  0.16155550  0.49713250  0.29213800  1
  Ti  Ti44  1  0.16155550  0.50286750  0.79213800  1
  Ti  Ti45  1  0.83844450  0.50286750  0.70786200  1
  Ti  Ti46  1  0.50000000  0.50000000  0.50000000  1
  Ti  Ti47  1  0.50000000  0.50000000  0.00000000  1
  F  F48  1  0.59974550  0.15774950  0.18922000  1
  F  F49  1  0.42408550  0.67163950  0.56083000  1
  F  F50  1  0.42408550  0.32836050  0.06083000  1
  F  F51  1  0.57591450  0.32836050  0.43917000  1
  F  F52  1  0.42104650  0.99044050  0.56487900  1
  F  F53  1  0.57895350  0.99044050  0.93512100  1
  F  F54  1  0.57895350  0.00955950  0.43512100  1
  F  F55  1  0.42104650  0.00955950  0.06487900  1
  F  F56  1  0.57591450  0.67163950  0.93917000  1
  F  F57  1  0.92770250  0.99848050  0.33264000  1
  F  F58  1  0.92770250  0.00151950  0.83264000  1
  F  F59  1  0.07229750  0.00151950  0.66736000  1
  F  F60  1  0.40025450  0.15774950  0.31078000  1
  F  F61  1  0.75315550  0.02394050  0.65617400  1
  F  F62  1  0.75315550  0.97605950  0.15617400  1
  F  F63  1  0.24684450  0.97605950  0.34382600  1
  F  F64  1  0.42681250  0.66977850  0.07077700  1
  F  F65  1  0.57318750  0.66977850  0.42922300  1
  F  F66  1  0.57318750  0.33022150  0.92922300  1
  F  F67  1  0.42681250  0.33022150  0.57077700  1
  F  F68  1  0.26091600  0.15345700  0.60694900  1
  F  F69  1  0.73908400  0.15345700  0.89305100  1
  F  F70  1  0.73908400  0.84654300  0.39305100  1
  F  F71  1  0.26091600  0.84654300  0.10694900  1
  F  F72  1  0.40025450  0.84225050  0.81078000  1
  F  F73  1  0.59974550  0.84225050  0.68922000  1
  F  F74  1  0.73100950  0.16675750  0.38698700  1
  F  F75  1  0.24684450  0.02394050  0.84382600  1
  F  F76  1  0.26899050  0.83324250  0.61301300  1
  F  F77  1  0.73100950  0.83324250  0.88698700  1
  F  F78  1  0.59077350  0.16381150  0.68803600  1
  F  F79  1  0.40922650  0.16381150  0.81196400  1
  F  F80  1  0.40922650  0.83618850  0.31196400  1
  F  F81  1  0.59077350  0.83618850  0.18803600  1
  F  F82  1  0.07229750  0.99848050  0.16736000  1
  F  F83  1  0.26899050  0.16675750  0.11301300  1
  F  F84  1  0.09974550  0.65774950  0.18922000  1
  F  F85  1  0.92408550  0.17163950  0.56083000  1
  F  F86  1  0.92408550  0.82836050  0.06083000  1
  F  F87  1  0.07591450  0.82836050  0.43917000  1
  F  F88  1  0.92104650  0.49044050  0.56487900  1
  F  F89  1  0.07895350  0.49044050  0.93512100  1
  F  F90  1  0.07895350  0.50955950  0.43512100  1
  F  F91  1  0.92104650  0.50955950  0.06487900  1
  F  F92  1  0.07591450  0.17163950  0.93917000  1
  F  F93  1  0.42770250  0.49848050  0.33264000  1
  F  F94  1  0.42770250  0.50151950  0.83264000  1
  F  F95  1  0.57229750  0.50151950  0.66736000  1
  F  F96  1  0.90025450  0.65774950  0.31078000  1
  F  F97  1  0.25315550  0.52394050  0.65617400  1
  F  F98  1  0.25315550  0.47605950  0.15617400  1
  F  F99  1  0.74684450  0.47605950  0.34382600  1
  F  F100  1  0.92681250  0.16977850  0.07077700  1
  F  F101  1  0.07318750  0.16977850  0.42922300  1
  F  F102  1  0.07318750  0.83022150  0.92922300  1
  F  F103  1  0.92681250  0.83022150  0.57077700  1
  F  F104  1  0.76091600  0.65345700  0.60694900  1
  F  F105  1  0.23908400  0.65345700  0.89305100  1
  F  F106  1  0.23908400  0.34654300  0.39305100  1
  F  F107  1  0.76091600  0.34654300  0.10694900  1
  F  F108  1  0.90025450  0.34225050  0.81078000  1
  F  F109  1  0.09974550  0.34225050  0.68922000  1
  F  F110  1  0.23100950  0.66675750  0.38698700  1
  F  F111  1  0.74684450  0.52394050  0.84382600  1
  F  F112  1  0.76899050  0.33324250  0.61301300  1
  F  F113  1  0.23100950  0.33324250  0.88698700  1
  F  F114  1  0.09077350  0.66381150  0.68803600  1
  F  F115  1  0.90922650  0.66381150  0.81196400  1
  F  F116  1  0.90922650  0.33618850  0.31196400  1
  F  F117  1  0.09077350  0.33618850  0.18803600  1
  F  F118  1  0.57229750  0.49848050  0.16736000  1
  F  F119  1  0.76899050  0.66675750  0.11301300  1
