# generated using pymatgen
data_LiHF2
_symmetry_space_group_name_H-M   'P 1'
_cell_length_a   3.03371600
_cell_length_b   3.03371600
_cell_length_c   13.31796466
_cell_angle_alpha   90.00000000
_cell_angle_beta   90.00000000
_cell_angle_gamma   120.00000000
_symmetry_Int_Tables_number   1
_chemical_formula_structural   LiHF2
_chemical_formula_sum   'Li3 H3 F6'
_cell_volume   106.14959300
_cell_formula_units_Z   3
loop_
 _symmetry_equiv_pos_site_id
 _symmetry_equiv_pos_as_xyz
  1  'x, y, z'
loop_
 _atom_site_type_symbol
 _atom_site_label
 _atom_site_symmetry_multiplicity
 _atom_site_fract_x
 _atom_site_fract_y
 _atom_site_fract_z
 _atom_site_occupancy
  Li  Li0  1  0.00000000  0.00000000  0.00000000  1
  Li  Li1  1  0.66666667  0.33333333  0.33333333  1
  Li  Li2  1  0.33333333  0.66666667  0.66666667  1
  H  H3  1  0.33333333  0.66666667  0.16666667  1
  H  H4  1  1.00000000  1.00000000  0.50000000  1
  H  H5  1  0.66666667  0.33333333  0.83333333  1
  F  F6  1  0.33333333  0.66666667  0.08051467  1
  F  F7  1  0.33333333  0.66666667  0.25281867  1
  F  F8  1  0.00000000  0.00000000  0.41384800  1
  F  F9  1  0.00000000  0.00000000  0.58615200  1
  F  F10  1  0.66666667  0.33333333  0.74718133  1
  F  F11  1  0.66666667  0.33333333  0.91948533  1
