# generated using pymatgen
data_La2O3
_symmetry_space_group_name_H-M   'P 1'
_cell_length_a   11.40185800
_cell_length_b   11.40185800
_cell_length_c   11.40185800
_cell_angle_alpha   90.00000000
_cell_angle_beta   90.00000000
_cell_angle_gamma   90.00000000
_symmetry_Int_Tables_number   1
_chemical_formula_structural   La2O3
_chemical_formula_sum   'La32 O48'
_cell_volume   1482.26851511
_cell_formula_units_Z   16
loop_
 _symmetry_equiv_pos_site_id
 _symmetry_equiv_pos_as_xyz
  1  'x, y, z'
loop_
 _atom_site_type_symbol
 _atom_site_label
 _atom_site_symmetry_multiplicity
 _atom_site_fract_x
 _atom_site_fract_y
 _atom_site_fract_z
 _atom_site_occupancy
  La  La0  1  0.00000000  0.25000000  0.47095800  1
  La  La1  1  0.02904200  0.00000000  0.75000000  1
  La  La2  1  0.75000000  0.02904200  0.00000000  1
  La  La3  1  0.47095800  0.00000000  0.25000000  1
  La  La4  1  0.25000000  0.47095800  0.00000000  1
  La  La5  1  0.00000000  0.75000000  0.02904200  1
  La  La6  1  0.50000000  0.25000000  0.02904200  1
  La  La7  1  0.47095800  0.50000000  0.75000000  1
  La  La8  1  0.75000000  0.47095800  0.50000000  1
  La  La9  1  0.02904200  0.50000000  0.25000000  1
  La  La10  1  0.25000000  0.02904200  0.50000000  1
  La  La11  1  0.50000000  0.75000000  0.47095800  1
  La  La12  1  0.75000000  0.25000000  0.25000000  1
  La  La13  1  0.25000000  0.25000000  0.75000000  1
  La  La14  1  0.25000000  0.75000000  0.25000000  1
  La  La15  1  0.25000000  0.25000000  0.25000000  1
  La  La16  1  0.50000000  0.75000000  0.97095800  1
  La  La17  1  0.52904200  0.50000000  0.25000000  1
  La  La18  1  0.25000000  0.52904200  0.50000000  1
  La  La19  1  0.97095800  0.50000000  0.75000000  1
  La  La20  1  0.75000000  0.97095800  0.50000000  1
  La  La21  1  0.50000000  0.25000000  0.52904200  1
  La  La22  1  0.00000000  0.75000000  0.52904200  1
  La  La23  1  0.97095800  0.00000000  0.25000000  1
  La  La24  1  0.25000000  0.97095800  0.00000000  1
  La  La25  1  0.52904200  0.00000000  0.75000000  1
  La  La26  1  0.75000000  0.52904200  0.00000000  1
  La  La27  1  0.00000000  0.25000000  0.97095800  1
  La  La28  1  0.25000000  0.75000000  0.75000000  1
  La  La29  1  0.75000000  0.75000000  0.25000000  1
  La  La30  1  0.75000000  0.25000000  0.75000000  1
  La  La31  1  0.75000000  0.75000000  0.75000000  1
  O  O32  1  0.14805500  0.87862900  0.61083300  1
  O  O33  1  0.35194500  0.87862900  0.38916700  1
  O  O34  1  0.14805500  0.12137100  0.88916700  1
  O  O35  1  0.12137100  0.11083300  0.35194500  1
  O  O36  1  0.11083300  0.35194500  0.12137100  1
  O  O37  1  0.61083300  0.14805500  0.87862900  1
  O  O38  1  0.87862900  0.38916700  0.35194500  1
  O  O39  1  0.88916700  0.14805500  0.12137100  1
  O  O40  1  0.87862900  0.61083300  0.14805500  1
  O  O41  1  0.38916700  0.35194500  0.87862900  1
  O  O42  1  0.12137100  0.88916700  0.14805500  1
  O  O43  1  0.35194500  0.12137100  0.11083300  1
  O  O44  1  0.35194500  0.62137100  0.88916700  1
  O  O45  1  0.14805500  0.62137100  0.11083300  1
  O  O46  1  0.35194500  0.37862900  0.61083300  1
  O  O47  1  0.37862900  0.38916700  0.14805500  1
  O  O48  1  0.14805500  0.37862900  0.38916700  1
  O  O49  1  0.37862900  0.61083300  0.35194500  1
  O  O50  1  0.11083300  0.14805500  0.62137100  1
  O  O51  1  0.62137100  0.88916700  0.35194500  1
  O  O52  1  0.61083300  0.35194500  0.37862900  1
  O  O53  1  0.62137100  0.11083300  0.14805500  1
  O  O54  1  0.88916700  0.35194500  0.62137100  1
  O  O55  1  0.38916700  0.14805500  0.37862900  1
  O  O56  1  0.64805500  0.37862900  0.11083300  1
  O  O57  1  0.85194500  0.37862900  0.88916700  1
  O  O58  1  0.64805500  0.62137100  0.38916700  1
  O  O59  1  0.62137100  0.61083300  0.85194500  1
  O  O60  1  0.61083300  0.85194500  0.62137100  1
  O  O61  1  0.11083300  0.64805500  0.37862900  1
  O  O62  1  0.37862900  0.88916700  0.85194500  1
  O  O63  1  0.38916700  0.64805500  0.62137100  1
  O  O64  1  0.37862900  0.11083300  0.64805500  1
  O  O65  1  0.88916700  0.85194500  0.37862900  1
  O  O66  1  0.62137100  0.38916700  0.64805500  1
  O  O67  1  0.85194500  0.62137100  0.61083300  1
  O  O68  1  0.85194500  0.12137100  0.38916700  1
  O  O69  1  0.64805500  0.12137100  0.61083300  1
  O  O70  1  0.85194500  0.87862900  0.11083300  1
  O  O71  1  0.87862900  0.88916700  0.64805500  1
  O  O72  1  0.64805500  0.87862900  0.88916700  1
  O  O73  1  0.87862900  0.11083300  0.85194500  1
  O  O74  1  0.61083300  0.64805500  0.12137100  1
  O  O75  1  0.12137100  0.38916700  0.85194500  1
  O  O76  1  0.11083300  0.85194500  0.87862900  1
  O  O77  1  0.12137100  0.61083300  0.64805500  1
  O  O78  1  0.38916700  0.85194500  0.12137100  1
  O  O79  1  0.88916700  0.64805500  0.87862900  1
