# generated using pymatgen
data_KP(HO2)2
_symmetry_space_group_name_H-M   'P 1'
_cell_length_a   6.20085800
_cell_length_b   4.55953500
_cell_length_c   14.48586031
_cell_angle_alpha   90.00000000
_cell_angle_beta   92.03181138
_cell_angle_gamma   90.00000000
_symmetry_Int_Tables_number   1
_chemical_formula_structural   KP(HO2)2
_chemical_formula_sum   'K4 P4 H8 O16'
_cell_volume   409.30165857
_cell_formula_units_Z   4
loop_
 _symmetry_equiv_pos_site_id
 _symmetry_equiv_pos_as_xyz
  1  'x, y, z'
loop_
 _atom_site_type_symbol
 _atom_site_label
 _atom_site_symmetry_multiplicity
 _atom_site_fract_x
 _atom_site_fract_y
 _atom_site_fract_z
 _atom_site_occupancy
  K  K0  1  0.76699500  0.51171600  0.63424900  1
  K  K1  1  0.23300500  0.01171600  0.86575100  1
  K  K2  1  0.23300500  0.48828400  0.36575100  1
  K  K3  1  0.76699500  0.98828400  0.13424900  1
  P  P4  1  0.73908600  0.53729800  0.87536600  1
  P  P5  1  0.26091400  0.03729800  0.62463400  1
  P  P6  1  0.26091400  0.46270200  0.12463400  1
  P  P7  1  0.73908600  0.96270200  0.37536600  1
  H  H8  1  0.00000000  0.50000000  0.00000000  1
  H  H9  1  0.00000000  0.00000000  0.50000000  1
  H  H10  1  0.73926700  0.00601500  0.81604400  1
  H  H11  1  0.26073300  0.50601500  0.68395600  1
  H  H12  1  0.26073300  0.99398500  0.18395600  1
  H  H13  1  0.73926700  0.49398500  0.31604400  1
  H  H14  1  0.50000000  0.50000000  0.00000000  1
  H  H15  1  0.50000000  0.00000000  0.50000000  1
  O  O16  1  0.66408900  0.70122100  0.30969300  1
  O  O17  1  0.33591100  0.20122100  0.19030700  1
  O  O18  1  0.33591100  0.29877900  0.69030700  1
  O  O19  1  0.66408900  0.79877900  0.80969300  1
  O  O20  1  0.90436200  0.83274200  0.44805100  1
  O  O21  1  0.09563800  0.33274200  0.05194900  1
  O  O22  1  0.09563800  0.16725800  0.55194900  1
  O  O23  1  0.90436200  0.66725800  0.94805100  1
  O  O24  1  0.83655600  0.20524600  0.31689400  1
  O  O25  1  0.16344400  0.70524600  0.18310600  1
  O  O26  1  0.16344400  0.79475400  0.68310600  1
  O  O27  1  0.83655600  0.29475400  0.81689400  1
  O  O28  1  0.53377600  0.07786200  0.42253500  1
  O  O29  1  0.46622400  0.57786200  0.07746500  1
  O  O30  1  0.46622400  0.92213800  0.57746500  1
  O  O31  1  0.53377600  0.42213800  0.92253500  1
