# generated using pymatgen
data_NaSb3F10
_symmetry_space_group_name_H-M   'P 1'
_cell_length_a   8.35519812
_cell_length_b   8.35519812
_cell_length_c   7.87630700
_cell_angle_alpha   90.00000000
_cell_angle_beta   90.00000000
_cell_angle_gamma   120.00000000
_symmetry_Int_Tables_number   1
_chemical_formula_structural   NaSb3F10
_chemical_formula_sum   'Na2 Sb6 F20'
_cell_volume   476.17519923
_cell_formula_units_Z   2
loop_
 _symmetry_equiv_pos_site_id
 _symmetry_equiv_pos_as_xyz
  1  'x, y, z'
loop_
 _atom_site_type_symbol
 _atom_site_label
 _atom_site_symmetry_multiplicity
 _atom_site_fract_x
 _atom_site_fract_y
 _atom_site_fract_z
 _atom_site_occupancy
  Na  Na0  1  0.33333333  0.66666667  0.16488800  1
  Na  Na1  1  0.66666667  0.33333333  0.66488800  1
  Sb  Sb2  1  0.77967000  0.65980500  0.25509100  1
  Sb  Sb3  1  0.11986500  0.77967000  0.75509100  1
  Sb  Sb4  1  0.65980500  0.88013500  0.75509100  1
  Sb  Sb5  1  0.34019500  0.11986500  0.25509100  1
  Sb  Sb6  1  0.88013500  0.22033000  0.25509100  1
  Sb  Sb7  1  0.22033000  0.34019500  0.75509100  1
  F  F8  1  0.66666667  0.33333333  0.23495100  1
  F  F9  1  0.33333333  0.66666667  0.73495100  1
  F  F10  1  0.50631000  0.54241500  0.28009500  1
  F  F11  1  0.96389500  0.50631000  0.78009500  1
  F  F12  1  0.54241500  0.03610500  0.78009500  1
  F  F13  1  0.45758500  0.96389500  0.28009500  1
  F  F14  1  0.03610500  0.49369000  0.28009500  1
  F  F15  1  0.49369000  0.45758500  0.78009500  1
  F  F16  1  0.39536000  0.19034500  0.49521500  1
  F  F17  1  0.20501500  0.39536000  0.99521500  1
  F  F18  1  0.19034500  0.79498500  0.99521500  1
  F  F19  1  0.80965500  0.20501500  0.49521500  1
  F  F20  1  0.79498500  0.60464000  0.49521500  1
  F  F21  1  0.60464000  0.80965500  0.99521500  1
  F  F22  1  0.22611100  0.11404600  0.83865200  1
  F  F23  1  0.11206500  0.22611100  0.33865200  1
  F  F24  1  0.11404600  0.88793500  0.33865200  1
  F  F25  1  0.88595400  0.11206500  0.83865200  1
  F  F26  1  0.88793500  0.77388900  0.83865200  1
  F  F27  1  0.77388900  0.88595400  0.33865200  1
