# generated using pymatgen
data_Cs(BH)3
_symmetry_space_group_name_H-M   'P 1'
_cell_length_a   9.72955800
_cell_length_b   9.72955800
_cell_length_c   9.72955800
_cell_angle_alpha   90.00000000
_cell_angle_beta   90.00000000
_cell_angle_gamma   90.00000000
_symmetry_Int_Tables_number   1
_chemical_formula_structural   Cs(BH)3
_chemical_formula_sum   'Cs8 B24 H24'
_cell_volume   921.04178644
_cell_formula_units_Z   8
loop_
 _symmetry_equiv_pos_site_id
 _symmetry_equiv_pos_as_xyz
  1  'x, y, z'
loop_
 _atom_site_type_symbol
 _atom_site_label
 _atom_site_symmetry_multiplicity
 _atom_site_fract_x
 _atom_site_fract_y
 _atom_site_fract_z
 _atom_site_occupancy
  Cs  Cs0  1  0.25000000  0.75000000  0.75000000  1
  Cs  Cs1  1  0.25000000  0.25000000  0.75000000  1
  Cs  Cs2  1  0.25000000  0.25000000  0.25000000  1
  Cs  Cs3  1  0.25000000  0.75000000  0.25000000  1
  Cs  Cs4  1  0.75000000  0.75000000  0.25000000  1
  Cs  Cs5  1  0.75000000  0.25000000  0.25000000  1
  Cs  Cs6  1  0.75000000  0.25000000  0.75000000  1
  Cs  Cs7  1  0.75000000  0.75000000  0.75000000  1
  B  B8  1  0.50000000  0.37426100  0.00000000  1
  B  B9  1  0.00000000  0.00000000  0.87426100  1
  B  B10  1  0.87426100  0.00000000  0.00000000  1
  B  B11  1  0.50000000  0.00000000  0.62573900  1
  B  B12  1  0.50000000  0.62573900  0.00000000  1
  B  B13  1  0.12573900  0.00000000  0.00000000  1
  B  B14  1  0.50000000  0.87426100  0.50000000  1
  B  B15  1  0.00000000  0.50000000  0.37426100  1
  B  B16  1  0.87426100  0.50000000  0.50000000  1
  B  B17  1  0.50000000  0.50000000  0.12573900  1
  B  B18  1  0.50000000  0.12573900  0.50000000  1
  B  B19  1  0.12573900  0.50000000  0.50000000  1
  B  B20  1  0.00000000  0.37426100  0.50000000  1
  B  B21  1  0.50000000  0.00000000  0.37426100  1
  B  B22  1  0.37426100  0.00000000  0.50000000  1
  B  B23  1  0.00000000  0.00000000  0.12573900  1
  B  B24  1  0.00000000  0.62573900  0.50000000  1
  B  B25  1  0.62573900  0.00000000  0.50000000  1
  B  B26  1  0.00000000  0.87426100  0.00000000  1
  B  B27  1  0.50000000  0.50000000  0.87426100  1
  B  B28  1  0.37426100  0.50000000  0.00000000  1
  B  B29  1  0.00000000  0.50000000  0.62573900  1
  B  B30  1  0.00000000  0.12573900  0.00000000  1
  B  B31  1  0.62573900  0.50000000  0.00000000  1
  H  H32  1  0.00000000  0.00000000  0.74991500  1
  H  H33  1  0.50000000  0.24991500  0.00000000  1
  H  H34  1  0.74991500  0.00000000  0.00000000  1
  H  H35  1  0.50000000  0.00000000  0.75008500  1
  H  H36  1  0.50000000  0.75008500  0.00000000  1
  H  H37  1  0.25008500  0.00000000  0.00000000  1
  H  H38  1  0.00000000  0.50000000  0.24991500  1
  H  H39  1  0.50000000  0.74991500  0.50000000  1
  H  H40  1  0.74991500  0.50000000  0.50000000  1
  H  H41  1  0.50000000  0.50000000  0.25008500  1
  H  H42  1  0.50000000  0.25008500  0.50000000  1
  H  H43  1  0.25008500  0.50000000  0.50000000  1
  H  H44  1  0.50000000  0.00000000  0.24991500  1
  H  H45  1  0.00000000  0.24991500  0.50000000  1
  H  H46  1  0.24991500  0.00000000  0.50000000  1
  H  H47  1  0.00000000  0.00000000  0.25008500  1
  H  H48  1  0.00000000  0.75008500  0.50000000  1
  H  H49  1  0.75008500  0.00000000  0.50000000  1
  H  H50  1  0.50000000  0.50000000  0.74991500  1
  H  H51  1  0.00000000  0.74991500  0.00000000  1
  H  H52  1  0.24991500  0.50000000  0.00000000  1
  H  H53  1  0.00000000  0.50000000  0.75008500  1
  H  H54  1  0.00000000  0.25008500  0.00000000  1
  H  H55  1  0.75008500  0.50000000  0.00000000  1
