# generated using pymatgen
data_AlH12(ClO2)3
_symmetry_space_group_name_H-M   'P 1'
_cell_length_a   11.85139356
_cell_length_b   11.85139356
_cell_length_c   12.11165965
_cell_angle_alpha   90.00000000
_cell_angle_beta   90.00000000
_cell_angle_gamma   120.00000000
_symmetry_Int_Tables_number   1
_chemical_formula_structural   AlH12(ClO2)3
_chemical_formula_sum   'Al6 H72 Cl18 O36'
_cell_volume   1473.23874069
_cell_formula_units_Z   6
loop_
 _symmetry_equiv_pos_site_id
 _symmetry_equiv_pos_as_xyz
  1  'x, y, z'
loop_
 _atom_site_type_symbol
 _atom_site_label
 _atom_site_symmetry_multiplicity
 _atom_site_fract_x
 _atom_site_fract_y
 _atom_site_fract_z
 _atom_site_occupancy
  Al  Al0  1  0.00000000  0.00000000  0.50000000  1
  Al  Al1  1  0.00000000  0.00000000  0.00000000  1
  Al  Al2  1  0.66666667  0.33333333  0.83333333  1
  Al  Al3  1  0.66666667  0.33333333  0.33333333  1
  Al  Al4  1  0.33333333  0.66666667  0.16666667  1
  Al  Al5  1  0.33333333  0.66666667  0.66666667  1
  H  H6  1  0.87045733  0.53454967  0.42125267  1
  H  H7  1  0.46545033  0.33590767  0.42125267  1
  H  H8  1  0.66409233  0.12954267  0.42125267  1
  H  H9  1  0.00257433  0.79878367  0.41208067  1
  H  H10  1  0.20121633  0.20379067  0.41208067  1
  H  H11  1  0.79620933  0.99742567  0.41208067  1
  H  H12  1  0.12954267  0.46545033  0.57874733  1
  H  H13  1  0.53454967  0.66409233  0.57874733  1
  H  H14  1  0.33590767  0.87045733  0.57874733  1
  H  H15  1  0.99742567  0.20121633  0.58791933  1
  H  H16  1  0.79878367  0.79620933  0.58791933  1
  H  H17  1  0.20379067  0.00257433  0.58791933  1
  H  H18  1  0.73776000  0.51911800  0.47690800  1
  H  H19  1  0.48088200  0.21864200  0.47690800  1
  H  H20  1  0.78135800  0.26224000  0.47690800  1
  H  H21  1  0.88530867  0.81421533  0.35642533  1
  H  H22  1  0.18578467  0.07109333  0.35642533  1
  H  H23  1  0.92890667  0.11469133  0.35642533  1
  H  H24  1  0.26224000  0.48088200  0.52309200  1
  H  H25  1  0.51911800  0.78135800  0.52309200  1
  H  H26  1  0.07109333  0.88530867  0.64357467  1
  H  H27  1  0.81421533  0.92890667  0.64357467  1
  H  H28  1  0.11469133  0.18578467  0.64357467  1
  H  H29  1  0.21864200  0.73776000  0.52309200  1
  H  H30  1  0.53712400  0.86788300  0.75458600  1
  H  H31  1  0.13211700  0.66924100  0.75458600  1
  H  H32  1  0.33075900  0.46287600  0.75458600  1
  H  H33  1  0.66924100  0.13211700  0.74541400  1
  H  H34  1  0.86788300  0.53712400  0.74541400  1
  H  H35  1  0.46287600  0.33075900  0.74541400  1
  H  H36  1  0.79620933  0.79878367  0.91208067  1
  H  H37  1  0.20121633  0.99742567  0.91208067  1
  H  H38  1  0.00257433  0.20379067  0.91208067  1
  H  H39  1  0.66409233  0.53454967  0.92125267  1
  H  H40  1  0.46545033  0.12954267  0.92125267  1
  H  H41  1  0.87045733  0.33590767  0.92125267  1
  H  H42  1  0.40442667  0.85245133  0.81024133  1
  H  H43  1  0.14754867  0.55197533  0.81024133  1
  H  H44  1  0.44802467  0.59557333  0.81024133  1
  H  H45  1  0.55197533  0.14754867  0.68975867  1
  H  H46  1  0.85245133  0.40442667  0.68975867  1
  H  H47  1  0.59557333  0.44802467  0.68975867  1
  H  H48  1  0.92890667  0.81421533  0.85642533  1
  H  H49  1  0.18578467  0.11469133  0.85642533  1
  H  H50  1  0.73776000  0.21864200  0.97690800  1
  H  H51  1  0.48088200  0.26224000  0.97690800  1
  H  H52  1  0.78135800  0.51911800  0.97690800  1
  H  H53  1  0.88530867  0.07109333  0.85642533  1
  H  H54  1  0.20379067  0.20121633  0.08791933  1
  H  H55  1  0.79878367  0.00257433  0.08791933  1
  H  H56  1  0.99742567  0.79620933  0.08791933  1
  H  H57  1  0.33590767  0.46545033  0.07874733  1
  H  H58  1  0.53454967  0.87045733  0.07874733  1
  H  H59  1  0.12954267  0.66409233  0.07874733  1
  H  H60  1  0.46287600  0.13211700  0.24541400  1
  H  H61  1  0.86788300  0.33075900  0.24541400  1
  H  H62  1  0.66924100  0.53712400  0.24541400  1
  H  H63  1  0.33075900  0.86788300  0.25458600  1
  H  H64  1  0.13211700  0.46287600  0.25458600  1
  H  H65  1  0.53712400  0.66924100  0.25458600  1
  H  H66  1  0.07109333  0.18578467  0.14357467  1
  H  H67  1  0.81421533  0.88530867  0.14357467  1
  H  H68  1  0.11469133  0.92890667  0.14357467  1
  H  H69  1  0.21864200  0.48088200  0.02309200  1
  H  H70  1  0.51911800  0.73776000  0.02309200  1
  H  H71  1  0.26224000  0.78135800  0.02309200  1
  H  H72  1  0.59557333  0.14754867  0.18975867  1
  H  H73  1  0.85245133  0.44802467  0.18975867  1
  H  H74  1  0.40442667  0.55197533  0.31024133  1
  H  H75  1  0.14754867  0.59557333  0.31024133  1
  H  H76  1  0.44802467  0.85245133  0.31024133  1
  H  H77  1  0.55197533  0.40442667  0.18975867  1
  Cl  Cl78  1  0.39796967  0.06463633  0.58333333  1
  Cl  Cl79  1  0.06463633  0.66666667  0.41666667  1
  Cl  Cl80  1  0.33333333  0.39796967  0.41666667  1
  Cl  Cl81  1  0.60203033  0.93536367  0.41666667  1
  Cl  Cl82  1  0.66666667  0.60203033  0.58333333  1
  Cl  Cl83  1  0.93536367  0.33333333  0.58333333  1
  Cl  Cl84  1  0.06463633  0.39796967  0.91666667  1
  Cl  Cl85  1  0.73130300  0.00000000  0.75000000  1
  Cl  Cl86  1  0.00000000  0.73130300  0.75000000  1
  Cl  Cl87  1  0.26869700  0.26869700  0.75000000  1
  Cl  Cl88  1  0.33333333  0.93536367  0.91666667  1
  Cl  Cl89  1  0.60203033  0.66666667  0.91666667  1
  Cl  Cl90  1  0.73130300  0.73130300  0.25000000  1
  Cl  Cl91  1  0.39796967  0.33333333  0.08333333  1
  Cl  Cl92  1  0.66666667  0.06463633  0.08333333  1
  Cl  Cl93  1  0.93536367  0.60203033  0.08333333  1
  Cl  Cl94  1  0.00000000  0.26869700  0.25000000  1
  Cl  Cl95  1  0.26869700  0.00000000  0.25000000  1
  O  O96  1  0.77320133  0.47942267  0.42418067  1
  O  O97  1  0.52057733  0.29377867  0.42418067  1
  O  O98  1  0.70622133  0.22679867  0.42418067  1
  O  O99  1  0.96044533  0.85391067  0.40915267  1
  O  O100  1  0.14608933  0.10653467  0.40915267  1
  O  O101  1  0.89346533  0.03955467  0.40915267  1
  O  O102  1  0.22679867  0.52057733  0.57581933  1
  O  O103  1  0.47942267  0.70622133  0.57581933  1
  O  O104  1  0.29377867  0.77320133  0.57581933  1
  O  O105  1  0.03955467  0.14608933  0.59084733  1
  O  O106  1  0.85391067  0.89346533  0.59084733  1
  O  O107  1  0.10653467  0.96044533  0.59084733  1
  O  O108  1  0.43986800  0.81275600  0.75751400  1
  O  O109  1  0.18724400  0.62711200  0.75751400  1
  O  O110  1  0.37288800  0.56013200  0.75751400  1
  O  O111  1  0.62711200  0.18724400  0.74248600  1
  O  O112  1  0.81275600  0.43986800  0.74248600  1
  O  O113  1  0.56013200  0.37288800  0.74248600  1
  O  O114  1  0.89346533  0.85391067  0.90915267  1
  O  O115  1  0.14608933  0.03955467  0.90915267  1
  O  O116  1  0.96044533  0.10653467  0.90915267  1
  O  O117  1  0.70622133  0.47942267  0.92418067  1
  O  O118  1  0.52057733  0.22679867  0.92418067  1
  O  O119  1  0.77320133  0.29377867  0.92418067  1
  O  O120  1  0.10653467  0.14608933  0.09084733  1
  O  O121  1  0.85391067  0.96044533  0.09084733  1
  O  O122  1  0.03955467  0.89346533  0.09084733  1
  O  O123  1  0.29377867  0.52057733  0.07581933  1
  O  O124  1  0.47942267  0.77320133  0.07581933  1
  O  O125  1  0.22679867  0.70622133  0.07581933  1
  O  O126  1  0.56013200  0.18724400  0.24248600  1
  O  O127  1  0.81275600  0.37288800  0.24248600  1
  O  O128  1  0.62711200  0.43986800  0.24248600  1
  O  O129  1  0.37288800  0.81275600  0.25751400  1
  O  O130  1  0.18724400  0.56013200  0.25751400  1
  O  O131  1  0.43986800  0.62711200  0.25751400  1
