# generated using pymatgen
data_CaIn2O4
_symmetry_space_group_name_H-M   'P 1'
_cell_length_a   9.38247600
_cell_length_b   9.38247600
_cell_length_c   9.38247600
_cell_angle_alpha   90.00000000
_cell_angle_beta   90.00000000
_cell_angle_gamma   90.00000000
_symmetry_Int_Tables_number   1
_chemical_formula_structural   CaIn2O4
_chemical_formula_sum   'Ca8 In16 O32'
_cell_volume   825.94739265
_cell_formula_units_Z   8
loop_
 _symmetry_equiv_pos_site_id
 _symmetry_equiv_pos_as_xyz
  1  'x, y, z'
loop_
 _atom_site_type_symbol
 _atom_site_label
 _atom_site_symmetry_multiplicity
 _atom_site_fract_x
 _atom_site_fract_y
 _atom_site_fract_z
 _atom_site_occupancy
  Ca  Ca0  1  0.25000000  0.75000000  0.25000000  1
  Ca  Ca1  1  0.00000000  0.00000000  0.50000000  1
  Ca  Ca2  1  0.25000000  0.25000000  0.75000000  1
  Ca  Ca3  1  0.00000000  0.50000000  0.00000000  1
  Ca  Ca4  1  0.75000000  0.75000000  0.75000000  1
  Ca  Ca5  1  0.50000000  0.00000000  0.00000000  1
  Ca  Ca6  1  0.75000000  0.25000000  0.25000000  1
  Ca  Ca7  1  0.50000000  0.50000000  0.50000000  1
  In  In8  1  0.12500000  0.12500000  0.12500000  1
  In  In9  1  0.37500000  0.12500000  0.37500000  1
  In  In10  1  0.87500000  0.87500000  0.12500000  1
  In  In11  1  0.62500000  0.87500000  0.37500000  1
  In  In12  1  0.12500000  0.62500000  0.62500000  1
  In  In13  1  0.37500000  0.62500000  0.87500000  1
  In  In14  1  0.87500000  0.37500000  0.62500000  1
  In  In15  1  0.62500000  0.37500000  0.87500000  1
  In  In16  1  0.62500000  0.12500000  0.62500000  1
  In  In17  1  0.87500000  0.12500000  0.87500000  1
  In  In18  1  0.37500000  0.87500000  0.62500000  1
  In  In19  1  0.12500000  0.87500000  0.87500000  1
  In  In20  1  0.62500000  0.62500000  0.12500000  1
  In  In21  1  0.87500000  0.62500000  0.37500000  1
  In  In22  1  0.37500000  0.37500000  0.12500000  1
  In  In23  1  0.12500000  0.37500000  0.37500000  1
  O  O24  1  0.36152867  0.13847133  0.13847133  1
  O  O25  1  0.13847133  0.13847133  0.36152867  1
  O  O26  1  0.36152867  0.36152867  0.36152867  1
  O  O27  1  0.88847133  0.11152867  0.11152867  1
  O  O28  1  0.11152867  0.88847133  0.11152867  1
  O  O29  1  0.61152867  0.11152867  0.38847133  1
  O  O30  1  0.13847133  0.36152867  0.13847133  1
  O  O31  1  0.38847133  0.88847133  0.38847133  1
  O  O32  1  0.36152867  0.63847133  0.63847133  1
  O  O33  1  0.13847133  0.63847133  0.86152867  1
  O  O34  1  0.36152867  0.86152867  0.86152867  1
  O  O35  1  0.88847133  0.61152867  0.61152867  1
  O  O36  1  0.11152867  0.38847133  0.61152867  1
  O  O37  1  0.61152867  0.61152867  0.88847133  1
  O  O38  1  0.13847133  0.86152867  0.63847133  1
  O  O39  1  0.38847133  0.38847133  0.88847133  1
  O  O40  1  0.86152867  0.13847133  0.63847133  1
  O  O41  1  0.63847133  0.13847133  0.86152867  1
  O  O42  1  0.86152867  0.36152867  0.86152867  1
  O  O43  1  0.38847133  0.11152867  0.61152867  1
  O  O44  1  0.61152867  0.88847133  0.61152867  1
  O  O45  1  0.11152867  0.11152867  0.88847133  1
  O  O46  1  0.63847133  0.36152867  0.63847133  1
  O  O47  1  0.88847133  0.88847133  0.88847133  1
  O  O48  1  0.86152867  0.63847133  0.13847133  1
  O  O49  1  0.63847133  0.63847133  0.36152867  1
  O  O50  1  0.86152867  0.86152867  0.36152867  1
  O  O51  1  0.38847133  0.61152867  0.11152867  1
  O  O52  1  0.61152867  0.38847133  0.11152867  1
  O  O53  1  0.11152867  0.61152867  0.38847133  1
  O  O54  1  0.63847133  0.86152867  0.13847133  1
  O  O55  1  0.88847133  0.38847133  0.38847133  1
