# generated using pymatgen
data_CsCrCl3
_symmetry_space_group_name_H-M   'P 1'
_cell_length_a   12.88370400
_cell_length_b   7.36564400
_cell_length_c   6.31714205
_cell_angle_alpha   90.00000000
_cell_angle_beta   91.36020302
_cell_angle_gamma   90.00000000
_symmetry_Int_Tables_number   1
_chemical_formula_structural   CsCrCl3
_chemical_formula_sum   'Cs4 Cr4 Cl12'
_cell_volume   599.30749980
_cell_formula_units_Z   4
loop_
 _symmetry_equiv_pos_site_id
 _symmetry_equiv_pos_as_xyz
  1  'x, y, z'
loop_
 _atom_site_type_symbol
 _atom_site_label
 _atom_site_symmetry_multiplicity
 _atom_site_fract_x
 _atom_site_fract_y
 _atom_site_fract_z
 _atom_site_occupancy
  Cs  Cs0  1  0.83294600  0.50000000  0.25335200  1
  Cs  Cs1  1  0.66705400  0.00000000  0.74664800  1
  Cs  Cs2  1  0.33294600  0.00000000  0.25335200  1
  Cs  Cs3  1  0.16705400  0.50000000  0.74664800  1
  Cr  Cr4  1  0.00000000  0.00000000  0.50000000  1
  Cr  Cr5  1  0.00000000  0.00000000  0.00000000  1
  Cr  Cr6  1  0.50000000  0.50000000  0.50000000  1
  Cr  Cr7  1  0.50000000  0.50000000  0.00000000  1
  Cl  Cl8  1  0.92496150  0.22906950  0.76912600  1
  Cl  Cl9  1  0.57503850  0.72906950  0.23087400  1
  Cl  Cl10  1  0.57503850  0.27093050  0.23087400  1
  Cl  Cl11  1  0.92496150  0.77093050  0.76912600  1
  Cl  Cl12  1  0.84237300  0.00000000  0.29368800  1
  Cl  Cl13  1  0.65762700  0.50000000  0.70631200  1
  Cl  Cl14  1  0.42496150  0.72906950  0.76912600  1
  Cl  Cl15  1  0.07503850  0.22906950  0.23087400  1
  Cl  Cl16  1  0.07503850  0.77093050  0.23087400  1
  Cl  Cl17  1  0.42496150  0.27093050  0.76912600  1
  Cl  Cl18  1  0.34237300  0.50000000  0.29368800  1
  Cl  Cl19  1  0.15762700  0.00000000  0.70631200  1
