# generated using pymatgen
data_Ba(InSe2)2
_symmetry_space_group_name_H-M   'P 1'
_cell_length_a   13.80921000
_cell_length_b   22.97224000
_cell_length_c   23.33225600
_cell_angle_alpha   90.00000000
_cell_angle_beta   90.00000000
_cell_angle_gamma   90.00000000
_symmetry_Int_Tables_number   1
_chemical_formula_structural   Ba(InSe2)2
_chemical_formula_sum   'Ba32 In64 Se128'
_cell_volume   7401.65625355
_cell_formula_units_Z   32
loop_
 _symmetry_equiv_pos_site_id
 _symmetry_equiv_pos_as_xyz
  1  'x, y, z'
loop_
 _atom_site_type_symbol
 _atom_site_label
 _atom_site_symmetry_multiplicity
 _atom_site_fract_x
 _atom_site_fract_y
 _atom_site_fract_z
 _atom_site_occupancy
  Ba  Ba0  1  0.75000000  0.75000000  0.49775100  1
  Ba  Ba1  1  0.75000000  0.75000000  0.00224900  1
  Ba  Ba2  1  0.50000000  0.00000000  0.25224900  1
  Ba  Ba3  1  0.00000000  0.00000000  0.24775100  1
  Ba  Ba4  1  0.75000000  0.75000000  0.25000000  1
  Ba  Ba5  1  0.00000000  0.00000000  0.00000000  1
  Ba  Ba6  1  0.75000000  0.25000000  0.25000000  1
  Ba  Ba7  1  0.50000000  0.00000000  0.00000000  1
  Ba  Ba8  1  0.75000000  0.25000000  0.99775100  1
  Ba  Ba9  1  0.75000000  0.25000000  0.50224900  1
  Ba  Ba10  1  0.50000000  0.50000000  0.75224900  1
  Ba  Ba11  1  0.00000000  0.50000000  0.74775100  1
  Ba  Ba12  1  0.75000000  0.25000000  0.75000000  1
  Ba  Ba13  1  0.00000000  0.50000000  0.50000000  1
  Ba  Ba14  1  0.75000000  0.75000000  0.75000000  1
  Ba  Ba15  1  0.50000000  0.50000000  0.50000000  1
  Ba  Ba16  1  0.25000000  0.75000000  0.99775100  1
  Ba  Ba17  1  0.25000000  0.75000000  0.50224900  1
  Ba  Ba18  1  0.00000000  0.00000000  0.75224900  1
  Ba  Ba19  1  0.50000000  0.00000000  0.74775100  1
  Ba  Ba20  1  0.25000000  0.75000000  0.75000000  1
  Ba  Ba21  1  0.50000000  0.00000000  0.50000000  1
  Ba  Ba22  1  0.25000000  0.25000000  0.75000000  1
  Ba  Ba23  1  0.00000000  0.00000000  0.50000000  1
  Ba  Ba24  1  0.25000000  0.25000000  0.49775100  1
  Ba  Ba25  1  0.25000000  0.25000000  0.00224900  1
  Ba  Ba26  1  0.00000000  0.50000000  0.25224900  1
  Ba  Ba27  1  0.50000000  0.50000000  0.24775100  1
  Ba  Ba28  1  0.25000000  0.25000000  0.25000000  1
  Ba  Ba29  1  0.50000000  0.50000000  0.00000000  1
  Ba  Ba30  1  0.25000000  0.75000000  0.25000000  1
  Ba  Ba31  1  0.00000000  0.50000000  0.00000000  1
  In  In32  1  0.71156850  0.92942850  0.37486900  1
  In  In33  1  0.21156850  0.07057150  0.12513100  1
  In  In34  1  0.78843150  0.92942850  0.12513100  1
  In  In35  1  0.28843150  0.07057150  0.37486900  1
  In  In36  1  0.03843150  0.32057150  0.37513100  1
  In  In37  1  0.53843150  0.67942850  0.12486900  1
  In  In38  1  0.46156850  0.32057150  0.12486900  1
  In  In39  1  0.96156850  0.67942850  0.37513100  1
  In  In40  1  0.00036400  0.86303300  0.37430900  1
  In  In41  1  0.50036400  0.13696700  0.12569100  1
  In  In42  1  0.49963600  0.86303300  0.12569100  1
  In  In43  1  0.99963600  0.13696700  0.37430900  1
  In  In44  1  0.24963600  0.88696700  0.37569100  1
  In  In45  1  0.74963600  0.11303300  0.12430900  1
  In  In46  1  0.25036400  0.88696700  0.12430900  1
  In  In47  1  0.75036400  0.11303300  0.37569100  1
  In  In48  1  0.71156850  0.42942850  0.87486900  1
  In  In49  1  0.21156850  0.57057150  0.62513100  1
  In  In50  1  0.78843150  0.42942850  0.62513100  1
  In  In51  1  0.28843150  0.57057150  0.87486900  1
  In  In52  1  0.03843150  0.82057150  0.87513100  1
  In  In53  1  0.53843150  0.17942850  0.62486900  1
  In  In54  1  0.46156850  0.82057150  0.62486900  1
  In  In55  1  0.96156850  0.17942850  0.87513100  1
  In  In56  1  0.00036400  0.36303300  0.87430900  1
  In  In57  1  0.50036400  0.63696700  0.62569100  1
  In  In58  1  0.49963600  0.36303300  0.62569100  1
  In  In59  1  0.99963600  0.63696700  0.87430900  1
  In  In60  1  0.24963600  0.38696700  0.87569100  1
  In  In61  1  0.74963600  0.61303300  0.62430900  1
  In  In62  1  0.25036400  0.38696700  0.62430900  1
  In  In63  1  0.75036400  0.61303300  0.87569100  1
  In  In64  1  0.21156850  0.92942850  0.87486900  1
  In  In65  1  0.71156850  0.07057150  0.62513100  1
  In  In66  1  0.28843150  0.92942850  0.62513100  1
  In  In67  1  0.78843150  0.07057150  0.87486900  1
  In  In68  1  0.53843150  0.32057150  0.87513100  1
  In  In69  1  0.03843150  0.67942850  0.62486900  1
  In  In70  1  0.96156850  0.32057150  0.62486900  1
  In  In71  1  0.46156850  0.67942850  0.87513100  1
  In  In72  1  0.50036400  0.86303300  0.87430900  1
  In  In73  1  0.00036400  0.13696700  0.62569100  1
  In  In74  1  0.99963600  0.86303300  0.62569100  1
  In  In75  1  0.49963600  0.13696700  0.87430900  1
  In  In76  1  0.74963600  0.88696700  0.87569100  1
  In  In77  1  0.24963600  0.11303300  0.62430900  1
  In  In78  1  0.75036400  0.88696700  0.62430900  1
  In  In79  1  0.25036400  0.11303300  0.87569100  1
  In  In80  1  0.21156850  0.42942850  0.37486900  1
  In  In81  1  0.71156850  0.57057150  0.12513100  1
  In  In82  1  0.28843150  0.42942850  0.12513100  1
  In  In83  1  0.78843150  0.57057150  0.37486900  1
  In  In84  1  0.53843150  0.82057150  0.37513100  1
  In  In85  1  0.03843150  0.17942850  0.12486900  1
  In  In86  1  0.96156850  0.82057150  0.12486900  1
  In  In87  1  0.46156850  0.17942850  0.37513100  1
  In  In88  1  0.50036400  0.36303300  0.37430900  1
  In  In89  1  0.00036400  0.63696700  0.12569100  1
  In  In90  1  0.99963600  0.36303300  0.12569100  1
  In  In91  1  0.49963600  0.63696700  0.37430900  1
  In  In92  1  0.74963600  0.38696700  0.37569100  1
  In  In93  1  0.24963600  0.61303300  0.12430900  1
  In  In94  1  0.75036400  0.38696700  0.12430900  1
  In  In95  1  0.25036400  0.61303300  0.37569100  1
  Se  Se96  1  0.10723000  0.04081050  0.37361850  1
  Se  Se97  1  0.60723000  0.95918950  0.12638150  1
  Se  Se98  1  0.39277000  0.04081050  0.12638150  1
  Se  Se99  1  0.89277000  0.95918950  0.37361850  1
  Se  Se100  1  0.64277000  0.20918950  0.37638150  1
  Se  Se101  1  0.64277000  0.29081050  0.12361850  1
  Se  Se102  1  0.85723000  0.20918950  0.12361850  1
  Se  Se103  1  0.85723000  0.29081050  0.37638150  1
  Se  Se104  1  0.87910000  0.46849450  0.37600850  1
  Se  Se105  1  0.87910000  0.03150550  0.12399150  1
  Se  Se106  1  0.62090000  0.46849450  0.12399150  1
  Se  Se107  1  0.62090000  0.03150550  0.37600850  1
  Se  Se108  1  0.87090000  0.78150550  0.37399150  1
  Se  Se109  1  0.37090000  0.21849450  0.12600850  1
  Se  Se110  1  0.62910000  0.78150550  0.12600850  1
  Se  Se111  1  0.12910000  0.21849450  0.37399150  1
  Se  Se112  1  0.62406550  0.62510800  0.21088450  1
  Se  Se113  1  0.62406550  0.87489200  0.28911550  1
  Se  Se114  1  0.87593450  0.62510800  0.28911550  1
  Se  Se115  1  0.87593450  0.87489200  0.21088450  1
  Se  Se116  1  0.62593450  0.62489200  0.03911550  1
  Se  Se117  1  0.62593450  0.87510800  0.46088450  1
  Se  Se118  1  0.87406550  0.62489200  0.46088450  1
  Se  Se119  1  0.87406550  0.87510800  0.03911550  1
  Se  Se120  1  0.62352900  0.12518750  0.03948650  1
  Se  Se121  1  0.12352900  0.87481250  0.46051350  1
  Se  Se122  1  0.87647100  0.12518750  0.46051350  1
  Se  Se123  1  0.37647100  0.87481250  0.03948650  1
  Se  Se124  1  0.62647100  0.12481250  0.21051350  1
  Se  Se125  1  0.12647100  0.87518750  0.28948650  1
  Se  Se126  1  0.87352900  0.12481250  0.28948650  1
  Se  Se127  1  0.37352900  0.87518750  0.21051350  1
  Se  Se128  1  0.10723000  0.54081050  0.87361850  1
  Se  Se129  1  0.60723000  0.45918950  0.62638150  1
  Se  Se130  1  0.39277000  0.54081050  0.62638150  1
  Se  Se131  1  0.89277000  0.45918950  0.87361850  1
  Se  Se132  1  0.64277000  0.70918950  0.87638150  1
  Se  Se133  1  0.64277000  0.79081050  0.62361850  1
  Se  Se134  1  0.85723000  0.70918950  0.62361850  1
  Se  Se135  1  0.85723000  0.79081050  0.87638150  1
  Se  Se136  1  0.87910000  0.96849450  0.87600850  1
  Se  Se137  1  0.87910000  0.53150550  0.62399150  1
  Se  Se138  1  0.62090000  0.96849450  0.62399150  1
  Se  Se139  1  0.62090000  0.53150550  0.87600850  1
  Se  Se140  1  0.87090000  0.28150550  0.87399150  1
  Se  Se141  1  0.37090000  0.71849450  0.62600850  1
  Se  Se142  1  0.62910000  0.28150550  0.62600850  1
  Se  Se143  1  0.12910000  0.71849450  0.87399150  1
  Se  Se144  1  0.62406550  0.12510800  0.71088450  1
  Se  Se145  1  0.62406550  0.37489200  0.78911550  1
  Se  Se146  1  0.87593450  0.12510800  0.78911550  1
  Se  Se147  1  0.87593450  0.37489200  0.71088450  1
  Se  Se148  1  0.62593450  0.12489200  0.53911550  1
  Se  Se149  1  0.62593450  0.37510800  0.96088450  1
  Se  Se150  1  0.87406550  0.12489200  0.96088450  1
  Se  Se151  1  0.87406550  0.37510800  0.53911550  1
  Se  Se152  1  0.62352900  0.62518750  0.53948650  1
  Se  Se153  1  0.12352900  0.37481250  0.96051350  1
  Se  Se154  1  0.87647100  0.62518750  0.96051350  1
  Se  Se155  1  0.37647100  0.37481250  0.53948650  1
  Se  Se156  1  0.62647100  0.62481250  0.71051350  1
  Se  Se157  1  0.12647100  0.37518750  0.78948650  1
  Se  Se158  1  0.87352900  0.62481250  0.78948650  1
  Se  Se159  1  0.37352900  0.37518750  0.71051350  1
  Se  Se160  1  0.60723000  0.04081050  0.87361850  1
  Se  Se161  1  0.10723000  0.95918950  0.62638150  1
  Se  Se162  1  0.89277000  0.04081050  0.62638150  1
  Se  Se163  1  0.39277000  0.95918950  0.87361850  1
  Se  Se164  1  0.14277000  0.20918950  0.87638150  1
  Se  Se165  1  0.14277000  0.29081050  0.62361850  1
  Se  Se166  1  0.35723000  0.20918950  0.62361850  1
  Se  Se167  1  0.35723000  0.29081050  0.87638150  1
  Se  Se168  1  0.37910000  0.46849450  0.87600850  1
  Se  Se169  1  0.37910000  0.03150550  0.62399150  1
  Se  Se170  1  0.12090000  0.46849450  0.62399150  1
  Se  Se171  1  0.12090000  0.03150550  0.87600850  1
  Se  Se172  1  0.37090000  0.78150550  0.87399150  1
  Se  Se173  1  0.87090000  0.21849450  0.62600850  1
  Se  Se174  1  0.12910000  0.78150550  0.62600850  1
  Se  Se175  1  0.62910000  0.21849450  0.87399150  1
  Se  Se176  1  0.12406550  0.62510800  0.71088450  1
  Se  Se177  1  0.12406550  0.87489200  0.78911550  1
  Se  Se178  1  0.37593450  0.62510800  0.78911550  1
  Se  Se179  1  0.37593450  0.87489200  0.71088450  1
  Se  Se180  1  0.12593450  0.62489200  0.53911550  1
  Se  Se181  1  0.12593450  0.87510800  0.96088450  1
  Se  Se182  1  0.37406550  0.62489200  0.96088450  1
  Se  Se183  1  0.37406550  0.87510800  0.53911550  1
  Se  Se184  1  0.12352900  0.12518750  0.53948650  1
  Se  Se185  1  0.62352900  0.87481250  0.96051350  1
  Se  Se186  1  0.37647100  0.12518750  0.96051350  1
  Se  Se187  1  0.87647100  0.87481250  0.53948650  1
  Se  Se188  1  0.12647100  0.12481250  0.71051350  1
  Se  Se189  1  0.62647100  0.87518750  0.78948650  1
  Se  Se190  1  0.37352900  0.12481250  0.78948650  1
  Se  Se191  1  0.87352900  0.87518750  0.71051350  1
  Se  Se192  1  0.60723000  0.54081050  0.37361850  1
  Se  Se193  1  0.10723000  0.45918950  0.12638150  1
  Se  Se194  1  0.89277000  0.54081050  0.12638150  1
  Se  Se195  1  0.39277000  0.45918950  0.37361850  1
  Se  Se196  1  0.14277000  0.70918950  0.37638150  1
  Se  Se197  1  0.14277000  0.79081050  0.12361850  1
  Se  Se198  1  0.35723000  0.70918950  0.12361850  1
  Se  Se199  1  0.35723000  0.79081050  0.37638150  1
  Se  Se200  1  0.37910000  0.96849450  0.37600850  1
  Se  Se201  1  0.37910000  0.53150550  0.12399150  1
  Se  Se202  1  0.12090000  0.96849450  0.12399150  1
  Se  Se203  1  0.12090000  0.53150550  0.37600850  1
  Se  Se204  1  0.37090000  0.28150550  0.37399150  1
  Se  Se205  1  0.87090000  0.71849450  0.12600850  1
  Se  Se206  1  0.12910000  0.28150550  0.12600850  1
  Se  Se207  1  0.62910000  0.71849450  0.37399150  1
  Se  Se208  1  0.12406550  0.12510800  0.21088450  1
  Se  Se209  1  0.12406550  0.37489200  0.28911550  1
  Se  Se210  1  0.37593450  0.12510800  0.28911550  1
  Se  Se211  1  0.37593450  0.37489200  0.21088450  1
  Se  Se212  1  0.12593450  0.12489200  0.03911550  1
  Se  Se213  1  0.12593450  0.37510800  0.46088450  1
  Se  Se214  1  0.37406550  0.12489200  0.46088450  1
  Se  Se215  1  0.37406550  0.37510800  0.03911550  1
  Se  Se216  1  0.12352900  0.62518750  0.03948650  1
  Se  Se217  1  0.62352900  0.37481250  0.46051350  1
  Se  Se218  1  0.37647100  0.62518750  0.46051350  1
  Se  Se219  1  0.87647100  0.37481250  0.03948650  1
  Se  Se220  1  0.12647100  0.62481250  0.21051350  1
  Se  Se221  1  0.62647100  0.37518750  0.28948650  1
  Se  Se222  1  0.37352900  0.62481250  0.28948650  1
  Se  Se223  1  0.87352900  0.37518750  0.21051350  1
