# generated using pymatgen
data_PdPbF4
_symmetry_space_group_name_H-M   'P 1'
_cell_length_a   5.98912600
_cell_length_b   5.98912600
_cell_length_c   10.94909200
_cell_angle_alpha   90.00000000
_cell_angle_beta   90.00000000
_cell_angle_gamma   90.00000000
_symmetry_Int_Tables_number   1
_chemical_formula_structural   PdPbF4
_chemical_formula_sum   'Pd4 Pb4 F16'
_cell_volume   392.73988155
_cell_formula_units_Z   4
loop_
 _symmetry_equiv_pos_site_id
 _symmetry_equiv_pos_as_xyz
  1  'x, y, z'
loop_
 _atom_site_type_symbol
 _atom_site_label
 _atom_site_symmetry_multiplicity
 _atom_site_fract_x
 _atom_site_fract_y
 _atom_site_fract_z
 _atom_site_occupancy
  Pd  Pd0  1  0.50000000  0.00000000  0.00000000  1
  Pd  Pd1  1  0.00000000  0.50000000  0.00000000  1
  Pd  Pd2  1  0.00000000  0.50000000  0.50000000  1
  Pd  Pd3  1  0.50000000  0.00000000  0.50000000  1
  Pb  Pb4  1  0.50000000  0.50000000  0.25000000  1
  Pb  Pb5  1  0.00000000  0.00000000  0.25000000  1
  Pb  Pb6  1  0.00000000  0.00000000  0.75000000  1
  Pb  Pb7  1  0.50000000  0.50000000  0.75000000  1
  F  F8  1  0.83131700  0.33131700  0.13021500  1
  F  F9  1  0.33131700  0.83131700  0.36978500  1
  F  F10  1  0.66868300  0.16868300  0.36978500  1
  F  F11  1  0.83131700  0.66868300  0.36978500  1
  F  F12  1  0.16868300  0.66868300  0.13021500  1
  F  F13  1  0.33131700  0.16868300  0.13021500  1
  F  F14  1  0.66868300  0.83131700  0.13021500  1
  F  F15  1  0.16868300  0.33131700  0.36978500  1
  F  F16  1  0.33131700  0.83131700  0.63021500  1
  F  F17  1  0.83131700  0.33131700  0.86978500  1
  F  F18  1  0.16868300  0.66868300  0.86978500  1
  F  F19  1  0.33131700  0.16868300  0.86978500  1
  F  F20  1  0.66868300  0.16868300  0.63021500  1
  F  F21  1  0.83131700  0.66868300  0.63021500  1
  F  F22  1  0.16868300  0.33131700  0.63021500  1
  F  F23  1  0.66868300  0.83131700  0.86978500  1
