# generated using pymatgen
data_Na2H10SO5
_symmetry_space_group_name_H-M   'P 1'
_cell_length_a   6.48395600
_cell_length_b   12.63548800
_cell_length_c   8.70982700
_cell_angle_alpha   90.00000000
_cell_angle_beta   90.00000000
_cell_angle_gamma   90.00000000
_symmetry_Int_Tables_number   1
_chemical_formula_structural   Na2H10SO5
_chemical_formula_sum   'Na8 H40 S4 O20'
_cell_volume   713.57825555
_cell_formula_units_Z   4
loop_
 _symmetry_equiv_pos_site_id
 _symmetry_equiv_pos_as_xyz
  1  'x, y, z'
loop_
 _atom_site_type_symbol
 _atom_site_label
 _atom_site_symmetry_multiplicity
 _atom_site_fract_x
 _atom_site_fract_y
 _atom_site_fract_z
 _atom_site_occupancy
  Na  Na0  1  0.00000000  0.00000000  0.50000000  1
  Na  Na1  1  0.00000000  0.45674500  0.25000000  1
  Na  Na2  1  0.50000000  0.04325500  0.75000000  1
  Na  Na3  1  0.00000000  0.00000000  0.00000000  1
  Na  Na4  1  0.50000000  0.50000000  0.50000000  1
  Na  Na5  1  0.50000000  0.95674500  0.25000000  1
  Na  Na6  1  0.00000000  0.54325500  0.75000000  1
  Na  Na7  1  0.50000000  0.50000000  0.00000000  1
  H  H8  1  0.81069900  0.18397700  0.87915600  1
  H  H9  1  0.17003000  0.35102700  0.52096500  1
  H  H10  1  0.67003000  0.14897300  0.47903500  1
  H  H11  1  0.32997000  0.14897300  0.02096500  1
  H  H12  1  0.32997000  0.14897300  0.47903500  1
  H  H13  1  0.82997000  0.35102700  0.52096500  1
  H  H14  1  0.17003000  0.35102700  0.97903500  1
  H  H15  1  0.67003000  0.14897300  0.02096500  1
  H  H16  1  0.31069900  0.31602300  0.37915600  1
  H  H17  1  0.81069900  0.18397700  0.62084400  1
  H  H18  1  0.18930100  0.18397700  0.87915600  1
  H  H19  1  0.68930100  0.31602300  0.12084400  1
  H  H20  1  0.18930100  0.18397700  0.62084400  1
  H  H21  1  0.68930100  0.31602300  0.37915600  1
  H  H22  1  0.87704500  0.13808300  0.25000000  1
  H  H23  1  0.31069900  0.31602300  0.12084400  1
  H  H24  1  0.62295500  0.36191700  0.75000000  1
  H  H25  1  0.12295500  0.13808300  0.25000000  1
  H  H26  1  0.37704500  0.36191700  0.75000000  1
  H  H27  1  0.82997000  0.35102700  0.97903500  1
  H  H28  1  0.31069900  0.68397700  0.87915600  1
  H  H29  1  0.67003000  0.85102700  0.52096500  1
  H  H30  1  0.17003000  0.64897300  0.47903500  1
  H  H31  1  0.82997000  0.64897300  0.02096500  1
  H  H32  1  0.82997000  0.64897300  0.47903500  1
  H  H33  1  0.32997000  0.85102700  0.52096500  1
  H  H34  1  0.67003000  0.85102700  0.97903500  1
  H  H35  1  0.17003000  0.64897300  0.02096500  1
  H  H36  1  0.81069900  0.81602300  0.37915600  1
  H  H37  1  0.31069900  0.68397700  0.62084400  1
  H  H38  1  0.68930100  0.68397700  0.87915600  1
  H  H39  1  0.18930100  0.81602300  0.12084400  1
  H  H40  1  0.68930100  0.68397700  0.62084400  1
  H  H41  1  0.18930100  0.81602300  0.37915600  1
  H  H42  1  0.37704500  0.63808300  0.25000000  1
  H  H43  1  0.81069900  0.81602300  0.12084400  1
  H  H44  1  0.12295500  0.86191700  0.75000000  1
  H  H45  1  0.62295500  0.63808300  0.25000000  1
  H  H46  1  0.87704500  0.86191700  0.75000000  1
  H  H47  1  0.32997000  0.85102700  0.97903500  1
  S  S48  1  0.00000000  0.31010000  0.75000000  1
  S  S49  1  0.50000000  0.18990000  0.25000000  1
  S  S50  1  0.50000000  0.81010000  0.75000000  1
  S  S51  1  0.00000000  0.68990000  0.25000000  1
  O  O52  1  0.23857400  0.37753900  0.42644100  1
  O  O53  1  0.73857400  0.12246100  0.57355900  1
  O  O54  1  0.26142600  0.12246100  0.92644100  1
  O  O55  1  0.76142600  0.37753900  0.07355900  1
  O  O56  1  0.26142600  0.12246100  0.57355900  1
  O  O57  1  0.76142600  0.37753900  0.42644100  1
  O  O58  1  0.23857400  0.37753900  0.07355900  1
  O  O59  1  0.73857400  0.12246100  0.92644100  1
  O  O60  1  0.00000000  0.09195300  0.25000000  1
  O  O61  1  0.50000000  0.40804700  0.75000000  1
  O  O62  1  0.73857400  0.87753900  0.42644100  1
  O  O63  1  0.23857400  0.62246100  0.57355900  1
  O  O64  1  0.76142600  0.62246100  0.92644100  1
  O  O65  1  0.26142600  0.87753900  0.07355900  1
  O  O66  1  0.76142600  0.62246100  0.57355900  1
  O  O67  1  0.26142600  0.87753900  0.42644100  1
  O  O68  1  0.73857400  0.87753900  0.07355900  1
  O  O69  1  0.23857400  0.62246100  0.92644100  1
  O  O70  1  0.50000000  0.59195300  0.25000000  1
  O  O71  1  0.00000000  0.90804700  0.75000000  1
