# generated using pymatgen
data_NaH2N
_symmetry_space_group_name_H-M   'P 1'
_cell_length_a   8.20018400
_cell_length_b   8.67939000
_cell_length_c   11.13216200
_cell_angle_alpha   90.00000000
_cell_angle_beta   90.00000000
_cell_angle_gamma   90.00000000
_symmetry_Int_Tables_number   1
_chemical_formula_structural   NaH2N
_chemical_formula_sum   'Na16 H32 N16'
_cell_volume   792.30485759
_cell_formula_units_Z   16
loop_
 _symmetry_equiv_pos_site_id
 _symmetry_equiv_pos_as_xyz
  1  'x, y, z'
loop_
 _atom_site_type_symbol
 _atom_site_label
 _atom_site_symmetry_multiplicity
 _atom_site_fract_x
 _atom_site_fract_y
 _atom_site_fract_z
 _atom_site_occupancy
  Na  Na0  1  0.75000000  0.75000000  0.11488100  1
  Na  Na1  1  0.75000000  0.75000000  0.38511900  1
  Na  Na2  1  0.00000000  0.00000000  0.13511900  1
  Na  Na3  1  0.50000000  0.00000000  0.36488100  1
  Na  Na4  1  0.75000000  0.25000000  0.61488100  1
  Na  Na5  1  0.75000000  0.25000000  0.88511900  1
  Na  Na6  1  0.00000000  0.50000000  0.63511900  1
  Na  Na7  1  0.50000000  0.50000000  0.86488100  1
  Na  Na8  1  0.25000000  0.75000000  0.61488100  1
  Na  Na9  1  0.25000000  0.75000000  0.88511900  1
  Na  Na10  1  0.50000000  0.00000000  0.63511900  1
  Na  Na11  1  0.00000000  0.00000000  0.86488100  1
  Na  Na12  1  0.25000000  0.25000000  0.11488100  1
  Na  Na13  1  0.25000000  0.25000000  0.38511900  1
  Na  Na14  1  0.50000000  0.50000000  0.13511900  1
  Na  Na15  1  0.00000000  0.50000000  0.36488100  1
  H  H16  1  0.56458250  0.19363500  0.19317350  1
  H  H17  1  0.06458250  0.80636500  0.30682650  1
  H  H18  1  0.93541750  0.19363500  0.30682650  1
  H  H19  1  0.43541750  0.80636500  0.19317350  1
  H  H20  1  0.68541750  0.05636500  0.05682650  1
  H  H21  1  0.31458250  0.94363500  0.05682650  1
  H  H22  1  0.81458250  0.05636500  0.44317350  1
  H  H23  1  0.18541750  0.94363500  0.44317350  1
  H  H24  1  0.56458250  0.69363500  0.69317350  1
  H  H25  1  0.06458250  0.30636500  0.80682650  1
  H  H26  1  0.93541750  0.69363500  0.80682650  1
  H  H27  1  0.43541750  0.30636500  0.69317350  1
  H  H28  1  0.68541750  0.55636500  0.55682650  1
  H  H29  1  0.31458250  0.44363500  0.55682650  1
  H  H30  1  0.81458250  0.55636500  0.94317350  1
  H  H31  1  0.18541750  0.44363500  0.94317350  1
  H  H32  1  0.06458250  0.19363500  0.69317350  1
  H  H33  1  0.56458250  0.80636500  0.80682650  1
  H  H34  1  0.43541750  0.19363500  0.80682650  1
  H  H35  1  0.93541750  0.80636500  0.69317350  1
  H  H36  1  0.18541750  0.05636500  0.55682650  1
  H  H37  1  0.81458250  0.94363500  0.55682650  1
  H  H38  1  0.31458250  0.05636500  0.94317350  1
  H  H39  1  0.68541750  0.94363500  0.94317350  1
  H  H40  1  0.06458250  0.69363500  0.19317350  1
  H  H41  1  0.56458250  0.30636500  0.30682650  1
  H  H42  1  0.43541750  0.69363500  0.30682650  1
  H  H43  1  0.93541750  0.30636500  0.19317350  1
  H  H44  1  0.18541750  0.55636500  0.05682650  1
  H  H45  1  0.81458250  0.44363500  0.05682650  1
  H  H46  1  0.31458250  0.55636500  0.44317350  1
  H  H47  1  0.68541750  0.44363500  0.44317350  1
  N  N48  1  0.23528800  0.00000000  0.00000000  1
  N  N49  1  0.51471200  0.75000000  0.25000000  1
  N  N50  1  0.76471200  0.00000000  0.00000000  1
  N  N51  1  0.98528800  0.75000000  0.25000000  1
  N  N52  1  0.23528800  0.50000000  0.50000000  1
  N  N53  1  0.51471200  0.25000000  0.75000000  1
  N  N54  1  0.76471200  0.50000000  0.50000000  1
  N  N55  1  0.98528800  0.25000000  0.75000000  1
  N  N56  1  0.73528800  0.00000000  0.50000000  1
  N  N57  1  0.01471200  0.75000000  0.75000000  1
  N  N58  1  0.26471200  0.00000000  0.50000000  1
  N  N59  1  0.48528800  0.75000000  0.75000000  1
  N  N60  1  0.73528800  0.50000000  0.00000000  1
  N  N61  1  0.01471200  0.25000000  0.25000000  1
  N  N62  1  0.26471200  0.50000000  0.00000000  1
  N  N63  1  0.48528800  0.25000000  0.25000000  1
