# generated using pymatgen
data_MoO2
_symmetry_space_group_name_H-M   'P 1'
_cell_length_a   3.19720590
_cell_length_b   3.19720590
_cell_length_c   14.24721546
_cell_angle_alpha   90.00000000
_cell_angle_beta   90.00000000
_cell_angle_gamma   120.00000000
_symmetry_Int_Tables_number   1
_chemical_formula_structural   MoO2
_chemical_formula_sum   'Mo3 O6'
_cell_volume   126.12519045
_cell_formula_units_Z   3
loop_
 _symmetry_equiv_pos_site_id
 _symmetry_equiv_pos_as_xyz
  1  'x, y, z'
loop_
 _atom_site_type_symbol
 _atom_site_label
 _atom_site_symmetry_multiplicity
 _atom_site_fract_x
 _atom_site_fract_y
 _atom_site_fract_z
 _atom_site_occupancy
  Mo  Mo0  1  0.00000000  0.00000000  0.00000000  1
  Mo  Mo1  1  0.66666667  0.33333333  0.33333333  1
  Mo  Mo2  1  0.33333333  0.66666667  0.66666667  1
  O  O3  1  0.00000000  0.00000000  0.26377000  1
  O  O4  1  0.66666667  0.33333333  0.06956333  1
  O  O5  1  0.66666667  0.33333333  0.59710333  1
  O  O6  1  0.33333333  0.66666667  0.40289667  1
  O  O7  1  0.33333333  0.66666667  0.93043667  1
  O  O8  1  0.00000000  0.00000000  0.73623000  1
