# generated using pymatgen
data_NaO3
_symmetry_space_group_name_H-M   'P 1'
_cell_length_a   3.64018000
_cell_length_b   5.37127400
_cell_length_c   5.69467600
_cell_angle_alpha   90.00000000
_cell_angle_beta   90.00000000
_cell_angle_gamma   90.00000000
_symmetry_Int_Tables_number   1
_chemical_formula_structural   NaO3
_chemical_formula_sum   'Na2 O6'
_cell_volume   111.34460688
_cell_formula_units_Z   2
loop_
 _symmetry_equiv_pos_site_id
 _symmetry_equiv_pos_as_xyz
  1  'x, y, z'
loop_
 _atom_site_type_symbol
 _atom_site_label
 _atom_site_symmetry_multiplicity
 _atom_site_fract_x
 _atom_site_fract_y
 _atom_site_fract_z
 _atom_site_occupancy
  Na  Na0  1  0.00000000  0.00000000  0.48255300  1
  Na  Na1  1  0.50000000  0.50000000  0.98255300  1
  O  O2  1  0.50000000  0.28817200  0.59148200  1
  O  O3  1  0.00000000  0.00000000  0.95888300  1
  O  O4  1  0.50000000  0.71182800  0.59148200  1
  O  O5  1  0.00000000  0.78817200  0.09148200  1
  O  O6  1  0.50000000  0.50000000  0.45888300  1
  O  O7  1  0.00000000  0.21182800  0.09148200  1
