# generated using pymatgen
data_Be2TlF5
_symmetry_space_group_name_H-M   'P 1'
_cell_length_a   8.18590800
_cell_length_b   4.71503200
_cell_length_c   12.80519854
_cell_angle_alpha   90.00000000
_cell_angle_beta   91.26756662
_cell_angle_gamma   90.00000000
_symmetry_Int_Tables_number   1
_chemical_formula_structural   Be2TlF5
_chemical_formula_sum   'Be8 Tl4 F20'
_cell_volume   494.11897499
_cell_formula_units_Z   4
loop_
 _symmetry_equiv_pos_site_id
 _symmetry_equiv_pos_as_xyz
  1  'x, y, z'
loop_
 _atom_site_type_symbol
 _atom_site_label
 _atom_site_symmetry_multiplicity
 _atom_site_fract_x
 _atom_site_fract_y
 _atom_site_fract_z
 _atom_site_occupancy
  Be  Be0  1  0.66781350  0.97540350  0.70471500  1
  Be  Be1  1  0.83218650  0.47540350  0.79528500  1
  Be  Be2  1  0.83218650  0.52459650  0.29528500  1
  Be  Be3  1  0.66781350  0.02459650  0.20471500  1
  Be  Be4  1  0.16781350  0.47540350  0.70471500  1
  Be  Be5  1  0.33218650  0.97540350  0.79528500  1
  Be  Be6  1  0.33218650  0.02459650  0.29528500  1
  Be  Be7  1  0.16781350  0.52459650  0.20471500  1
  Tl  Tl8  1  0.00000000  0.00000000  0.50000000  1
  Tl  Tl9  1  0.00000000  0.00000000  0.00000000  1
  Tl  Tl10  1  0.50000000  0.50000000  0.50000000  1
  Tl  Tl11  1  0.50000000  0.50000000  0.00000000  1
  F  F12  1  0.00000000  0.57695800  0.75000000  1
  F  F13  1  0.80665750  0.84503250  0.26154500  1
  F  F14  1  0.80665750  0.15496750  0.76154500  1
  F  F15  1  0.69334250  0.65496750  0.73845500  1
  F  F16  1  0.69334250  0.34503250  0.23845500  1
  F  F17  1  0.67081550  0.99432350  0.08685100  1
  F  F18  1  0.82918450  0.49432350  0.41314900  1
  F  F19  1  0.82918450  0.50567650  0.91314900  1
  F  F20  1  0.67081550  0.00567650  0.58685100  1
  F  F21  1  0.00000000  0.42304200  0.25000000  1
  F  F22  1  0.50000000  0.07695800  0.75000000  1
  F  F23  1  0.30665750  0.34503250  0.26154500  1
  F  F24  1  0.30665750  0.65496750  0.76154500  1
  F  F25  1  0.19334250  0.15496750  0.73845500  1
  F  F26  1  0.19334250  0.84503250  0.23845500  1
  F  F27  1  0.17081550  0.49432350  0.08685100  1
  F  F28  1  0.32918450  0.99432350  0.41314900  1
  F  F29  1  0.32918450  0.00567650  0.91314900  1
  F  F30  1  0.17081550  0.50567650  0.58685100  1
  F  F31  1  0.50000000  0.92304200  0.25000000  1
