# generated using pymatgen
data_H8S(NO2)2
_symmetry_space_group_name_H-M   'P 1'
_cell_length_a   6.47073200
_cell_length_b   7.70018200
_cell_length_c   10.67747300
_cell_angle_alpha   90.00000000
_cell_angle_beta   90.00000000
_cell_angle_gamma   90.00000000
_symmetry_Int_Tables_number   1
_chemical_formula_structural   H8S(NO2)2
_chemical_formula_sum   'H32 S4 N8 O16'
_cell_volume   532.01378447
_cell_formula_units_Z   4
loop_
 _symmetry_equiv_pos_site_id
 _symmetry_equiv_pos_as_xyz
  1  'x, y, z'
loop_
 _atom_site_type_symbol
 _atom_site_label
 _atom_site_symmetry_multiplicity
 _atom_site_fract_x
 _atom_site_fract_y
 _atom_site_fract_z
 _atom_site_occupancy
  H  H0  1  0.11980400  0.32562100  0.82617500  1
  H  H1  1  0.61980400  0.67437900  0.17382500  1
  H  H2  1  0.38019600  0.82562100  0.67382500  1
  H  H3  1  0.88019600  0.17437900  0.32617500  1
  H  H4  1  0.88019600  0.67437900  0.17382500  1
  H  H5  1  0.38019600  0.32562100  0.82617500  1
  H  H6  1  0.61980400  0.17437900  0.32617500  1
  H  H7  1  0.11980400  0.82562100  0.67382500  1
  H  H8  1  0.75000000  0.59516700  0.29734000  1
  H  H9  1  0.25000000  0.40483300  0.70266000  1
  H  H10  1  0.75000000  0.09516700  0.20266000  1
  H  H11  1  0.25000000  0.90483300  0.79734000  1
  H  H12  1  0.75000000  0.48224000  0.15639700  1
  H  H13  1  0.25000000  0.51776000  0.84360300  1
  H  H14  1  0.75000000  0.66990600  0.88748500  1
  H  H15  1  0.75000000  0.98224000  0.34360300  1
  H  H16  1  0.12031100  0.16917300  0.03732500  1
  H  H17  1  0.62031100  0.83082700  0.96267500  1
  H  H18  1  0.37968900  0.66917300  0.46267500  1
  H  H19  1  0.87968900  0.33082700  0.53732500  1
  H  H20  1  0.87968900  0.83082700  0.96267500  1
  H  H21  1  0.37968900  0.16917300  0.03732500  1
  H  H22  1  0.62031100  0.33082700  0.53732500  1
  H  H23  1  0.12031100  0.66917300  0.46267500  1
  H  H24  1  0.75000000  0.87659600  0.82807200  1
  H  H25  1  0.25000000  0.12340400  0.17192800  1
  H  H26  1  0.75000000  0.37659600  0.67192800  1
  H  H27  1  0.25000000  0.62340400  0.32807200  1
  H  H28  1  0.25000000  0.83009400  0.38748500  1
  H  H29  1  0.75000000  0.16990600  0.61251500  1
  H  H30  1  0.25000000  0.33009400  0.11251500  1
  H  H31  1  0.25000000  0.01776000  0.65639700  1
  S  S32  1  0.75000000  0.27002500  0.93083000  1
  S  S33  1  0.25000000  0.72997500  0.06917000  1
  S  S34  1  0.75000000  0.77002500  0.56917000  1
  S  S35  1  0.25000000  0.22997500  0.43083000  1
  N  N36  1  0.75000000  0.60349500  0.20121400  1
  N  N37  1  0.25000000  0.39650500  0.79878600  1
  N  N38  1  0.75000000  0.10349500  0.29878600  1
  N  N39  1  0.25000000  0.89650500  0.70121400  1
  N  N40  1  0.75000000  0.80238200  0.90883400  1
  N  N41  1  0.25000000  0.19761800  0.09116600  1
  N  N42  1  0.75000000  0.30238200  0.59116600  1
  N  N43  1  0.25000000  0.69761800  0.40883400  1
  O  O44  1  0.05997300  0.82938800  0.10569100  1
  O  O45  1  0.55997300  0.17061200  0.89430900  1
  O  O46  1  0.44002700  0.32938800  0.39430900  1
  O  O47  1  0.94002700  0.67061200  0.60569100  1
  O  O48  1  0.94002700  0.17061200  0.89430900  1
  O  O49  1  0.44002700  0.82938800  0.10569100  1
  O  O50  1  0.55997300  0.67061200  0.60569100  1
  O  O51  1  0.05997300  0.32938800  0.39430900  1
  O  O52  1  0.75000000  0.29323900  0.06986400  1
  O  O53  1  0.25000000  0.70676100  0.93013600  1
  O  O54  1  0.75000000  0.79323900  0.43013600  1
  O  O55  1  0.25000000  0.20676100  0.56986400  1
  O  O56  1  0.75000000  0.44000400  0.86383900  1
  O  O57  1  0.25000000  0.55999600  0.13616100  1
  O  O58  1  0.75000000  0.94000400  0.63616100  1
  O  O59  1  0.25000000  0.05999600  0.36383900  1
