# generated using pymatgen
data_LiNd2HO3
_symmetry_space_group_name_H-M   'P 1'
_cell_length_a   3.50472600
_cell_length_b   3.71637000
_cell_length_c   12.70631200
_cell_angle_alpha   90.00000000
_cell_angle_beta   90.00000000
_cell_angle_gamma   90.00000000
_symmetry_Int_Tables_number   1
_chemical_formula_structural   LiNd2HO3
_chemical_formula_sum   'Li2 Nd4 H2 O6'
_cell_volume   165.49791668
_cell_formula_units_Z   2
loop_
 _symmetry_equiv_pos_site_id
 _symmetry_equiv_pos_as_xyz
  1  'x, y, z'
loop_
 _atom_site_type_symbol
 _atom_site_label
 _atom_site_symmetry_multiplicity
 _atom_site_fract_x
 _atom_site_fract_y
 _atom_site_fract_z
 _atom_site_occupancy
  Li  Li0  1  0.00000000  0.00000000  0.00000000  1
  Li  Li1  1  0.50000000  0.50000000  0.50000000  1
  Nd  Nd2  1  0.50000000  0.50000000  0.86404500  1
  Nd  Nd3  1  0.00000000  0.00000000  0.63595500  1
  Nd  Nd4  1  0.00000000  0.00000000  0.36404500  1
  Nd  Nd5  1  0.50000000  0.50000000  0.13595500  1
  H  H6  1  0.50000000  0.00000000  0.00000000  1
  H  H7  1  0.00000000  0.50000000  0.50000000  1
  O  O8  1  0.00000000  0.50000000  0.00000000  1
  O  O9  1  0.00000000  0.00000000  0.82351600  1
  O  O10  1  0.50000000  0.50000000  0.67648400  1
  O  O11  1  0.50000000  0.00000000  0.50000000  1
  O  O12  1  0.50000000  0.50000000  0.32351600  1
  O  O13  1  0.00000000  0.00000000  0.17648400  1
