# generated using pymatgen
data_Na4SnO3
_symmetry_space_group_name_H-M   'P 1'
_cell_length_a   5.87917200
_cell_length_b   16.86186800
_cell_length_c   5.94702565
_cell_angle_alpha   90.00000000
_cell_angle_beta   110.03223191
_cell_angle_gamma   90.00000000
_symmetry_Int_Tables_number   1
_chemical_formula_structural   Na4SnO3
_chemical_formula_sum   'Na16 Sn4 O12'
_cell_volume   553.88356462
_cell_formula_units_Z   4
loop_
 _symmetry_equiv_pos_site_id
 _symmetry_equiv_pos_as_xyz
  1  'x, y, z'
loop_
 _atom_site_type_symbol
 _atom_site_label
 _atom_site_symmetry_multiplicity
 _atom_site_fract_x
 _atom_site_fract_y
 _atom_site_fract_z
 _atom_site_occupancy
  Na  Na0  1  0.99047050  0.46630450  0.74997800  1
  Na  Na1  1  0.00573550  0.04303850  0.78139100  1
  Na  Na2  1  0.95764950  0.35864250  0.30641900  1
  Na  Na3  1  0.45764950  0.14135750  0.80641900  1
  Na  Na4  1  0.00947550  0.25373050  0.74829600  1
  Na  Na5  1  0.50947550  0.24626950  0.24829600  1
  Na  Na6  1  0.50573550  0.45696150  0.28139100  1
  Na  Na7  1  0.49047050  0.03369550  0.24997800  1
  Na  Na8  1  0.49047050  0.96630450  0.74997800  1
  Na  Na9  1  0.50573550  0.54303850  0.78139100  1
  Na  Na10  1  0.45764950  0.85864250  0.30641900  1
  Na  Na11  1  0.95764950  0.64135750  0.80641900  1
  Na  Na12  1  0.50947550  0.75373050  0.74829600  1
  Na  Na13  1  0.00947550  0.74626950  0.24829600  1
  Na  Na14  1  0.00573550  0.95696150  0.28139100  1
  Na  Na15  1  0.99047050  0.53369550  0.24997800  1
  Sn  Sn16  1  0.01154450  0.14360550  0.25057600  1
  Sn  Sn17  1  0.51154450  0.35639450  0.75057600  1
  Sn  Sn18  1  0.51154450  0.64360550  0.25057600  1
  Sn  Sn19  1  0.01154450  0.85639450  0.75057600  1
  O  O20  1  0.20949650  0.16216650  0.02779700  1
  O  O21  1  0.70949650  0.33783350  0.52779700  1
  O  O22  1  0.24404300  0.06656300  0.48760100  1
  O  O23  1  0.74404300  0.43343700  0.98760100  1
  O  O24  1  0.76558450  0.06336650  0.04044100  1
  O  O25  1  0.26558450  0.43663350  0.54044100  1
  O  O26  1  0.70949650  0.66216650  0.02779700  1
  O  O27  1  0.20949650  0.83783350  0.52779700  1
  O  O28  1  0.74404300  0.56656300  0.48760100  1
  O  O29  1  0.24404300  0.93343700  0.98760100  1
  O  O30  1  0.26558450  0.56336650  0.04044100  1
  O  O31  1  0.76558450  0.93663350  0.54044100  1
