# generated using pymatgen
data_Bi4Br2O5
_symmetry_space_group_name_H-M   'P 1'
_cell_length_a   11.10364400
_cell_length_b   5.74144600
_cell_length_c   14.80672777
_cell_angle_alpha   90.00000000
_cell_angle_beta   98.52866165
_cell_angle_gamma   90.00000000
_symmetry_Int_Tables_number   1
_chemical_formula_structural   Bi4Br2O5
_chemical_formula_sum   'Bi16 Br8 O20'
_cell_volume   933.50497927
_cell_formula_units_Z   4
loop_
 _symmetry_equiv_pos_site_id
 _symmetry_equiv_pos_as_xyz
  1  'x, y, z'
loop_
 _atom_site_type_symbol
 _atom_site_label
 _atom_site_symmetry_multiplicity
 _atom_site_fract_x
 _atom_site_fract_y
 _atom_site_fract_z
 _atom_site_occupancy
  Bi  Bi0  1  0.78903600  0.22787800  0.84837700  1
  Bi  Bi1  1  0.21096400  0.72787800  0.15162300  1
  Bi  Bi2  1  0.64784700  0.72771500  0.69752400  1
  Bi  Bi3  1  0.35215300  0.22771500  0.30247600  1
  Bi  Bi4  1  0.73346400  0.28808200  0.11827200  1
  Bi  Bi5  1  0.26653600  0.78808200  0.88172800  1
  Bi  Bi6  1  0.59652200  0.83992500  0.95861400  1
  Bi  Bi7  1  0.40347800  0.33992500  0.04138600  1
  Bi  Bi8  1  0.43618600  0.31906100  0.78101500  1
  Bi  Bi9  1  0.56381400  0.81906100  0.21898500  1
  Bi  Bi10  1  0.27310300  0.75291700  0.62721700  1
  Bi  Bi11  1  0.72689700  0.25291700  0.37278300  1
  Bi  Bi12  1  0.07779300  0.24039300  0.45741300  1
  Bi  Bi13  1  0.92220700  0.74039300  0.54258700  1
  Bi  Bi14  1  0.90524000  0.74470900  0.29368600  1
  Bi  Bi15  1  0.09476000  0.24470900  0.70631400  1
  Br  Br16  1  0.78617200  0.23373200  0.62047200  1
  Br  Br17  1  0.21382800  0.73373200  0.37952800  1
  Br  Br18  1  0.62431300  0.70957200  0.44950900  1
  Br  Br19  1  0.37568700  0.20957200  0.55049100  1
  Br  Br20  1  0.94808900  0.73422600  0.77209100  1
  Br  Br21  1  0.87534600  0.71074900  0.06225300  1
  Br  Br22  1  0.12465400  0.21074900  0.93774700  1
  Br  Br23  1  0.05191100  0.23422600  0.22790900  1
  O  O24  1  0.70490300  0.18502300  0.96744400  1
  O  O25  1  0.29509700  0.68502300  0.03255600  1
  O  O26  1  0.65320000  0.48249400  0.80737000  1
  O  O27  1  0.34680000  0.98249400  0.19263000  1
  O  O28  1  0.64746800  0.98145800  0.80330400  1
  O  O29  1  0.35253200  0.48145800  0.19669600  1
  O  O30  1  0.45919100  0.67182200  0.70280300  1
  O  O31  1  0.54080900  0.17182200  0.29719700  1
  O  O32  1  0.42391700  0.52730800  0.90459100  1
  O  O33  1  0.57608300  0.02730800  0.09540900  1
  O  O34  1  0.42389900  0.02889300  0.91225400  1
  O  O35  1  0.57610100  0.52889300  0.08774600  1
  O  O36  1  0.92188300  0.49791800  0.42061800  1
  O  O37  1  0.07811700  0.99791800  0.57938200  1
  O  O38  1  0.91898100  0.98294000  0.42003500  1
  O  O39  1  0.08101900  0.48294000  0.57996500  1
  O  O40  1  0.25540200  0.00761700  0.73641600  1
  O  O41  1  0.75159600  0.99766800  0.25837400  1
  O  O42  1  0.24840400  0.49766800  0.74162600  1
  O  O43  1  0.74459800  0.50761700  0.26358400  1
