# generated using pymatgen
data_Co2(GeS)3
_symmetry_space_group_name_H-M   'P 1'
_cell_length_a   11.38942199
_cell_length_b   11.38942199
_cell_length_c   13.97653793
_cell_angle_alpha   90.00000000
_cell_angle_beta   90.00000000
_cell_angle_gamma   120.00000000
_symmetry_Int_Tables_number   1
_chemical_formula_structural   Co2(GeS)3
_chemical_formula_sum   'Co24 Ge36 S36'
_cell_volume   1570.12275562
_cell_formula_units_Z   12
loop_
 _symmetry_equiv_pos_site_id
 _symmetry_equiv_pos_as_xyz
  1  'x, y, z'
loop_
 _atom_site_type_symbol
 _atom_site_label
 _atom_site_symmetry_multiplicity
 _atom_site_fract_x
 _atom_site_fract_y
 _atom_site_fract_z
 _atom_site_occupancy
  Co  Co0  1  0.83069200  0.16382900  0.42279300  1
  Co  Co1  1  0.16930800  0.83617100  0.57720700  1
  Co  Co2  1  0.83617100  0.66686300  0.42279300  1
  Co  Co3  1  0.16382900  0.33313700  0.57720700  1
  Co  Co4  1  0.33313700  0.16930800  0.42279300  1
  Co  Co5  1  0.00000000  0.00000000  0.75620900  1
  Co  Co6  1  0.66686300  0.83069200  0.57720700  1
  Co  Co7  1  0.00000000  0.00000000  0.24379100  1
  Co  Co8  1  0.49735867  0.49716233  0.75612633  1
  Co  Co9  1  0.83597467  0.16950433  0.91054033  1
  Co  Co10  1  0.50283767  0.00019633  0.75612633  1
  Co  Co11  1  0.83049567  0.66647033  0.91054033  1
  Co  Co12  1  0.99980367  0.50264133  0.75612633  1
  Co  Co13  1  0.66666667  0.33333333  0.08954233  1
  Co  Co14  1  0.33352967  0.16402533  0.91054033  1
  Co  Co15  1  0.66666667  0.33333333  0.57712433  1
  Co  Co16  1  0.16402533  0.83049567  0.08945967  1
  Co  Co17  1  0.50264133  0.50283767  0.24387367  1
  Co  Co18  1  0.16950433  0.33352967  0.08945967  1
  Co  Co19  1  0.49716233  0.99980367  0.24387367  1
  Co  Co20  1  0.66647033  0.83597467  0.08945967  1
  Co  Co21  1  0.33333333  0.66666667  0.42287567  1
  Co  Co22  1  0.00019633  0.49735867  0.24387367  1
  Co  Co23  1  0.33333333  0.66666667  0.91045767  1
  Ge  Ge24  1  0.60729667  0.72853333  0.72692033  1
  Ge  Ge25  1  0.39270333  0.27146667  0.27307967  1
  Ge  Ge26  1  0.82721933  0.83767767  0.33814167  1
  Ge  Ge27  1  0.16232233  0.98954167  0.33814167  1
  Ge  Ge28  1  0.01045833  0.17278067  0.33814167  1
  Ge  Ge29  1  0.27146667  0.87876333  0.72692033  1
  Ge  Ge30  1  0.17278067  0.16232233  0.66185833  1
  Ge  Ge31  1  0.83767767  0.01045833  0.66185833  1
  Ge  Ge32  1  0.87876333  0.60729667  0.27307967  1
  Ge  Ge33  1  0.12123667  0.39270333  0.72692033  1
  Ge  Ge34  1  0.72853333  0.12123667  0.27307967  1
  Ge  Ge35  1  0.98954167  0.82721933  0.66185833  1
  Ge  Ge36  1  0.27396333  0.06186667  0.06025367  1
  Ge  Ge37  1  0.05937000  0.60480000  0.60641300  1
  Ge  Ge38  1  0.49388600  0.17101100  0.67147500  1
  Ge  Ge39  1  0.82898900  0.32287500  0.67147500  1
  Ge  Ge40  1  0.67712500  0.50611400  0.67147500  1
  Ge  Ge41  1  0.93813333  0.21209667  0.06025367  1
  Ge  Ge42  1  0.83944733  0.49565567  0.99519167  1
  Ge  Ge43  1  0.50434433  0.34379167  0.99519167  1
  Ge  Ge44  1  0.54543000  0.94063000  0.60641300  1
  Ge  Ge45  1  0.78790333  0.72603667  0.06025367  1
  Ge  Ge46  1  0.39520000  0.45457000  0.60641300  1
  Ge  Ge47  1  0.65620833  0.16055267  0.99519167  1
  Ge  Ge48  1  0.94063000  0.39520000  0.39358700  1
  Ge  Ge49  1  0.72603667  0.93813333  0.93974633  1
  Ge  Ge50  1  0.16055267  0.50434433  0.00480833  1
  Ge  Ge51  1  0.49565567  0.65620833  0.00480833  1
  Ge  Ge52  1  0.34379167  0.83944733  0.00480833  1
  Ge  Ge53  1  0.60480000  0.54543000  0.39358700  1
  Ge  Ge54  1  0.50611400  0.82898900  0.32852500  1
  Ge  Ge55  1  0.17101100  0.67712500  0.32852500  1
  Ge  Ge56  1  0.21209667  0.27396333  0.93974633  1
  Ge  Ge57  1  0.45457000  0.05937000  0.39358700  1
  Ge  Ge58  1  0.06186667  0.78790333  0.93974633  1
  Ge  Ge59  1  0.32287500  0.49388600  0.32852500  1
  S  S60  1  0.82002967  0.83757533  0.83419633  1
  S  S61  1  0.93476900  0.21412600  0.56529400  1
  S  S62  1  0.98245433  0.82002967  0.16580367  1
  S  S63  1  0.16242467  0.98245433  0.83419633  1
  S  S64  1  0.01754567  0.17997033  0.83419633  1
  S  S65  1  0.06523100  0.78587400  0.43470600  1
  S  S66  1  0.21412600  0.27935700  0.43470600  1
  S  S67  1  0.27935700  0.06523100  0.56529400  1
  S  S68  1  0.72064300  0.93476900  0.43470600  1
  S  S69  1  0.83757533  0.01754567  0.16580367  1
  S  S70  1  0.78587400  0.72064300  0.56529400  1
  S  S71  1  0.17997033  0.16242467  0.16580367  1
  S  S72  1  0.48669633  0.17090867  0.16752967  1
  S  S73  1  0.60143567  0.54745933  0.89862733  1
  S  S74  1  0.64912100  0.15336300  0.49913700  1
  S  S75  1  0.82909133  0.31578767  0.16752967  1
  S  S76  1  0.68421233  0.51330367  0.16752967  1
  S  S77  1  0.73189767  0.11920733  0.76803933  1
  S  S78  1  0.88079267  0.61269033  0.76803933  1
  S  S79  1  0.94602367  0.39856433  0.89862733  1
  S  S80  1  0.38730967  0.26810233  0.76803933  1
  S  S81  1  0.50424200  0.35087900  0.49913700  1
  S  S82  1  0.45254067  0.05397633  0.89862733  1
  S  S83  1  0.84663700  0.49575800  0.49913700  1
  S  S84  1  0.15336300  0.50424200  0.50086300  1
  S  S85  1  0.26810233  0.88079267  0.23196067  1
  S  S86  1  0.31578767  0.48669633  0.83247033  1
  S  S87  1  0.49575800  0.64912100  0.50086300  1
  S  S88  1  0.35087900  0.84663700  0.50086300  1
  S  S89  1  0.39856433  0.45254067  0.10137267  1
  S  S90  1  0.54745933  0.94602367  0.10137267  1
  S  S91  1  0.61269033  0.73189767  0.23196067  1
  S  S92  1  0.05397633  0.60143567  0.10137267  1
  S  S93  1  0.17090867  0.68421233  0.83247033  1
  S  S94  1  0.11920733  0.38730967  0.23196067  1
  S  S95  1  0.51330367  0.82909133  0.83247033  1
