# generated using pymatgen
data_Cd2P3I
_symmetry_space_group_name_H-M   'P 1'
_cell_length_a   8.38857400
_cell_length_b   9.42419200
_cell_length_c   7.64209458
_cell_angle_alpha   90.00000000
_cell_angle_beta   99.48130492
_cell_angle_gamma   90.00000000
_symmetry_Int_Tables_number   1
_chemical_formula_structural   Cd2P3I
_chemical_formula_sum   'Cd8 P12 I4'
_cell_volume   595.89680437
_cell_formula_units_Z   4
loop_
 _symmetry_equiv_pos_site_id
 _symmetry_equiv_pos_as_xyz
  1  'x, y, z'
loop_
 _atom_site_type_symbol
 _atom_site_label
 _atom_site_symmetry_multiplicity
 _atom_site_fract_x
 _atom_site_fract_y
 _atom_site_fract_z
 _atom_site_occupancy
  Cd  Cd0  1  0.74913550  0.85598250  0.71869000  1
  Cd  Cd1  1  0.25086450  0.85598250  0.78131000  1
  Cd  Cd2  1  0.25086450  0.14401750  0.28131000  1
  Cd  Cd3  1  0.74913550  0.14401750  0.21869000  1
  Cd  Cd4  1  0.24913550  0.35598250  0.71869000  1
  Cd  Cd5  1  0.75086450  0.35598250  0.78131000  1
  Cd  Cd6  1  0.75086450  0.64401750  0.28131000  1
  Cd  Cd7  1  0.24913550  0.64401750  0.21869000  1
  P  P8  1  0.50000000  0.30609100  0.25000000  1
  P  P9  1  0.10933400  0.95535900  0.45849600  1
  P  P10  1  0.10933400  0.04464100  0.95849600  1
  P  P11  1  0.50000000  0.69390900  0.75000000  1
  P  P12  1  0.89066600  0.95535900  0.04150400  1
  P  P13  1  0.89066600  0.04464100  0.54150400  1
  P  P14  1  0.00000000  0.80609100  0.25000000  1
  P  P15  1  0.60933400  0.45535900  0.45849600  1
  P  P16  1  0.60933400  0.54464100  0.95849600  1
  P  P17  1  0.00000000  0.19390900  0.75000000  1
  P  P18  1  0.39066600  0.45535900  0.04150400  1
  P  P19  1  0.39066600  0.54464100  0.54150400  1
  I  I20  1  0.50000000  0.88048800  0.25000000  1
  I  I21  1  0.50000000  0.11951200  0.75000000  1
  I  I22  1  0.00000000  0.38048800  0.25000000  1
  I  I23  1  0.00000000  0.61951200  0.75000000  1
