# generated using pymatgen
data_Tb(AlCl4)3
_symmetry_space_group_name_H-M   'P 1'
_cell_length_a   10.84032489
_cell_length_b   10.84032489
_cell_length_c   16.04380700
_cell_angle_alpha   90.00000000
_cell_angle_beta   90.00000000
_cell_angle_gamma   120.00000000
_symmetry_Int_Tables_number   1
_chemical_formula_structural   Tb(AlCl4)3
_chemical_formula_sum   'Tb3 Al9 Cl36'
_cell_volume   1632.76114817
_cell_formula_units_Z   3
loop_
 _symmetry_equiv_pos_site_id
 _symmetry_equiv_pos_as_xyz
  1  'x, y, z'
loop_
 _atom_site_type_symbol
 _atom_site_label
 _atom_site_symmetry_multiplicity
 _atom_site_fract_x
 _atom_site_fract_y
 _atom_site_fract_z
 _atom_site_occupancy
  Tb  Tb0  1  0.65743200  0.82871600  0.00000000  1
  Tb  Tb1  1  0.17128400  0.34256800  0.66666667  1
  Tb  Tb2  1  0.17128400  0.82871600  0.33333333  1
  Al  Al3  1  0.39853800  0.60146200  0.83333333  1
  Al  Al4  1  0.79509500  0.09668500  0.60347200  1
  Al  Al5  1  0.90331500  0.69841000  0.93680533  1
  Al  Al6  1  0.30159000  0.20490500  0.27013867  1
  Al  Al7  1  0.39853800  0.79707600  0.16666667  1
  Al  Al8  1  0.20292400  0.60146200  0.50000000  1
  Al  Al9  1  0.79509500  0.69841000  0.39652800  1
  Al  Al10  1  0.30159000  0.09668500  0.72986133  1
  Al  Al11  1  0.90331500  0.20490500  0.06319467  1
  Cl  Cl12  1  0.67525100  0.17495400  0.54440000  1
  Cl  Cl13  1  0.49970300  0.32474900  0.21106667  1
  Cl  Cl14  1  0.82504600  0.50029700  0.87773333  1
  Cl  Cl15  1  0.45777700  0.92433500  0.27925700  1
  Cl  Cl16  1  0.07566500  0.53344200  0.61259033  1
  Cl  Cl17  1  0.46655800  0.54222300  0.94592367  1
  Cl  Cl18  1  0.07566500  0.54222300  0.38740967  1
  Cl  Cl19  1  0.46655800  0.92433500  0.05407633  1
  Cl  Cl20  1  0.45777700  0.53344200  0.72074300  1
  Cl  Cl21  1  0.89241000  0.67877200  0.27830500  1
  Cl  Cl22  1  0.32122800  0.21363800  0.61163833  1
  Cl  Cl23  1  0.78636200  0.10759000  0.94497167  1
  Cl  Cl24  1  0.32122800  0.10759000  0.38836167  1
  Cl  Cl25  1  0.78636200  0.67877200  0.05502833  1
  Cl  Cl26  1  0.89241000  0.21363800  0.72169500  1
  Cl  Cl27  1  0.17065800  0.99629700  0.20515100  1
  Cl  Cl28  1  0.00370300  0.17436100  0.53848433  1
  Cl  Cl29  1  0.82563900  0.82934200  0.87181767  1
  Cl  Cl30  1  0.00370300  0.82934200  0.46151567  1
  Cl  Cl31  1  0.82563900  0.99629700  0.12818233  1
  Cl  Cl32  1  0.17065800  0.17436100  0.79484900  1
  Cl  Cl33  1  0.32755500  0.82910900  0.48212300  1
  Cl  Cl34  1  0.17089100  0.49844600  0.81545633  1
  Cl  Cl35  1  0.50155400  0.67244500  0.14878967  1
  Cl  Cl36  1  0.17089100  0.67244500  0.18454367  1
  Cl  Cl37  1  0.50155400  0.82910900  0.85121033  1
  Cl  Cl38  1  0.32755500  0.49844600  0.51787700  1
  Cl  Cl39  1  0.69668900  0.82120900  0.37596300  1
  Cl  Cl40  1  0.17879100  0.87548000  0.70929633  1
  Cl  Cl41  1  0.12452000  0.30331100  0.04262967  1
  Cl  Cl42  1  0.17879100  0.30331100  0.29070367  1
  Cl  Cl43  1  0.12452000  0.82120900  0.95737033  1
  Cl  Cl44  1  0.69668900  0.87548000  0.62403700  1
  Cl  Cl45  1  0.67525100  0.50029700  0.45560000  1
  Cl  Cl46  1  0.49970300  0.17495400  0.78893333  1
  Cl  Cl47  1  0.82504600  0.32474900  0.12226667  1
