# generated using pymatgen
data_SrP2(HO)4
_symmetry_space_group_name_H-M   'P 1'
_cell_length_a   16.09416400
_cell_length_b   6.00535400
_cell_length_c   6.00066140
_cell_angle_alpha   90.00000000
_cell_angle_beta   94.02620755
_cell_angle_gamma   90.00000000
_symmetry_Int_Tables_number   1
_chemical_formula_structural   SrP2(HO)4
_chemical_formula_sum   'Sr4 P8 H16 O16'
_cell_volume   578.53949242
_cell_formula_units_Z   4
loop_
 _symmetry_equiv_pos_site_id
 _symmetry_equiv_pos_as_xyz
  1  'x, y, z'
loop_
 _atom_site_type_symbol
 _atom_site_label
 _atom_site_symmetry_multiplicity
 _atom_site_fract_x
 _atom_site_fract_y
 _atom_site_fract_z
 _atom_site_occupancy
  Sr  Sr0  1  0.00000000  0.74837600  0.25000000  1
  Sr  Sr1  1  0.00000000  0.25162400  0.75000000  1
  Sr  Sr2  1  0.50000000  0.24837600  0.25000000  1
  Sr  Sr3  1  0.50000000  0.75162400  0.75000000  1
  P  P4  1  0.86445800  0.24750800  0.22459200  1
  P  P5  1  0.63554200  0.74750800  0.27540800  1
  P  P6  1  0.63554200  0.25249200  0.77540800  1
  P  P7  1  0.86445800  0.75249200  0.72459200  1
  P  P8  1  0.36445800  0.74750800  0.22459200  1
  P  P9  1  0.13554200  0.24750800  0.27540800  1
  P  P10  1  0.13554200  0.75249200  0.77540800  1
  P  P11  1  0.36445800  0.25249200  0.72459200  1
  H  H12  1  0.69248000  0.12716000  0.65634100  1
  H  H13  1  0.80752000  0.37284000  0.34365900  1
  H  H14  1  0.69248000  0.87284000  0.15634100  1
  H  H15  1  0.80752000  0.62716000  0.84365900  1
  H  H16  1  0.81059850  0.11285050  0.08473600  1
  H  H17  1  0.68940150  0.61285050  0.41526400  1
  H  H18  1  0.81059850  0.88714950  0.58473600  1
  H  H19  1  0.68940150  0.38714950  0.91526400  1
  H  H20  1  0.19248000  0.62716000  0.65634100  1
  H  H21  1  0.30752000  0.87284000  0.34365900  1
  H  H22  1  0.19248000  0.37284000  0.15634100  1
  H  H23  1  0.30752000  0.12716000  0.84365900  1
  H  H24  1  0.31059850  0.61285050  0.08473600  1
  H  H25  1  0.18940150  0.11285050  0.41526400  1
  H  H26  1  0.31059850  0.38714950  0.58473600  1
  H  H27  1  0.18940150  0.88714950  0.91526400  1
  O  O28  1  0.58431400  0.59777800  0.11229300  1
  O  O29  1  0.91568600  0.09777800  0.38770700  1
  O  O30  1  0.91259750  0.59571250  0.57993900  1
  O  O31  1  0.91259750  0.40428750  0.07993900  1
  O  O32  1  0.58740250  0.09571250  0.92006100  1
  O  O33  1  0.58740250  0.90428750  0.42006100  1
  O  O34  1  0.91568600  0.90222200  0.88770700  1
  O  O35  1  0.58431400  0.40222200  0.61229300  1
  O  O36  1  0.08431400  0.09777800  0.11229300  1
  O  O37  1  0.41568600  0.59777800  0.38770700  1
  O  O38  1  0.41259750  0.09571250  0.57993900  1
  O  O39  1  0.41259750  0.90428750  0.07993900  1
  O  O40  1  0.08740250  0.59571250  0.92006100  1
  O  O41  1  0.08740250  0.40428750  0.42006100  1
  O  O42  1  0.41568600  0.40222200  0.88770700  1
  O  O43  1  0.08431400  0.90222200  0.61229300  1
