# generated using pymatgen
data_PbSe
_symmetry_space_group_name_H-M   'P 1'
_cell_length_a   6.23630200
_cell_length_b   6.25088400
_cell_length_c   24.00159800
_cell_angle_alpha   90.00000000
_cell_angle_beta   90.00000000
_cell_angle_gamma   90.00000000
_symmetry_Int_Tables_number   1
_chemical_formula_structural   PbSe
_chemical_formula_sum   'Pb8 Se8'
_cell_volume   935.63990326
_cell_formula_units_Z   8
loop_
 _symmetry_equiv_pos_site_id
 _symmetry_equiv_pos_as_xyz
  1  'x, y, z'
loop_
 _atom_site_type_symbol
 _atom_site_label
 _atom_site_symmetry_multiplicity
 _atom_site_fract_x
 _atom_site_fract_y
 _atom_site_fract_z
 _atom_site_occupancy
  Pb  Pb0  1  0.00000000  0.99799850  0.19273150  1
  Pb  Pb1  1  0.50000000  0.99799850  0.30726850  1
  Pb  Pb2  1  0.00000000  0.49799850  0.69273150  1
  Pb  Pb3  1  0.50000000  0.49799850  0.80726850  1
  Pb  Pb4  1  0.50000000  0.49799850  0.19273150  1
  Pb  Pb5  1  0.00000000  0.49799850  0.30726850  1
  Pb  Pb6  1  0.50000000  0.99799850  0.69273150  1
  Pb  Pb7  1  0.00000000  0.99799850  0.80726850  1
  Se  Se8  1  0.50000000  0.98500200  0.18942100  1
  Se  Se9  1  0.00000000  0.98500200  0.31057900  1
  Se  Se10  1  0.50000000  0.48500200  0.68942100  1
  Se  Se11  1  0.00000000  0.48500200  0.81057900  1
  Se  Se12  1  0.00000000  0.48500200  0.18942100  1
  Se  Se13  1  0.50000000  0.48500200  0.31057900  1
  Se  Se14  1  0.00000000  0.98500200  0.68942100  1
  Se  Se15  1  0.50000000  0.98500200  0.81057900  1
