# generated using pymatgen
data_H5NO5
_symmetry_space_group_name_H-M   'P 1'
_cell_length_a   6.77249700
_cell_length_b   13.00210900
_cell_length_c   11.00674767
_cell_angle_alpha   90.00000000
_cell_angle_beta   119.29252595
_cell_angle_gamma   90.00000000
_symmetry_Int_Tables_number   1
_chemical_formula_structural   H5NO5
_chemical_formula_sum   'H40 N8 O40'
_cell_volume   845.28741934
_cell_formula_units_Z   8
loop_
 _symmetry_equiv_pos_site_id
 _symmetry_equiv_pos_as_xyz
  1  'x, y, z'
loop_
 _atom_site_type_symbol
 _atom_site_label
 _atom_site_symmetry_multiplicity
 _atom_site_fract_x
 _atom_site_fract_y
 _atom_site_fract_z
 _atom_site_occupancy
  H  H0  1  0.27995800  0.22582300  0.04072400  1
  H  H1  1  0.12023900  0.96365200  0.25768800  1
  H  H2  1  0.12023900  0.53634800  0.75768800  1
  H  H3  1  0.87976100  0.46365200  0.24231200  1
  H  H4  1  0.72004200  0.72582300  0.45927600  1
  H  H5  1  0.72004200  0.77417700  0.95927600  1
  H  H6  1  0.27995800  0.27417700  0.54072400  1
  H  H7  1  0.45622900  0.15002500  0.16325100  1
  H  H8  1  0.54377100  0.65002500  0.33674900  1
  H  H9  1  0.54377100  0.84997500  0.83674900  1
  H  H10  1  0.45622900  0.34997500  0.66325100  1
  H  H11  1  0.57499100  0.33390400  0.40442500  1
  H  H12  1  0.42500900  0.83390400  0.09557500  1
  H  H13  1  0.42500900  0.66609600  0.59557500  1
  H  H14  1  0.57499100  0.16609600  0.90442500  1
  H  H15  1  0.42064900  0.28635900  0.23349300  1
  H  H16  1  0.57935100  0.78635900  0.26650700  1
  H  H17  1  0.57935100  0.71364100  0.76650700  1
  H  H18  1  0.42064900  0.21364100  0.73349300  1
  H  H19  1  0.40700600  0.41273400  0.28051700  1
  H  H20  1  0.59299400  0.91273400  0.21948300  1
  H  H21  1  0.59299400  0.58726600  0.71948300  1
  H  H22  1  0.40700600  0.08726600  0.78051700  1
  H  H23  1  0.91161000  0.16872700  0.77531600  1
  H  H24  1  0.87976100  0.03634800  0.74231200  1
  H  H25  1  0.91161000  0.33127300  0.27531600  1
  H  H26  1  0.08839000  0.83127300  0.22468400  1
  H  H27  1  0.08839000  0.66872700  0.72468400  1
  H  H28  1  0.07462600  0.79106400  0.59804700  1
  H  H29  1  0.07462600  0.70893600  0.09804700  1
  H  H30  1  0.92537400  0.20893600  0.40195300  1
  H  H31  1  0.06211100  0.31272900  0.82332900  1
  H  H32  1  0.93788900  0.81272900  0.67667100  1
  H  H33  1  0.93788900  0.68727100  0.17667100  1
  H  H34  1  0.06211100  0.18727100  0.32332900  1
  H  H35  1  0.79183100  0.12080800  0.60860600  1
  H  H36  1  0.20816900  0.62080800  0.89139400  1
  H  H37  1  0.20816900  0.87919200  0.39139400  1
  H  H38  1  0.79183100  0.37919200  0.10860600  1
  H  H39  1  0.92537400  0.29106400  0.90195300  1
  N  N40  1  0.88465700  0.41848000  0.59551900  1
  N  N41  1  0.11534300  0.91848000  0.90448100  1
  N  N42  1  0.11534300  0.58152000  0.40448100  1
  N  N43  1  0.88465700  0.08152000  0.09551900  1
  N  N44  1  0.69990100  0.03915100  0.39593100  1
  N  N45  1  0.30009900  0.53915100  0.10406900  1
  N  N46  1  0.30009900  0.96084900  0.60406900  1
  N  N47  1  0.69990100  0.46084900  0.89593100  1
  O  O48  1  0.41664900  0.22217600  0.13400500  1
  O  O49  1  0.58335100  0.72217600  0.36599500  1
  O  O50  1  0.58335100  0.77782400  0.86599500  1
  O  O51  1  0.42488300  0.33845100  0.31334400  1
  O  O52  1  0.57511700  0.83845100  0.18665600  1
  O  O53  1  0.57511700  0.66154900  0.68665600  1
  O  O54  1  0.42488300  0.16154900  0.81334400  1
  O  O55  1  0.79695000  0.49831300  0.52912200  1
  O  O56  1  0.20305000  0.99831300  0.97087800  1
  O  O57  1  0.20305000  0.50168700  0.47087800  1
  O  O58  1  0.79695000  0.00168700  0.02912200  1
  O  O59  1  0.80982700  0.32939300  0.54749600  1
  O  O60  1  0.19017300  0.82939300  0.95250400  1
  O  O61  1  0.19017300  0.67060700  0.45250400  1
  O  O62  1  0.80982700  0.17060700  0.04749600  1
  O  O63  1  0.05903700  0.42325100  0.71919300  1
  O  O64  1  0.94096300  0.92325100  0.78080700  1
  O  O65  1  0.94096300  0.57674900  0.28080700  1
  O  O66  1  0.05903700  0.07674900  0.21919300  1
  O  O67  1  0.02995700  0.25820600  0.87482000  1
  O  O68  1  0.97004300  0.75820600  0.62518000  1
  O  O69  1  0.97004300  0.74179400  0.12518000  1
  O  O70  1  0.02995700  0.24179400  0.37482000  1
  O  O71  1  0.81831000  0.10986200  0.70744400  1
  O  O72  1  0.18169000  0.60986200  0.79255600  1
  O  O73  1  0.18169000  0.89013800  0.29255600  1
  O  O74  1  0.81831000  0.39013800  0.20744400  1
  O  O75  1  0.73659400  0.96112400  0.46866000  1
  O  O76  1  0.26340600  0.46112400  0.03134000  1
  O  O77  1  0.26340600  0.03887600  0.53134000  1
  O  O78  1  0.73659400  0.53887600  0.96866000  1
  O  O79  1  0.73974300  0.12969200  0.45043500  1
  O  O80  1  0.26025700  0.62969200  0.04956500  1
  O  O81  1  0.26025700  0.87030800  0.54956500  1
  O  O82  1  0.73974300  0.37030800  0.95043500  1
  O  O83  1  0.62136400  0.03292600  0.26410800  1
  O  O84  1  0.37863600  0.53292600  0.23589200  1
  O  O85  1  0.37863600  0.96707400  0.73589200  1
  O  O86  1  0.62136400  0.46707400  0.76410800  1
  O  O87  1  0.41664900  0.27782400  0.63400500  1
