# generated using pymatgen
data_XeIF7
_symmetry_space_group_name_H-M   'P 1'
_cell_length_a   7.85094800
_cell_length_b   7.85094800
_cell_length_c   11.26528600
_cell_angle_alpha   90.00000000
_cell_angle_beta   90.00000000
_cell_angle_gamma   90.00000000
_symmetry_Int_Tables_number   1
_chemical_formula_structural   XeIF7
_chemical_formula_sum   'Xe4 I4 F28'
_cell_volume   694.36276467
_cell_formula_units_Z   4
loop_
 _symmetry_equiv_pos_site_id
 _symmetry_equiv_pos_as_xyz
  1  'x, y, z'
loop_
 _atom_site_type_symbol
 _atom_site_label
 _atom_site_symmetry_multiplicity
 _atom_site_fract_x
 _atom_site_fract_y
 _atom_site_fract_z
 _atom_site_occupancy
  Xe  Xe0  1  0.00000000  0.50000000  0.00000000  1
  Xe  Xe1  1  0.50000000  0.00000000  0.00000000  1
  Xe  Xe2  1  0.50000000  0.00000000  0.50000000  1
  Xe  Xe3  1  0.00000000  0.50000000  0.50000000  1
  I  I4  1  0.00000000  0.00000000  0.28659200  1
  I  I5  1  0.50000000  0.50000000  0.21340800  1
  I  I6  1  0.50000000  0.50000000  0.78659200  1
  I  I7  1  0.00000000  0.00000000  0.71340800  1
  F  F8  1  0.59372500  0.75095400  0.00000000  1
  F  F9  1  0.75095400  0.40627500  0.00000000  1
  F  F10  1  0.24904600  0.59372500  0.00000000  1
  F  F11  1  0.40627500  0.24904600  0.00000000  1
  F  F12  1  0.50000000  0.50000000  0.37952700  1
  F  F13  1  0.00000000  0.00000000  0.12047300  1
  F  F14  1  0.73477100  0.55982800  0.24003900  1
  F  F15  1  0.55982800  0.26522900  0.24003900  1
  F  F16  1  0.44017200  0.73477100  0.24003900  1
  F  F17  1  0.26522900  0.44017200  0.24003900  1
  F  F18  1  0.76522900  0.94017200  0.25996100  1
  F  F19  1  0.94017200  0.23477100  0.25996100  1
  F  F20  1  0.05982800  0.76522900  0.25996100  1
  F  F21  1  0.23477100  0.05982800  0.25996100  1
  F  F22  1  0.09372500  0.25095400  0.50000000  1
  F  F23  1  0.25095400  0.90627500  0.50000000  1
  F  F24  1  0.74904600  0.09372500  0.50000000  1
  F  F25  1  0.90627500  0.74904600  0.50000000  1
  F  F26  1  0.00000000  0.00000000  0.87952700  1
  F  F27  1  0.50000000  0.50000000  0.62047300  1
  F  F28  1  0.23477100  0.05982800  0.74003900  1
  F  F29  1  0.05982800  0.76522900  0.74003900  1
  F  F30  1  0.94017200  0.23477100  0.74003900  1
  F  F31  1  0.76522900  0.94017200  0.74003900  1
  F  F32  1  0.26522900  0.44017200  0.75996100  1
  F  F33  1  0.44017200  0.73477100  0.75996100  1
  F  F34  1  0.55982800  0.26522900  0.75996100  1
  F  F35  1  0.73477100  0.55982800  0.75996100  1
