# generated using pymatgen
data_InPO4
_symmetry_space_group_name_H-M   'P 1'
_cell_length_a   4.88522800
_cell_length_b   7.03001500
_cell_length_c   9.01600100
_cell_angle_alpha   90.00000000
_cell_angle_beta   90.00000000
_cell_angle_gamma   90.00000000
_symmetry_Int_Tables_number   1
_chemical_formula_structural   InPO4
_chemical_formula_sum   'In4 P4 O16'
_cell_volume   309.63856103
_cell_formula_units_Z   4
loop_
 _symmetry_equiv_pos_site_id
 _symmetry_equiv_pos_as_xyz
  1  'x, y, z'
loop_
 _atom_site_type_symbol
 _atom_site_label
 _atom_site_symmetry_multiplicity
 _atom_site_fract_x
 _atom_site_fract_y
 _atom_site_fract_z
 _atom_site_occupancy
  In  In0  1  0.50000000  0.50000000  0.50000000  1
  In  In1  1  0.00000000  0.50000000  0.00000000  1
  In  In2  1  0.50000000  0.00000000  0.50000000  1
  In  In3  1  0.00000000  0.00000000  0.00000000  1
  P  P4  1  0.98226300  0.75000000  0.32378200  1
  P  P5  1  0.48226300  0.25000000  0.17621800  1
  P  P6  1  0.01773700  0.25000000  0.67621800  1
  P  P7  1  0.51773700  0.75000000  0.82378200  1
  O  O8  1  0.15290900  0.43498500  0.62463400  1
  O  O9  1  0.65290900  0.56501500  0.87536600  1
  O  O10  1  0.84709100  0.93498500  0.37536600  1
  O  O11  1  0.34709100  0.06501500  0.12463400  1
  O  O12  1  0.84709100  0.56501500  0.37536600  1
  O  O13  1  0.34709100  0.43498500  0.12463400  1
  O  O14  1  0.15290900  0.06501500  0.62463400  1
  O  O15  1  0.65290900  0.93498500  0.87536600  1
  O  O16  1  0.21222000  0.75000000  0.87842400  1
  O  O17  1  0.71222000  0.25000000  0.62157600  1
  O  O18  1  0.78778000  0.25000000  0.12157600  1
  O  O19  1  0.28778000  0.75000000  0.37842400  1
  O  O20  1  0.53653700  0.75000000  0.64843500  1
  O  O21  1  0.03653700  0.25000000  0.85156500  1
  O  O22  1  0.46346300  0.25000000  0.35156500  1
  O  O23  1  0.96346300  0.75000000  0.14843500  1
