# generated using pymatgen
data_TlInSe2
_symmetry_space_group_name_H-M   'P 1'
_cell_length_a   8.25537600
_cell_length_b   8.25537600
_cell_length_c   6.99080000
_cell_angle_alpha   90.00000000
_cell_angle_beta   90.00000000
_cell_angle_gamma   90.00000000
_symmetry_Int_Tables_number   1
_chemical_formula_structural   TlInSe2
_chemical_formula_sum   'Tl4 In4 Se8'
_cell_volume   476.43163897
_cell_formula_units_Z   4
loop_
 _symmetry_equiv_pos_site_id
 _symmetry_equiv_pos_as_xyz
  1  'x, y, z'
loop_
 _atom_site_type_symbol
 _atom_site_label
 _atom_site_symmetry_multiplicity
 _atom_site_fract_x
 _atom_site_fract_y
 _atom_site_fract_z
 _atom_site_occupancy
  Tl  Tl0  1  0.00000000  0.00000000  0.75000000  1
  Tl  Tl1  1  0.00000000  0.00000000  0.25000000  1
  Tl  Tl2  1  0.50000000  0.50000000  0.25000000  1
  Tl  Tl3  1  0.50000000  0.50000000  0.75000000  1
  In  In4  1  0.00000000  0.50000000  0.25000000  1
  In  In5  1  0.50000000  0.00000000  0.25000000  1
  In  In6  1  0.50000000  0.00000000  0.75000000  1
  In  In7  1  0.00000000  0.50000000  0.75000000  1
  Se  Se8  1  0.67071950  0.17071950  0.00000000  1
  Se  Se9  1  0.82928050  0.32928050  0.50000000  1
  Se  Se10  1  0.32928050  0.17071950  0.50000000  1
  Se  Se11  1  0.17071950  0.32928050  0.00000000  1
  Se  Se12  1  0.17071950  0.67071950  0.50000000  1
  Se  Se13  1  0.32928050  0.82928050  0.00000000  1
  Se  Se14  1  0.82928050  0.67071950  0.00000000  1
  Se  Se15  1  0.67071950  0.82928050  0.50000000  1
