# generated using pymatgen
data_Na2PtO2
_symmetry_space_group_name_H-M   'P 1'
_cell_length_a   3.18054200
_cell_length_b   4.63834400
_cell_length_c   9.60701200
_cell_angle_alpha   90.00000000
_cell_angle_beta   90.00000000
_cell_angle_gamma   90.00000000
_symmetry_Int_Tables_number   1
_chemical_formula_structural   Na2PtO2
_chemical_formula_sum   'Na4 Pt2 O4'
_cell_volume   141.72694403
_cell_formula_units_Z   2
loop_
 _symmetry_equiv_pos_site_id
 _symmetry_equiv_pos_as_xyz
  1  'x, y, z'
loop_
 _atom_site_type_symbol
 _atom_site_label
 _atom_site_symmetry_multiplicity
 _atom_site_fract_x
 _atom_site_fract_y
 _atom_site_fract_z
 _atom_site_occupancy
  Na  Na0  1  0.00000000  0.00000000  0.67748300  1
  Na  Na1  1  0.50000000  0.50000000  0.82251700  1
  Na  Na2  1  0.50000000  0.50000000  0.17748300  1
  Na  Na3  1  0.00000000  0.00000000  0.32251700  1
  Pt  Pt4  1  0.00000000  0.00000000  0.00000000  1
  Pt  Pt5  1  0.50000000  0.50000000  0.50000000  1
  O  O6  1  0.50000000  0.00000000  0.86136900  1
  O  O7  1  0.00000000  0.50000000  0.63863100  1
  O  O8  1  0.00000000  0.50000000  0.36136900  1
  O  O9  1  0.50000000  0.00000000  0.13863100  1
