# generated using pymatgen
data_CaP2H6O7
_symmetry_space_group_name_H-M   'P 1'
_cell_length_a   6.83746700
_cell_length_b   7.12946647
_cell_length_c   8.16158039
_cell_angle_alpha   68.54981452
_cell_angle_beta   84.91720379
_cell_angle_gamma   84.22361489
_symmetry_Int_Tables_number   1
_chemical_formula_structural   CaP2H6O7
_chemical_formula_sum   'Ca2 P4 H12 O14'
_cell_volume   367.84245828
_cell_formula_units_Z   2
loop_
 _symmetry_equiv_pos_site_id
 _symmetry_equiv_pos_as_xyz
  1  'x, y, z'
loop_
 _atom_site_type_symbol
 _atom_site_label
 _atom_site_symmetry_multiplicity
 _atom_site_fract_x
 _atom_site_fract_y
 _atom_site_fract_z
 _atom_site_occupancy
  Ca  Ca0  1  0.64081000  0.63191100  0.26373300  1
  Ca  Ca1  1  0.35919000  0.36808900  0.73626700  1
  P  P2  1  0.74398300  0.09729900  0.30940000  1
  P  P3  1  0.25601700  0.90270100  0.69060000  1
  P  P4  1  0.18670700  0.54390100  0.28300200  1
  P  P5  1  0.81329300  0.45609900  0.71699800  1
  H  H6  1  0.17553400  0.14056000  0.10933200  1
  H  H7  1  0.82446600  0.85944000  0.89066800  1
  H  H8  1  0.40568000  0.10906000  0.12673200  1
  H  H9  1  0.59432000  0.89094000  0.87326800  1
  H  H10  1  0.98022700  0.88149000  0.26437600  1
  H  H11  1  0.01977300  0.11851000  0.73562400  1
  H  H12  1  0.73812700  0.07130200  0.48897100  1
  H  H13  1  0.26187300  0.92869800  0.51102900  1
  H  H14  1  0.14899000  0.34698700  0.30058300  1
  H  H15  1  0.85101000  0.65301300  0.69941700  1
  H  H16  1  0.30262800  0.63598400  0.98858000  1
  H  H17  1  0.69737200  0.36401600  0.01142000  1
  O  O18  1  0.31166600  0.53962600  0.42976600  1
  O  O19  1  0.71385300  0.32469500  0.20627300  1
  O  O20  1  0.39929300  0.03628700  0.71937800  1
  O  O21  1  0.60070700  0.96371300  0.28062200  1
  O  O22  1  0.03500400  0.97247400  0.73688000  1
  O  O23  1  0.96499600  0.02752600  0.26312000  1
  O  O24  1  0.69840100  0.81523200  0.95415900  1
  O  O25  1  0.30159900  0.18476800  0.04584100  1
  O  O26  1  0.98915700  0.66798300  0.26165100  1
  O  O27  1  0.01084300  0.33201700  0.73834900  1
  O  O28  1  0.33305700  0.62467300  0.11416300  1
  O  O29  1  0.66694300  0.37532700  0.88583700  1
  O  O30  1  0.28614700  0.67530500  0.79372700  1
  O  O31  1  0.68833400  0.46037400  0.57023400  1
