# generated using pymatgen
data_ScCl3
_symmetry_space_group_name_H-M   'P 1'
_cell_length_a   6.49323411
_cell_length_b   6.49323411
_cell_length_c   19.32475276
_cell_angle_alpha   90.00000000
_cell_angle_beta   90.00000000
_cell_angle_gamma   120.00000000
_symmetry_Int_Tables_number   1
_chemical_formula_structural   ScCl3
_chemical_formula_sum   'Sc6 Cl18'
_cell_volume   705.61320721
_cell_formula_units_Z   6
loop_
 _symmetry_equiv_pos_site_id
 _symmetry_equiv_pos_as_xyz
  1  'x, y, z'
loop_
 _atom_site_type_symbol
 _atom_site_label
 _atom_site_symmetry_multiplicity
 _atom_site_fract_x
 _atom_site_fract_y
 _atom_site_fract_z
 _atom_site_occupancy
  Sc  Sc0  1  0.33333333  0.66666667  0.33273067  1
  Sc  Sc1  1  0.33333333  0.66666667  0.00060267  1
  Sc  Sc2  1  0.00000000  0.00000000  0.66606400  1
  Sc  Sc3  1  0.00000000  0.00000000  0.33393600  1
  Sc  Sc4  1  0.66666667  0.33333333  0.99939733  1
  Sc  Sc5  1  0.66666667  0.33333333  0.66726933  1
  Cl  Cl6  1  0.66724267  0.70295633  0.25902233  1
  Cl  Cl7  1  0.29704367  0.96428633  0.25902233  1
  Cl  Cl8  1  0.63095300  0.00057600  0.07431100  1
  Cl  Cl9  1  0.36962300  0.36904700  0.07431100  1
  Cl  Cl10  1  0.99942400  0.63037700  0.07431100  1
  Cl  Cl11  1  0.03571367  0.33275733  0.25902233  1
  Cl  Cl12  1  0.33390933  0.03628967  0.59235567  1
  Cl  Cl13  1  0.96371033  0.29761967  0.59235567  1
  Cl  Cl14  1  0.29761967  0.33390933  0.40764433  1
  Cl  Cl15  1  0.03628967  0.70238033  0.40764433  1
  Cl  Cl16  1  0.66609067  0.96371033  0.40764433  1
  Cl  Cl17  1  0.70238033  0.66609067  0.59235567  1
  Cl  Cl18  1  0.00057600  0.36962300  0.92568900  1
  Cl  Cl19  1  0.63037700  0.63095300  0.92568900  1
  Cl  Cl20  1  0.96428633  0.66724267  0.74097767  1
  Cl  Cl21  1  0.70295633  0.03571367  0.74097767  1
  Cl  Cl22  1  0.33275733  0.29704367  0.74097767  1
  Cl  Cl23  1  0.36904700  0.99942400  0.92568900  1
