# generated using pymatgen
data_BiF5
_symmetry_space_group_name_H-M   'P 1'
_cell_length_a   6.91612400
_cell_length_b   6.91612400
_cell_length_c   4.35495600
_cell_angle_alpha   90.00000000
_cell_angle_beta   90.00000000
_cell_angle_gamma   90.00000000
_symmetry_Int_Tables_number   1
_chemical_formula_structural   BiF5
_chemical_formula_sum   'Bi2 F10'
_cell_volume   208.30961386
_cell_formula_units_Z   2
loop_
 _symmetry_equiv_pos_site_id
 _symmetry_equiv_pos_as_xyz
  1  'x, y, z'
loop_
 _atom_site_type_symbol
 _atom_site_label
 _atom_site_symmetry_multiplicity
 _atom_site_fract_x
 _atom_site_fract_y
 _atom_site_fract_z
 _atom_site_occupancy
  Bi  Bi0  1  0.00000000  0.00000000  0.00000000  1
  Bi  Bi1  1  0.50000000  0.50000000  0.50000000  1
  F  F2  1  0.40640200  0.77543500  0.50000000  1
  F  F3  1  0.00000000  0.00000000  0.50000000  1
  F  F4  1  0.59359800  0.22456500  0.50000000  1
  F  F5  1  0.27543500  0.09359800  0.00000000  1
  F  F6  1  0.72456500  0.90640200  0.00000000  1
  F  F7  1  0.90640200  0.27543500  0.00000000  1
  F  F8  1  0.50000000  0.50000000  0.00000000  1
  F  F9  1  0.09359800  0.72456500  0.00000000  1
  F  F10  1  0.77543500  0.59359800  0.50000000  1
  F  F11  1  0.22456500  0.40640200  0.50000000  1
