# generated using pymatgen
data_TeRhCl
_symmetry_space_group_name_H-M   'P 1'
_cell_length_a   13.61057200
_cell_length_b   3.71958600
_cell_length_c   6.75684004
_cell_angle_alpha   90.00000000
_cell_angle_beta   117.65279085
_cell_angle_gamma   90.00000000
_symmetry_Int_Tables_number   1
_chemical_formula_structural   TeRhCl
_chemical_formula_sum   'Te4 Rh4 Cl4'
_cell_volume   302.99725364
_cell_formula_units_Z   4
loop_
 _symmetry_equiv_pos_site_id
 _symmetry_equiv_pos_as_xyz
  1  'x, y, z'
loop_
 _atom_site_type_symbol
 _atom_site_label
 _atom_site_symmetry_multiplicity
 _atom_site_fract_x
 _atom_site_fract_y
 _atom_site_fract_z
 _atom_site_occupancy
  Te  Te0  1  0.14020200  0.00000000  0.47262600  1
  Te  Te1  1  0.35979800  0.50000000  0.52737400  1
  Te  Te2  1  0.64020200  0.50000000  0.47262600  1
  Te  Te3  1  0.85979800  0.00000000  0.52737400  1
  Rh  Rh4  1  0.24922500  0.50000000  0.75315300  1
  Rh  Rh5  1  0.25077500  0.00000000  0.24684700  1
  Rh  Rh6  1  0.74922500  0.00000000  0.75315300  1
  Rh  Rh7  1  0.75077500  0.50000000  0.24684700  1
  Cl  Cl8  1  0.13756400  0.50000000  0.96818500  1
  Cl  Cl9  1  0.36243600  0.00000000  0.03181500  1
  Cl  Cl10  1  0.63756400  0.00000000  0.96818500  1
  Cl  Cl11  1  0.86243600  0.50000000  0.03181500  1
