# generated using pymatgen
data_Tl2SnTe5
_symmetry_space_group_name_H-M   'P 1'
_cell_length_a   8.54806000
_cell_length_b   8.54806000
_cell_length_c   15.33455600
_cell_angle_alpha   90.00000000
_cell_angle_beta   90.00000000
_cell_angle_gamma   90.00000000
_symmetry_Int_Tables_number   1
_chemical_formula_structural   Tl2SnTe5
_chemical_formula_sum   'Tl8 Sn4 Te20'
_cell_volume   1120.48572914
_cell_formula_units_Z   4
loop_
 _symmetry_equiv_pos_site_id
 _symmetry_equiv_pos_as_xyz
  1  'x, y, z'
loop_
 _atom_site_type_symbol
 _atom_site_label
 _atom_site_symmetry_multiplicity
 _atom_site_fract_x
 _atom_site_fract_y
 _atom_site_fract_z
 _atom_site_occupancy
  Tl  Tl0  1  0.50000000  0.50000000  0.00000000  1
  Tl  Tl1  1  0.00000000  0.00000000  0.00000000  1
  Tl  Tl2  1  0.50000000  0.50000000  0.25000000  1
  Tl  Tl3  1  0.00000000  0.00000000  0.25000000  1
  Tl  Tl4  1  0.00000000  0.00000000  0.50000000  1
  Tl  Tl5  1  0.50000000  0.50000000  0.50000000  1
  Tl  Tl6  1  0.00000000  0.00000000  0.75000000  1
  Tl  Tl7  1  0.50000000  0.50000000  0.75000000  1
  Sn  Sn8  1  0.50000000  0.00000000  0.25000000  1
  Sn  Sn9  1  0.00000000  0.50000000  0.25000000  1
  Sn  Sn10  1  0.00000000  0.50000000  0.75000000  1
  Sn  Sn11  1  0.50000000  0.00000000  0.75000000  1
  Te  Te12  1  0.00000000  0.50000000  0.00000000  1
  Te  Te13  1  0.50000000  0.00000000  0.00000000  1
  Te  Te14  1  0.68371100  0.18371100  0.13499000  1
  Te  Te15  1  0.81628900  0.68371100  0.13499000  1
  Te  Te16  1  0.18371100  0.31628900  0.13499000  1
  Te  Te17  1  0.68371100  0.81628900  0.36501000  1
  Te  Te18  1  0.31628900  0.18371100  0.36501000  1
  Te  Te19  1  0.18371100  0.68371100  0.36501000  1
  Te  Te20  1  0.81628900  0.31628900  0.36501000  1
  Te  Te21  1  0.31628900  0.81628900  0.13499000  1
  Te  Te22  1  0.50000000  0.00000000  0.50000000  1
  Te  Te23  1  0.00000000  0.50000000  0.50000000  1
  Te  Te24  1  0.18371100  0.68371100  0.63499000  1
  Te  Te25  1  0.31628900  0.18371100  0.63499000  1
  Te  Te26  1  0.68371100  0.81628900  0.63499000  1
  Te  Te27  1  0.18371100  0.31628900  0.86501000  1
  Te  Te28  1  0.81628900  0.68371100  0.86501000  1
  Te  Te29  1  0.68371100  0.18371100  0.86501000  1
  Te  Te30  1  0.31628900  0.81628900  0.86501000  1
  Te  Te31  1  0.81628900  0.31628900  0.63499000  1
