# generated using pymatgen
data_ZnH6(CO3)2
_symmetry_space_group_name_H-M   'P 1'
_cell_length_a   8.81754900
_cell_length_b   7.24041800
_cell_length_c   9.37525061
_cell_angle_alpha   90.00000000
_cell_angle_beta   97.50046994
_cell_angle_gamma   90.00000000
_symmetry_Int_Tables_number   1
_chemical_formula_structural   ZnH6(CO3)2
_chemical_formula_sum   'Zn4 H24 C8 O24'
_cell_volume   593.42044356
_cell_formula_units_Z   4
loop_
 _symmetry_equiv_pos_site_id
 _symmetry_equiv_pos_as_xyz
  1  'x, y, z'
loop_
 _atom_site_type_symbol
 _atom_site_label
 _atom_site_symmetry_multiplicity
 _atom_site_fract_x
 _atom_site_fract_y
 _atom_site_fract_z
 _atom_site_occupancy
  Zn  Zn0  1  0.50000000  0.00000000  0.50000000  1
  Zn  Zn1  1  0.50000000  0.50000000  0.00000000  1
  Zn  Zn2  1  0.00000000  0.50000000  0.50000000  1
  Zn  Zn3  1  0.00000000  0.00000000  0.00000000  1
  H  H4  1  0.69544900  0.90125300  0.73537000  1
  H  H5  1  0.30455100  0.40125300  0.76463000  1
  H  H6  1  0.30455100  0.09874700  0.26463000  1
  H  H7  1  0.69544900  0.59874700  0.23537000  1
  H  H8  1  0.52951100  0.84892400  0.77712400  1
  H  H9  1  0.47048900  0.34892400  0.72287600  1
  H  H10  1  0.47048900  0.15107600  0.22287600  1
  H  H11  1  0.52951100  0.65107600  0.27712400  1
  H  H12  1  0.23748700  0.89727900  0.54812800  1
  H  H13  1  0.76251300  0.39727900  0.95187200  1
  H  H14  1  0.76251300  0.10272100  0.45187200  1
  H  H15  1  0.23748700  0.60272100  0.04812800  1
  H  H16  1  0.21551300  0.11237800  0.51046800  1
  H  H17  1  0.78448700  0.61237800  0.98953200  1
  H  H18  1  0.78448700  0.88762200  0.48953200  1
  H  H19  1  0.21551300  0.38762200  0.01046800  1
  H  H20  1  0.05743300  0.80059100  0.27934200  1
  H  H21  1  0.94256700  0.30059100  0.22065800  1
  H  H22  1  0.94256700  0.19940900  0.72065800  1
  H  H23  1  0.05743300  0.69940900  0.77934200  1
  H  H24  1  0.67988200  0.52419900  0.61007800  1
  H  H25  1  0.32011800  0.02419900  0.88992200  1
  H  H26  1  0.32011800  0.47580100  0.38992200  1
  H  H27  1  0.67988200  0.97580100  0.11007800  1
  C  C28  1  0.95649800  0.72664500  0.22566000  1
  C  C29  1  0.04350200  0.22664500  0.27434000  1
  C  C30  1  0.04350200  0.27335500  0.77434000  1
  C  C31  1  0.95649800  0.77335500  0.72566000  1
  C  C32  1  0.67981600  0.11774200  0.06659400  1
  C  C33  1  0.32018400  0.61774200  0.43340600  1
  C  C34  1  0.32018400  0.88225800  0.93340600  1
  C  C35  1  0.67981600  0.38225800  0.56659400  1
  O  O36  1  0.58736500  0.87989000  0.69567700  1
  O  O37  1  0.41263500  0.37989000  0.80432300  1
  O  O38  1  0.41263500  0.12011000  0.30432300  1
  O  O39  1  0.58736500  0.62011000  0.19567700  1
  O  O40  1  0.28127600  0.02290000  0.57057700  1
  O  O41  1  0.71872400  0.52290000  0.92942300  1
  O  O42  1  0.71872400  0.97710000  0.42942300  1
  O  O43  1  0.28127600  0.47710000  0.07057700  1
  O  O44  1  0.90555300  0.77262900  0.09716100  1
  O  O45  1  0.09444700  0.27262900  0.40283900  1
  O  O46  1  0.09444700  0.22737100  0.90283900  1
  O  O47  1  0.90555300  0.72737100  0.59716100  1
  O  O48  1  0.89685500  0.60092500  0.29475200  1
  O  O49  1  0.10314500  0.10092500  0.20524800  1
  O  O50  1  0.10314500  0.39907500  0.70524800  1
  O  O51  1  0.89685500  0.89907500  0.79475200  1
  O  O52  1  0.56701100  0.27993500  0.58421000  1
  O  O53  1  0.43298900  0.77993500  0.91579000  1
  O  O54  1  0.43298900  0.72006500  0.41579000  1
  O  O55  1  0.56701100  0.22006500  0.08421000  1
  O  O56  1  0.79362500  0.33301200  0.50352700  1
  O  O57  1  0.20637500  0.83301200  0.99647300  1
  O  O58  1  0.20637500  0.66698800  0.49647300  1
  O  O59  1  0.79362500  0.16698800  0.00352700  1
