# generated using pymatgen
data_Al10Si2O19
_symmetry_space_group_name_H-M   'P 1'
_cell_length_a   5.91942800
_cell_length_b   30.29156000
_cell_length_c   7.68831300
_cell_angle_alpha   90.00000000
_cell_angle_beta   90.00000000
_cell_angle_gamma   90.00000000
_symmetry_Int_Tables_number   1
_chemical_formula_structural   Al10Si2O19
_chemical_formula_sum   'Al40 Si8 O76'
_cell_volume   1378.58147402
_cell_formula_units_Z   4
loop_
 _symmetry_equiv_pos_site_id
 _symmetry_equiv_pos_as_xyz
  1  'x, y, z'
loop_
 _atom_site_type_symbol
 _atom_site_label
 _atom_site_symmetry_multiplicity
 _atom_site_fract_x
 _atom_site_fract_y
 _atom_site_fract_z
 _atom_site_occupancy
  Al  Al0  1  0.24276600  0.94068500  0.99318100  1
  Al  Al1  1  0.25723400  0.55931500  0.49318100  1
  Al  Al2  1  0.75723400  0.94068500  0.99318100  1
  Al  Al3  1  0.74276600  0.55931500  0.49318100  1
  Al  Al4  1  0.50000000  0.52972500  0.83867000  1
  Al  Al5  1  0.00000000  0.97027500  0.33867000  1
  Al  Al6  1  0.00000000  0.52452300  0.82022800  1
  Al  Al7  1  0.50000000  0.97547700  0.32022800  1
  Al  Al8  1  0.00000000  0.78088700  0.82432900  1
  Al  Al9  1  0.50000000  0.71911300  0.32432900  1
  Al  Al10  1  0.00000000  0.85512700  0.18876200  1
  Al  Al11  1  0.50000000  0.64487300  0.68876200  1
  Al  Al12  1  0.00000000  0.60126700  0.16286900  1
  Al  Al13  1  0.50000000  0.89873300  0.66286900  1
  Al  Al14  1  0.50000000  0.60160000  0.16976100  1
  Al  Al15  1  0.00000000  0.89840000  0.66976100  1
  Al  Al16  1  0.74633950  0.81106650  0.50839000  1
  Al  Al17  1  0.75366050  0.68893350  0.00839000  1
  Al  Al18  1  0.25366050  0.81106650  0.50839000  1
  Al  Al19  1  0.24633950  0.68893350  0.00839000  1
  Al  Al20  1  0.74276600  0.44068500  0.99318100  1
  Al  Al21  1  0.75723400  0.05931500  0.49318100  1
  Al  Al22  1  0.25723400  0.44068500  0.99318100  1
  Al  Al23  1  0.24276600  0.05931500  0.49318100  1
  Al  Al24  1  0.00000000  0.02972500  0.83867000  1
  Al  Al25  1  0.50000000  0.47027500  0.33867000  1
  Al  Al26  1  0.50000000  0.02452300  0.82022800  1
  Al  Al27  1  0.00000000  0.47547700  0.32022800  1
  Al  Al28  1  0.50000000  0.28088700  0.82432900  1
  Al  Al29  1  0.00000000  0.21911300  0.32432900  1
  Al  Al30  1  0.50000000  0.35512700  0.18876200  1
  Al  Al31  1  0.00000000  0.14487300  0.68876200  1
  Al  Al32  1  0.50000000  0.10126700  0.16286900  1
  Al  Al33  1  0.00000000  0.39873300  0.66286900  1
  Al  Al34  1  0.00000000  0.10160000  0.16976100  1
  Al  Al35  1  0.50000000  0.39840000  0.66976100  1
  Al  Al36  1  0.24633950  0.31106650  0.50839000  1
  Al  Al37  1  0.25366050  0.18893350  0.00839000  1
  Al  Al38  1  0.75366050  0.31106650  0.50839000  1
  Al  Al39  1  0.74633950  0.18893350  0.00839000  1
  Si  Si40  1  0.00000000  0.61929300  0.78410200  1
  Si  Si41  1  0.50000000  0.88070700  0.28410200  1
  Si  Si42  1  0.00000000  0.75744100  0.18588000  1
  Si  Si43  1  0.50000000  0.74255900  0.68588000  1
  Si  Si44  1  0.50000000  0.11929300  0.78410200  1
  Si  Si45  1  0.00000000  0.38070700  0.28410200  1
  Si  Si46  1  0.50000000  0.25744100  0.18588000  1
  Si  Si47  1  0.00000000  0.24255900  0.68588000  1
  O  O48  1  0.00000000  0.92368400  0.47105300  1
  O  O49  1  0.50000000  0.57631600  0.97105300  1
  O  O50  1  0.50000000  0.69617700  0.55293300  1
  O  O51  1  0.00000000  0.80382300  0.05293300  1
  O  O52  1  0.50000000  0.92039700  0.43856500  1
  O  O53  1  0.00000000  0.57960300  0.93856500  1
  O  O54  1  0.25307450  0.53153450  0.70991000  1
  O  O55  1  0.24692550  0.96846550  0.20991000  1
  O  O56  1  0.74692550  0.53153450  0.70991000  1
  O  O57  1  0.75307450  0.96846550  0.20991000  1
  O  O58  1  0.74366050  0.77059550  0.70344600  1
  O  O59  1  0.75633950  0.72940450  0.20344600  1
  O  O60  1  0.25633950  0.77059550  0.70344600  1
  O  O61  1  0.24366050  0.72940450  0.20344600  1
  O  O62  1  0.73234600  0.84911000  0.30691900  1
  O  O63  1  0.76765400  0.65089000  0.80691900  1
  O  O64  1  0.26765400  0.84911000  0.30691900  1
  O  O65  1  0.23234600  0.65089000  0.80691900  1
  O  O66  1  0.75522650  0.59143850  0.28028000  1
  O  O67  1  0.74477350  0.90856150  0.78028000  1
  O  O68  1  0.24477350  0.59143850  0.28028000  1
  O  O69  1  0.25522650  0.90856150  0.78028000  1
  O  O70  1  0.00000000  0.97532200  0.91921300  1
  O  O71  1  0.50000000  0.52467800  0.41921300  1
  O  O72  1  0.00000000  0.83604800  0.63849600  1
  O  O73  1  0.50000000  0.66395200  0.13849600  1
  O  O74  1  0.50000000  0.84292300  0.59516400  1
  O  O75  1  0.00000000  0.65707700  0.09516400  1
  O  O76  1  0.00000000  0.59880400  0.59037000  1
  O  O77  1  0.50000000  0.90119600  0.09037000  1
  O  O78  1  0.50000000  0.59813200  0.56521200  1
  O  O79  1  0.00000000  0.90186800  0.06521200  1
  O  O80  1  0.00000000  0.78400700  0.38164100  1
  O  O81  1  0.50000000  0.71599300  0.88164100  1
  O  O82  1  0.50000000  0.77140500  0.44680300  1
  O  O83  1  0.00000000  0.72859500  0.94680300  1
  O  O84  1  0.00000000  0.52580300  0.42669500  1
  O  O85  1  0.50000000  0.97419700  0.92669500  1
  O  O86  1  0.50000000  0.42368400  0.47105300  1
  O  O87  1  0.00000000  0.07631600  0.97105300  1
  O  O88  1  0.00000000  0.19617700  0.55293300  1
  O  O89  1  0.50000000  0.30382300  0.05293300  1
  O  O90  1  0.00000000  0.42039700  0.43856500  1
  O  O91  1  0.50000000  0.07960300  0.93856500  1
  O  O92  1  0.75307450  0.03153450  0.70991000  1
  O  O93  1  0.74692550  0.46846550  0.20991000  1
  O  O94  1  0.24692550  0.03153450  0.70991000  1
  O  O95  1  0.25307450  0.46846550  0.20991000  1
  O  O96  1  0.24366050  0.27059550  0.70344600  1
  O  O97  1  0.25633950  0.22940450  0.20344600  1
  O  O98  1  0.75633950  0.27059550  0.70344600  1
  O  O99  1  0.74366050  0.22940450  0.20344600  1
  O  O100  1  0.23234600  0.34911000  0.30691900  1
  O  O101  1  0.26765400  0.15089000  0.80691900  1
  O  O102  1  0.76765400  0.34911000  0.30691900  1
  O  O103  1  0.73234600  0.15089000  0.80691900  1
  O  O104  1  0.25522650  0.09143850  0.28028000  1
  O  O105  1  0.24477350  0.40856150  0.78028000  1
  O  O106  1  0.74477350  0.09143850  0.28028000  1
  O  O107  1  0.75522650  0.40856150  0.78028000  1
  O  O108  1  0.50000000  0.47532200  0.91921300  1
  O  O109  1  0.00000000  0.02467800  0.41921300  1
  O  O110  1  0.50000000  0.33604800  0.63849600  1
  O  O111  1  0.00000000  0.16395200  0.13849600  1
  O  O112  1  0.00000000  0.34292300  0.59516400  1
  O  O113  1  0.50000000  0.15707700  0.09516400  1
  O  O114  1  0.50000000  0.09880400  0.59037000  1
  O  O115  1  0.00000000  0.40119600  0.09037000  1
  O  O116  1  0.00000000  0.09813200  0.56521200  1
  O  O117  1  0.50000000  0.40186800  0.06521200  1
  O  O118  1  0.50000000  0.28400700  0.38164100  1
  O  O119  1  0.00000000  0.21599300  0.88164100  1
  O  O120  1  0.00000000  0.27140500  0.44680300  1
  O  O121  1  0.50000000  0.22859500  0.94680300  1
  O  O122  1  0.50000000  0.02580300  0.42669500  1
  O  O123  1  0.00000000  0.47419700  0.92669500  1
