# generated using pymatgen
data_KTh6F25
_symmetry_space_group_name_H-M   'P 1'
_cell_length_a   8.37360780
_cell_length_b   8.37360780
_cell_length_c   25.52434139
_cell_angle_alpha   90.00000000
_cell_angle_beta   90.00000000
_cell_angle_gamma   120.00000000
_symmetry_Int_Tables_number   1
_chemical_formula_structural   KTh6F25
_chemical_formula_sum   'K3 Th18 F75'
_cell_volume   1549.92401834
_cell_formula_units_Z   3
loop_
 _symmetry_equiv_pos_site_id
 _symmetry_equiv_pos_as_xyz
  1  'x, y, z'
loop_
 _atom_site_type_symbol
 _atom_site_label
 _atom_site_symmetry_multiplicity
 _atom_site_fract_x
 _atom_site_fract_y
 _atom_site_fract_z
 _atom_site_occupancy
  K  K0  1  0.00000000  0.00000000  0.00000000  1
  K  K1  1  0.66666667  0.33333333  0.33333333  1
  K  K2  1  0.33333333  0.66666667  0.66666667  1
  Th  Th3  1  0.16649167  0.33298333  0.24176133  1
  Th  Th4  1  0.66701667  0.83350833  0.24176133  1
  Th  Th5  1  0.99965000  0.49982500  0.09157200  1
  Th  Th6  1  0.50017500  0.49982500  0.09157200  1
  Th  Th7  1  0.50017500  0.00035000  0.09157200  1
  Th  Th8  1  0.16649167  0.83350833  0.24176133  1
  Th  Th9  1  0.83315833  0.66631667  0.57509467  1
  Th  Th10  1  0.33368333  0.16684167  0.57509467  1
  Th  Th11  1  0.66631667  0.83315833  0.42490533  1
  Th  Th12  1  0.16684167  0.83315833  0.42490533  1
  Th  Th13  1  0.16684167  0.33368333  0.42490533  1
  Th  Th14  1  0.83315833  0.16684167  0.57509467  1
  Th  Th15  1  0.49982500  0.99965000  0.90842800  1
  Th  Th16  1  0.00035000  0.50017500  0.90842800  1
  Th  Th17  1  0.33298333  0.16649167  0.75823867  1
  Th  Th18  1  0.83350833  0.16649167  0.75823867  1
  Th  Th19  1  0.83350833  0.66701667  0.75823867  1
  Th  Th20  1  0.49982500  0.50017500  0.90842800  1
  F  F21  1  0.18799800  0.81200200  0.06466300  1
  F  F22  1  0.18799800  0.37599600  0.06466300  1
  F  F23  1  0.62400400  0.81200200  0.06466300  1
  F  F24  1  0.04266267  0.52133133  0.26867033  1
  F  F25  1  0.47866867  0.52133133  0.26867033  1
  F  F26  1  0.47866867  0.95733733  0.26867033  1
  F  F27  1  0.33333333  0.66666667  0.21662567  1
  F  F28  1  0.50000000  0.50000000  0.00000000  1
  F  F29  1  0.00000000  0.50000000  0.00000000  1
  F  F30  1  0.50000000  0.00000000  0.00000000  1
  F  F31  1  0.85837533  0.71675067  0.26841167  1
  F  F32  1  0.85837533  0.14162467  0.26841167  1
  F  F33  1  0.28324933  0.14162467  0.26841167  1
  F  F34  1  0.38341733  0.19170867  0.06492167  1
  F  F35  1  0.80829133  0.61658267  0.06492167  1
  F  F36  1  0.80829133  0.19170867  0.06492167  1
  F  F37  1  0.65524733  0.98858067  0.16666667  1
  F  F38  1  0.33333333  0.34475267  0.16666667  1
  F  F39  1  0.01141933  0.66666667  0.16666667  1
  F  F40  1  0.01141933  0.34475267  0.16666667  1
  F  F41  1  0.33333333  0.98858067  0.16666667  1
  F  F42  1  0.65524733  0.66666667  0.16666667  1
  F  F43  1  0.00000000  0.00000000  0.21000100  1
  F  F44  1  0.66666667  0.33333333  0.12333233  1
  F  F45  1  0.33333333  0.66666667  0.11670767  1
  F  F46  1  0.85466467  0.14533533  0.39799633  1
  F  F47  1  0.85466467  0.70932933  0.39799633  1
  F  F48  1  0.29067067  0.14533533  0.39799633  1
  F  F49  1  0.70932933  0.85466467  0.60200367  1
  F  F50  1  0.14533533  0.85466467  0.60200367  1
  F  F51  1  0.14533533  0.29067067  0.60200367  1
  F  F52  1  0.00000000  0.00000000  0.54995900  1
  F  F53  1  0.16666667  0.83333333  0.33333333  1
  F  F54  1  0.66666667  0.83333333  0.33333333  1
  F  F55  1  0.16666667  0.33333333  0.33333333  1
  F  F56  1  0.52504200  0.05008400  0.60174500  1
  F  F57  1  0.52504200  0.47495800  0.60174500  1
  F  F58  1  0.94991600  0.47495800  0.60174500  1
  F  F59  1  0.05008400  0.52504200  0.39825500  1
  F  F60  1  0.47495800  0.94991600  0.39825500  1
  F  F61  1  0.47495800  0.52504200  0.39825500  1
  F  F62  1  0.32191400  0.32191400  0.50000000  1
  F  F63  1  0.00000000  0.67808600  0.50000000  1
  F  F64  1  0.67808600  0.00000000  0.50000000  1
  F  F65  1  0.67808600  0.67808600  0.50000000  1
  F  F66  1  0.00000000  0.32191400  0.50000000  1
  F  F67  1  0.32191400  0.00000000  0.50000000  1
  F  F68  1  0.66666667  0.33333333  0.54333433  1
  F  F69  1  0.33333333  0.66666667  0.45666567  1
  F  F70  1  0.00000000  0.00000000  0.45004100  1
  F  F71  1  0.52133133  0.47866867  0.73132967  1
  F  F72  1  0.52133133  0.04266267  0.73132967  1
  F  F73  1  0.95733733  0.47866867  0.73132967  1
  F  F74  1  0.37599600  0.18799800  0.93533700  1
  F  F75  1  0.81200200  0.18799800  0.93533700  1
  F  F76  1  0.81200200  0.62400400  0.93533700  1
  F  F77  1  0.66666667  0.33333333  0.88329233  1
  F  F78  1  0.83333333  0.16666667  0.66666667  1
  F  F79  1  0.33333333  0.16666667  0.66666667  1
  F  F80  1  0.83333333  0.66666667  0.66666667  1
  F  F81  1  0.19170867  0.38341733  0.93507833  1
  F  F82  1  0.19170867  0.80829133  0.93507833  1
  F  F83  1  0.61658267  0.80829133  0.93507833  1
  F  F84  1  0.71675067  0.85837533  0.73158833  1
  F  F85  1  0.14162467  0.28324933  0.73158833  1
  F  F86  1  0.14162467  0.85837533  0.73158833  1
  F  F87  1  0.98858067  0.65524733  0.83333333  1
  F  F88  1  0.66666667  0.01141933  0.83333333  1
  F  F89  1  0.34475267  0.33333333  0.83333333  1
  F  F90  1  0.34475267  0.01141933  0.83333333  1
  F  F91  1  0.66666667  0.65524733  0.83333333  1
  F  F92  1  0.98858067  0.33333333  0.83333333  1
  F  F93  1  0.33333333  0.66666667  0.87666767  1
  F  F94  1  0.00000000  0.00000000  0.78999900  1
  F  F95  1  0.66666667  0.33333333  0.78337433  1
