# generated using pymatgen
data_GeH3Cl
_symmetry_space_group_name_H-M   'P 1'
_cell_length_a   5.80655200
_cell_length_b   7.68229600
_cell_length_c   8.58306100
_cell_angle_alpha   90.00000000
_cell_angle_beta   90.00000000
_cell_angle_gamma   90.00000000
_symmetry_Int_Tables_number   1
_chemical_formula_structural   GeH3Cl
_chemical_formula_sum   'Ge4 H12 Cl4'
_cell_volume   382.87019135
_cell_formula_units_Z   4
loop_
 _symmetry_equiv_pos_site_id
 _symmetry_equiv_pos_as_xyz
  1  'x, y, z'
loop_
 _atom_site_type_symbol
 _atom_site_label
 _atom_site_symmetry_multiplicity
 _atom_site_fract_x
 _atom_site_fract_y
 _atom_site_fract_z
 _atom_site_occupancy
  Ge  Ge0  1  0.43742400  0.00000000  0.04954500  1
  Ge  Ge1  1  0.56257600  0.00000000  0.54954500  1
  Ge  Ge2  1  0.93742400  0.50000000  0.04954500  1
  Ge  Ge3  1  0.06257600  0.50000000  0.54954500  1
  H  H4  1  0.61602700  0.16669800  0.45964700  1
  H  H5  1  0.38397300  0.83330200  0.95964700  1
  H  H6  1  0.38397300  0.16669800  0.95964700  1
  H  H7  1  0.61602700  0.83330200  0.45964700  1
  H  H8  1  0.32834000  0.00000000  0.63030000  1
  H  H9  1  0.67166000  0.00000000  0.13030000  1
  H  H10  1  0.11602700  0.66669800  0.45964700  1
  H  H11  1  0.88397300  0.33330200  0.95964700  1
  H  H12  1  0.88397300  0.66669800  0.95964700  1
  H  H13  1  0.11602700  0.33330200  0.45964700  1
  H  H14  1  0.82834000  0.50000000  0.63030000  1
  H  H15  1  0.17166000  0.50000000  0.13030000  1
  Cl  Cl16  1  0.18511300  0.00000000  0.24369300  1
  Cl  Cl17  1  0.81488700  0.00000000  0.74369300  1
  Cl  Cl18  1  0.68511300  0.50000000  0.24369300  1
  Cl  Cl19  1  0.31488700  0.50000000  0.74369300  1
