# generated using pymatgen
data_KSb4F13
_symmetry_space_group_name_H-M   'P 1'
_cell_length_a   9.81048600
_cell_length_b   9.81048600
_cell_length_c   6.40138000
_cell_angle_alpha   90.00000000
_cell_angle_beta   90.00000000
_cell_angle_gamma   90.00000000
_symmetry_Int_Tables_number   1
_chemical_formula_structural   KSb4F13
_chemical_formula_sum   'K2 Sb8 F26'
_cell_volume   616.10488654
_cell_formula_units_Z   2
loop_
 _symmetry_equiv_pos_site_id
 _symmetry_equiv_pos_as_xyz
  1  'x, y, z'
loop_
 _atom_site_type_symbol
 _atom_site_label
 _atom_site_symmetry_multiplicity
 _atom_site_fract_x
 _atom_site_fract_y
 _atom_site_fract_z
 _atom_site_occupancy
  K  K0  1  0.00000000  0.00000000  0.50000000  1
  K  K1  1  0.50000000  0.50000000  0.00000000  1
  Sb  Sb2  1  0.48224500  0.79825600  0.49663100  1
  Sb  Sb3  1  0.70174400  0.98224500  0.00336900  1
  Sb  Sb4  1  0.29825600  0.01775500  0.00336900  1
  Sb  Sb5  1  0.51775500  0.20174400  0.49663100  1
  Sb  Sb6  1  0.98224500  0.29825600  0.99663100  1
  Sb  Sb7  1  0.20174400  0.48224500  0.50336900  1
  Sb  Sb8  1  0.79825600  0.51775500  0.50336900  1
  Sb  Sb9  1  0.01775500  0.70174400  0.99663100  1
  F  F10  1  0.76693700  0.09926000  0.23370400  1
  F  F11  1  0.40074000  0.26693700  0.26629600  1
  F  F12  1  0.59926000  0.73306300  0.26629600  1
  F  F13  1  0.23306300  0.90074000  0.23370400  1
  F  F14  1  0.15079800  0.92520000  0.83765800  1
  F  F15  1  0.50000000  0.00000000  0.25000000  1
  F  F16  1  0.41560950  0.86581950  0.89902150  1
  F  F17  1  0.63418050  0.91560950  0.60097850  1
  F  F18  1  0.36581950  0.08439050  0.60097850  1
  F  F19  1  0.58439050  0.13418050  0.89902150  1
  F  F20  1  0.84920200  0.07480000  0.83765800  1
  F  F21  1  0.42520000  0.34920200  0.66234200  1
  F  F22  1  0.57480000  0.65079800  0.66234200  1
  F  F23  1  0.26693700  0.59926000  0.73370400  1
  F  F24  1  0.90074000  0.76693700  0.76629600  1
  F  F25  1  0.09926000  0.23306300  0.76629600  1
  F  F26  1  0.73306300  0.40074000  0.73370400  1
  F  F27  1  0.65079800  0.42520000  0.33765800  1
  F  F28  1  0.00000000  0.50000000  0.75000000  1
  F  F29  1  0.91560950  0.36581950  0.39902150  1
  F  F30  1  0.13418050  0.41560950  0.10097850  1
  F  F31  1  0.86581950  0.58439050  0.10097850  1
  F  F32  1  0.08439050  0.63418050  0.39902150  1
  F  F33  1  0.34920200  0.57480000  0.33765800  1
  F  F34  1  0.92520000  0.84920200  0.16234200  1
  F  F35  1  0.07480000  0.15079800  0.16234200  1
