# generated using pymatgen
data_Cs3In2Cl9
_symmetry_space_group_name_H-M   'P 1'
_cell_length_a   13.05833410
_cell_length_b   13.05833410
_cell_length_c   19.03040210
_cell_angle_alpha   90.00000000
_cell_angle_beta   90.00000000
_cell_angle_gamma   120.00000000
_symmetry_Int_Tables_number   1
_chemical_formula_structural   Cs3In2Cl9
_chemical_formula_sum   'Cs18 In12 Cl54'
_cell_volume   2810.30947925
_cell_formula_units_Z   6
loop_
 _symmetry_equiv_pos_site_id
 _symmetry_equiv_pos_as_xyz
  1  'x, y, z'
loop_
 _atom_site_type_symbol
 _atom_site_label
 _atom_site_symmetry_multiplicity
 _atom_site_fract_x
 _atom_site_fract_y
 _atom_site_fract_z
 _atom_site_occupancy
  Cs  Cs0  1  0.00626067  0.33333333  0.08333333  1
  Cs  Cs1  1  0.66666667  0.67292733  0.08333333  1
  Cs  Cs2  1  0.32707267  0.99373933  0.08333333  1
  Cs  Cs3  1  0.66040600  0.00000000  0.25000000  1
  Cs  Cs4  1  0.00000000  0.66040600  0.25000000  1
  Cs  Cs5  1  0.33959400  0.33959400  0.25000000  1
  Cs  Cs6  1  0.67292733  0.66666667  0.41666667  1
  Cs  Cs7  1  0.33333333  0.00626067  0.41666667  1
  Cs  Cs8  1  0.99373933  0.32707267  0.41666667  1
  Cs  Cs9  1  0.32707267  0.33333333  0.58333333  1
  Cs  Cs10  1  0.66666667  0.99373933  0.58333333  1
  Cs  Cs11  1  0.00626067  0.67292733  0.58333333  1
  Cs  Cs12  1  0.33959400  0.00000000  0.75000000  1
  Cs  Cs13  1  0.00000000  0.33959400  0.75000000  1
  Cs  Cs14  1  0.66040600  0.66040600  0.75000000  1
  Cs  Cs15  1  0.99373933  0.66666667  0.91666667  1
  Cs  Cs16  1  0.33333333  0.32707267  0.91666667  1
  Cs  Cs17  1  0.67292733  0.00626067  0.91666667  1
  In  In18  1  0.33333333  0.66666667  0.32078467  1
  In  In19  1  0.33333333  0.66666667  0.51254867  1
  In  In20  1  0.33333333  0.66666667  0.01254867  1
  In  In21  1  0.33333333  0.66666667  0.82078467  1
  In  In22  1  0.00000000  0.00000000  0.65411800  1
  In  In23  1  1.00000000  0.00000000  0.84588200  1
  In  In24  1  0.00000000  0.00000000  0.34588200  1
  In  In25  1  0.00000000  0.00000000  0.15411800  1
  In  In26  1  0.66666667  0.33333333  0.98745133  1
  In  In27  1  0.66666667  0.33333333  0.17921533  1
  In  In28  1  0.66666667  0.33333333  0.67921533  1
  In  In29  1  0.66666667  0.33333333  0.48745133  1
  Cl  Cl30  1  0.83406067  0.00277633  0.09383333  1
  Cl  Cl31  1  0.99722367  0.83128433  0.09383333  1
  Cl  Cl32  1  0.16871567  0.16593933  0.09383333  1
  Cl  Cl33  1  0.16461767  0.66389033  0.07283333  1
  Cl  Cl34  1  0.33610967  0.50072733  0.07283333  1
  Cl  Cl35  1  0.49927267  0.83538233  0.07283333  1
  Cl  Cl36  1  0.83260600  0.33055700  0.23950000  1
  Cl  Cl37  1  0.66944300  0.50204900  0.23950000  1
  Cl  Cl38  1  0.49795100  0.16739400  0.23950000  1
  Cl  Cl39  1  0.50204900  0.66944300  0.26050000  1
  Cl  Cl40  1  0.33333333  0.51617667  0.41666667  1
  Cl  Cl41  1  0.18284333  0.66666667  0.41666667  1
  Cl  Cl42  1  0.48382333  0.81715667  0.41666667  1
  Cl  Cl43  1  0.33333333  0.81715667  0.91666667  1
  Cl  Cl44  1  0.48382333  0.66666667  0.91666667  1
  Cl  Cl45  1  0.18284333  0.51617667  0.91666667  1
  Cl  Cl46  1  0.16739400  0.49795100  0.26050000  1
  Cl  Cl47  1  0.33055700  0.83260600  0.26050000  1
  Cl  Cl48  1  0.50072733  0.33610967  0.42716667  1
  Cl  Cl49  1  0.66389033  0.16461767  0.42716667  1
  Cl  Cl50  1  0.83538233  0.49927267  0.42716667  1
  Cl  Cl51  1  0.83128433  0.99722367  0.40616667  1
  Cl  Cl52  1  0.00277633  0.83406067  0.40616667  1
  Cl  Cl53  1  0.16593933  0.16871567  0.40616667  1
  Cl  Cl54  1  0.49927267  0.66389033  0.57283333  1
  Cl  Cl55  1  0.33610967  0.83538233  0.57283333  1
  Cl  Cl56  1  0.16461767  0.50072733  0.57283333  1
  Cl  Cl57  1  0.16871567  0.00277633  0.59383333  1
  Cl  Cl58  1  0.00000000  0.84951000  0.75000000  1
  Cl  Cl59  1  0.84951000  0.00000000  0.75000000  1
  Cl  Cl60  1  0.15049000  0.15049000  0.75000000  1
  Cl  Cl61  1  0.00000000  0.15049000  0.25000000  1
  Cl  Cl62  1  0.15049000  0.00000000  0.25000000  1
  Cl  Cl63  1  0.84951000  0.84951000  0.25000000  1
  Cl  Cl64  1  0.83406067  0.83128433  0.59383333  1
  Cl  Cl65  1  0.99722367  0.16593933  0.59383333  1
  Cl  Cl66  1  0.16739400  0.66944300  0.76050000  1
  Cl  Cl67  1  0.33055700  0.49795100  0.76050000  1
  Cl  Cl68  1  0.50204900  0.83260600  0.76050000  1
  Cl  Cl69  1  0.49795100  0.33055700  0.73950000  1
  Cl  Cl70  1  0.66944300  0.16739400  0.73950000  1
  Cl  Cl71  1  0.83260600  0.50204900  0.73950000  1
  Cl  Cl72  1  0.16593933  0.99722367  0.90616667  1
  Cl  Cl73  1  0.00277633  0.16871567  0.90616667  1
  Cl  Cl74  1  0.83128433  0.83406067  0.90616667  1
  Cl  Cl75  1  0.83538233  0.33610967  0.92716667  1
  Cl  Cl76  1  0.66666667  0.18284333  0.08333333  1
  Cl  Cl77  1  0.51617667  0.33333333  0.08333333  1
  Cl  Cl78  1  0.81715667  0.48382333  0.08333333  1
  Cl  Cl79  1  0.66666667  0.48382333  0.58333333  1
  Cl  Cl80  1  0.81715667  0.33333333  0.58333333  1
  Cl  Cl81  1  0.51617667  0.18284333  0.58333333  1
  Cl  Cl82  1  0.50072733  0.16461767  0.92716667  1
  Cl  Cl83  1  0.66389033  0.49927267  0.92716667  1
