# generated using pymatgen
data_K2LiAlH6
_symmetry_space_group_name_H-M   'P 1'
_cell_length_a   5.61798997
_cell_length_b   5.61798997
_cell_length_c   27.34850455
_cell_angle_alpha   90.00000000
_cell_angle_beta   90.00000000
_cell_angle_gamma   120.00000000
_symmetry_Int_Tables_number   1
_chemical_formula_structural   K2LiAlH6
_chemical_formula_sum   'K12 Li6 Al6 H36'
_cell_volume   747.52571156
_cell_formula_units_Z   6
loop_
 _symmetry_equiv_pos_site_id
 _symmetry_equiv_pos_as_xyz
  1  'x, y, z'
loop_
 _atom_site_type_symbol
 _atom_site_label
 _atom_site_symmetry_multiplicity
 _atom_site_fract_x
 _atom_site_fract_y
 _atom_site_fract_z
 _atom_site_occupancy
  K  K0  1  0.00000000  0.00000000  0.12711400  1
  K  K1  1  0.66666667  0.33333333  0.20621933  1
  K  K2  1  0.00000000  0.00000000  0.28659300  1
  K  K3  1  0.66666667  0.33333333  0.04674033  1
  K  K4  1  0.66666667  0.33333333  0.46044733  1
  K  K5  1  0.33333333  0.66666667  0.53955267  1
  K  K6  1  0.66666667  0.33333333  0.61992633  1
  K  K7  1  0.33333333  0.66666667  0.38007367  1
  K  K8  1  0.33333333  0.66666667  0.79378067  1
  K  K9  1  0.00000000  0.00000000  0.87288600  1
  K  K10  1  0.33333333  0.66666667  0.95325967  1
  K  K11  1  0.00000000  0.00000000  0.71340700  1
  Li  Li12  1  0.33333333  0.66666667  0.07440667  1
  Li  Li13  1  0.33333333  0.66666667  0.25892667  1
  Li  Li14  1  0.00000000  0.00000000  0.40774000  1
  Li  Li15  1  0.00000000  0.00000000  0.59226000  1
  Li  Li16  1  0.66666667  0.33333333  0.74107333  1
  Li  Li17  1  0.66666667  0.33333333  0.92559333  1
  Al  Al18  1  0.00000000  0.00000000  0.00000000  1
  Al  Al19  1  0.33333333  0.66666667  0.16666667  1
  Al  Al20  1  0.66666667  0.33333333  0.33333333  1
  Al  Al21  1  1.00000000  1.00000000  0.50000000  1
  Al  Al22  1  0.33333333  0.66666667  0.66666667  1
  Al  Al23  1  0.66666667  0.33333333  0.83333333  1
  H  H24  1  0.15093133  0.30186267  0.03726667  1
  H  H25  1  0.69813733  0.84906867  0.03726667  1
  H  H26  1  0.15093133  0.84906867  0.03726667  1
  H  H27  1  0.51573533  0.48426467  0.29606667  1
  H  H28  1  0.51573533  0.03147067  0.29606667  1
  H  H29  1  0.96852933  0.48426467  0.29606667  1
  H  H30  1  0.18940200  0.37880400  0.20595600  1
  H  H31  1  0.62119600  0.81059800  0.20595600  1
  H  H32  1  0.04547067  0.52273533  0.12737733  1
  H  H33  1  0.47726467  0.95452933  0.12737733  1
  H  H34  1  0.47726467  0.52273533  0.12737733  1
  H  H35  1  0.18940200  0.81059800  0.20595600  1
  H  H36  1  0.81759800  0.63519600  0.37060000  1
  H  H37  1  0.36480400  0.18240200  0.37060000  1
  H  H38  1  0.81759800  0.18240200  0.37060000  1
  H  H39  1  0.18240200  0.81759800  0.62940000  1
  H  H40  1  0.18240200  0.36480400  0.62940000  1
  H  H41  1  0.63519600  0.81759800  0.62940000  1
  H  H42  1  0.85606867  0.71213733  0.53928933  1
  H  H43  1  0.28786267  0.14393133  0.53928933  1
  H  H44  1  0.71213733  0.85606867  0.46071067  1
  H  H45  1  0.14393133  0.28786267  0.46071067  1
  H  H46  1  0.14393133  0.85606867  0.46071067  1
  H  H47  1  0.85606867  0.14393133  0.53928933  1
  H  H48  1  0.48426467  0.96852933  0.70393333  1
  H  H49  1  0.03147067  0.51573533  0.70393333  1
  H  H50  1  0.48426467  0.51573533  0.70393333  1
  H  H51  1  0.84906867  0.15093133  0.96273333  1
  H  H52  1  0.84906867  0.69813733  0.96273333  1
  H  H53  1  0.30186267  0.15093133  0.96273333  1
  H  H54  1  0.52273533  0.04547067  0.87262267  1
  H  H55  1  0.95452933  0.47726467  0.87262267  1
  H  H56  1  0.37880400  0.18940200  0.79404400  1
  H  H57  1  0.81059800  0.62119600  0.79404400  1
  H  H58  1  0.81059800  0.18940200  0.79404400  1
  H  H59  1  0.52273533  0.47726467  0.87262267  1
