# generated using pymatgen
data_Rb2CuCl4
_symmetry_space_group_name_H-M   'P 1'
_cell_length_a   7.18692400
_cell_length_b   15.88223400
_cell_length_c   7.19260400
_cell_angle_alpha   90.00000000
_cell_angle_beta   90.00000000
_cell_angle_gamma   90.00000000
_symmetry_Int_Tables_number   1
_chemical_formula_structural   Rb2CuCl4
_chemical_formula_sum   'Rb8 Cu4 Cl16'
_cell_volume   820.99553065
_cell_formula_units_Z   4
loop_
 _symmetry_equiv_pos_site_id
 _symmetry_equiv_pos_as_xyz
  1  'x, y, z'
loop_
 _atom_site_type_symbol
 _atom_site_label
 _atom_site_symmetry_multiplicity
 _atom_site_fract_x
 _atom_site_fract_y
 _atom_site_fract_z
 _atom_site_occupancy
  Rb  Rb0  1  0.00000000  0.86069200  0.50000000  1
  Rb  Rb1  1  0.50000000  0.86069200  0.00000000  1
  Rb  Rb2  1  0.00000000  0.63930800  0.00000000  1
  Rb  Rb3  1  0.50000000  0.63930800  0.50000000  1
  Rb  Rb4  1  0.50000000  0.36069200  0.50000000  1
  Rb  Rb5  1  0.00000000  0.36069200  0.00000000  1
  Rb  Rb6  1  0.50000000  0.13930800  0.00000000  1
  Rb  Rb7  1  0.00000000  0.13930800  0.50000000  1
  Cu  Cu8  1  0.00000000  0.00000000  0.00000000  1
  Cu  Cu9  1  0.50000000  0.00000000  0.50000000  1
  Cu  Cu10  1  0.50000000  0.50000000  0.00000000  1
  Cu  Cu11  1  0.00000000  0.50000000  0.50000000  1
  Cl  Cl12  1  0.50000000  0.65025100  0.00000000  1
  Cl  Cl13  1  0.50000000  0.84974900  0.50000000  1
  Cl  Cl14  1  0.00000000  0.84974900  0.00000000  1
  Cl  Cl15  1  0.22656200  0.00000000  0.22519400  1
  Cl  Cl16  1  0.00000000  0.65025100  0.50000000  1
  Cl  Cl17  1  0.27343800  0.00000000  0.72519400  1
  Cl  Cl18  1  0.72656200  0.00000000  0.27480600  1
  Cl  Cl19  1  0.77343800  0.00000000  0.77480600  1
  Cl  Cl20  1  0.00000000  0.15025100  0.00000000  1
  Cl  Cl21  1  0.00000000  0.34974900  0.50000000  1
  Cl  Cl22  1  0.50000000  0.34974900  0.00000000  1
  Cl  Cl23  1  0.72656200  0.50000000  0.22519400  1
  Cl  Cl24  1  0.50000000  0.15025100  0.50000000  1
  Cl  Cl25  1  0.77343800  0.50000000  0.72519400  1
  Cl  Cl26  1  0.22656200  0.50000000  0.27480600  1
  Cl  Cl27  1  0.27343800  0.50000000  0.77480600  1
