# generated using pymatgen
data_B3H5
_symmetry_space_group_name_H-M   'P 1'
_cell_length_a   7.71719000
_cell_length_b   9.50668600
_cell_length_c   8.89804200
_cell_angle_alpha   90.00000000
_cell_angle_beta   90.00000000
_cell_angle_gamma   90.00000000
_symmetry_Int_Tables_number   1
_chemical_formula_structural   B3H5
_chemical_formula_sum   'B24 H40'
_cell_volume   652.80398050
_cell_formula_units_Z   8
loop_
 _symmetry_equiv_pos_site_id
 _symmetry_equiv_pos_as_xyz
  1  'x, y, z'
loop_
 _atom_site_type_symbol
 _atom_site_label
 _atom_site_symmetry_multiplicity
 _atom_site_fract_x
 _atom_site_fract_y
 _atom_site_fract_z
 _atom_site_occupancy
  B  B0  1  0.50000000  0.19936900  0.13689600  1
  B  B1  1  0.50000000  0.80063100  0.63689600  1
  B  B2  1  0.68306950  0.29201550  0.21005400  1
  B  B3  1  0.31693050  0.70798450  0.71005400  1
  B  B4  1  0.31693050  0.29201550  0.21005400  1
  B  B5  1  0.68306950  0.70798450  0.71005400  1
  B  B6  1  0.10658400  0.92819700  0.32119200  1
  B  B7  1  0.89341600  0.07180300  0.82119200  1
  B  B8  1  0.89341600  0.92819700  0.32119200  1
  B  B9  1  0.10658400  0.07180300  0.82119200  1
  B  B10  1  0.50000000  0.25988500  0.32223800  1
  B  B11  1  0.50000000  0.74011500  0.82223800  1
  B  B12  1  0.00000000  0.69936900  0.13689600  1
  B  B13  1  0.00000000  0.30063100  0.63689600  1
  B  B14  1  0.18306950  0.79201550  0.21005400  1
  B  B15  1  0.81693050  0.20798450  0.71005400  1
  B  B16  1  0.81693050  0.79201550  0.21005400  1
  B  B17  1  0.18306950  0.20798450  0.71005400  1
  B  B18  1  0.60658400  0.42819700  0.32119200  1
  B  B19  1  0.39341600  0.57180300  0.82119200  1
  B  B20  1  0.39341600  0.42819700  0.32119200  1
  B  B21  1  0.60658400  0.57180300  0.82119200  1
  B  B22  1  0.00000000  0.75988500  0.32223800  1
  B  B23  1  0.00000000  0.24011500  0.82223800  1
  H  H24  1  0.17585650  0.93108450  0.18376500  1
  H  H25  1  0.82414350  0.06891550  0.68376500  1
  H  H26  1  0.82414350  0.93108450  0.18376500  1
  H  H27  1  0.17585650  0.06891550  0.68376500  1
  H  H28  1  0.62364350  0.26724850  0.06662800  1
  H  H29  1  0.37635650  0.73275150  0.56662800  1
  H  H30  1  0.37635650  0.26724850  0.06662800  1
  H  H31  1  0.62364350  0.73275150  0.56662800  1
  H  H32  1  0.50000000  0.08130100  0.09227900  1
  H  H33  1  0.50000000  0.91869900  0.59227900  1
  H  H34  1  0.32596900  0.74474600  0.20816900  1
  H  H35  1  0.67403100  0.25525400  0.70816900  1
  H  H36  1  0.50000000  0.81947700  0.92612700  1
  H  H37  1  0.50000000  0.18052300  0.42612700  1
  H  H38  1  0.20883500  0.02436600  0.90832300  1
  H  H39  1  0.79116500  0.97563400  0.40832300  1
  H  H40  1  0.79116500  0.02436600  0.90832300  1
  H  H41  1  0.20883500  0.97563400  0.40832300  1
  H  H42  1  0.32596900  0.25525400  0.70816900  1
  H  H43  1  0.67403100  0.74474600  0.20816900  1
  H  H44  1  0.67585650  0.43108450  0.18376500  1
  H  H45  1  0.32414350  0.56891550  0.68376500  1
  H  H46  1  0.32414350  0.43108450  0.18376500  1
  H  H47  1  0.67585650  0.56891550  0.68376500  1
  H  H48  1  0.12364350  0.76724850  0.06662800  1
  H  H49  1  0.87635650  0.23275150  0.56662800  1
  H  H50  1  0.87635650  0.76724850  0.06662800  1
  H  H51  1  0.12364350  0.23275150  0.56662800  1
  H  H52  1  0.00000000  0.58130100  0.09227900  1
  H  H53  1  0.00000000  0.41869900  0.59227900  1
  H  H54  1  0.82596900  0.24474600  0.20816900  1
  H  H55  1  0.17403100  0.75525400  0.70816900  1
  H  H56  1  0.00000000  0.31947700  0.92612700  1
  H  H57  1  0.00000000  0.68052300  0.42612700  1
  H  H58  1  0.70883500  0.52436600  0.90832300  1
  H  H59  1  0.29116500  0.47563400  0.40832300  1
  H  H60  1  0.29116500  0.52436600  0.90832300  1
  H  H61  1  0.70883500  0.47563400  0.40832300  1
  H  H62  1  0.82596900  0.75525400  0.70816900  1
  H  H63  1  0.17403100  0.24474600  0.20816900  1
