# generated using pymatgen
data_Rb2CdCl4
_symmetry_space_group_name_H-M   'P 1'
_cell_length_a   5.31359000
_cell_length_b   5.31359000
_cell_length_c   16.39300000
_cell_angle_alpha   90.00000000
_cell_angle_beta   90.00000000
_cell_angle_gamma   90.00000000
_symmetry_Int_Tables_number   1
_chemical_formula_structural   Rb2CdCl4
_chemical_formula_sum   'Rb4 Cd2 Cl8'
_cell_volume   462.84387481
_cell_formula_units_Z   2
loop_
 _symmetry_equiv_pos_site_id
 _symmetry_equiv_pos_as_xyz
  1  'x, y, z'
loop_
 _atom_site_type_symbol
 _atom_site_label
 _atom_site_symmetry_multiplicity
 _atom_site_fract_x
 _atom_site_fract_y
 _atom_site_fract_z
 _atom_site_occupancy
  Rb  Rb0  1  0.00000000  0.00000000  0.35973200  1
  Rb  Rb1  1  0.50000000  0.50000000  0.14026800  1
  Rb  Rb2  1  0.50000000  0.50000000  0.85973200  1
  Rb  Rb3  1  0.00000000  0.00000000  0.64026800  1
  Cd  Cd4  1  0.00000000  0.00000000  0.00000000  1
  Cd  Cd5  1  0.50000000  0.50000000  0.50000000  1
  Cl  Cl6  1  0.50000000  0.50000000  0.34025100  1
  Cl  Cl7  1  0.00000000  0.00000000  0.15974900  1
  Cl  Cl8  1  0.00000000  0.50000000  0.00000000  1
  Cl  Cl9  1  0.50000000  0.00000000  0.00000000  1
  Cl  Cl10  1  0.00000000  0.00000000  0.84025100  1
  Cl  Cl11  1  0.50000000  0.50000000  0.65974900  1
  Cl  Cl12  1  0.50000000  0.00000000  0.50000000  1
  Cl  Cl13  1  0.00000000  0.50000000  0.50000000  1
