# generated using pymatgen
data_Pb2ClOF
_symmetry_space_group_name_H-M   'P 1'
_cell_length_a   5.83023000
_cell_length_b   12.82001600
_cell_length_c   5.86879300
_cell_angle_alpha   90.00000000
_cell_angle_beta   90.00000000
_cell_angle_gamma   90.00000000
_symmetry_Int_Tables_number   1
_chemical_formula_structural   Pb2ClOF
_chemical_formula_sum   'Pb8 Cl4 O4 F4'
_cell_volume   438.65496228
_cell_formula_units_Z   4
loop_
 _symmetry_equiv_pos_site_id
 _symmetry_equiv_pos_as_xyz
  1  'x, y, z'
loop_
 _atom_site_type_symbol
 _atom_site_label
 _atom_site_symmetry_multiplicity
 _atom_site_fract_x
 _atom_site_fract_y
 _atom_site_fract_z
 _atom_site_occupancy
  Pb  Pb0  1  0.50000000  0.89767600  0.78125000  1
  Pb  Pb1  1  0.00000000  0.60232400  0.21875000  1
  Pb  Pb2  1  0.50000000  0.60232400  0.78125000  1
  Pb  Pb3  1  0.00000000  0.89767600  0.21875000  1
  Pb  Pb4  1  0.00000000  0.39767600  0.78125000  1
  Pb  Pb5  1  0.50000000  0.10232400  0.21875000  1
  Pb  Pb6  1  0.00000000  0.10232400  0.78125000  1
  Pb  Pb7  1  0.50000000  0.39767600  0.21875000  1
  Cl  Cl8  1  0.50000000  0.75000000  0.21349600  1
  Cl  Cl9  1  0.00000000  0.75000000  0.78650400  1
  Cl  Cl10  1  0.00000000  0.25000000  0.21349600  1
  Cl  Cl11  1  0.50000000  0.25000000  0.78650400  1
  O  O12  1  0.25000000  0.00000000  0.00000000  1
  O  O13  1  0.75000000  0.00000000  0.00000000  1
  O  O14  1  0.75000000  0.50000000  0.00000000  1
  O  O15  1  0.25000000  0.50000000  0.00000000  1
  F  F16  1  0.75000000  0.00000000  0.50000000  1
  F  F17  1  0.25000000  0.00000000  0.50000000  1
  F  F18  1  0.25000000  0.50000000  0.50000000  1
  F  F19  1  0.75000000  0.50000000  0.50000000  1
