# generated using pymatgen
data_Dy2O3
_symmetry_space_group_name_H-M   'P 1'
_cell_length_a   10.67597400
_cell_length_b   10.67597400
_cell_length_c   10.67597400
_cell_angle_alpha   90.00000000
_cell_angle_beta   90.00000000
_cell_angle_gamma   90.00000000
_symmetry_Int_Tables_number   1
_chemical_formula_structural   Dy2O3
_chemical_formula_sum   'Dy32 O48'
_cell_volume   1216.80930559
_cell_formula_units_Z   16
loop_
 _symmetry_equiv_pos_site_id
 _symmetry_equiv_pos_as_xyz
  1  'x, y, z'
loop_
 _atom_site_type_symbol
 _atom_site_label
 _atom_site_symmetry_multiplicity
 _atom_site_fract_x
 _atom_site_fract_y
 _atom_site_fract_z
 _atom_site_occupancy
  Dy  Dy0  1  0.25000000  0.21753800  0.50000000  1
  Dy  Dy1  1  0.28246200  0.50000000  0.75000000  1
  Dy  Dy2  1  0.50000000  0.25000000  0.21753800  1
  Dy  Dy3  1  0.21753800  0.50000000  0.25000000  1
  Dy  Dy4  1  0.50000000  0.75000000  0.28246200  1
  Dy  Dy5  1  0.75000000  0.28246200  0.50000000  1
  Dy  Dy6  1  0.25000000  0.28246200  0.00000000  1
  Dy  Dy7  1  0.21753800  0.00000000  0.75000000  1
  Dy  Dy8  1  0.00000000  0.25000000  0.28246200  1
  Dy  Dy9  1  0.28246200  0.00000000  0.25000000  1
  Dy  Dy10  1  0.00000000  0.75000000  0.21753800  1
  Dy  Dy11  1  0.75000000  0.21753800  0.00000000  1
  Dy  Dy12  1  0.00000000  0.00000000  0.50000000  1
  Dy  Dy13  1  0.00000000  0.00000000  0.00000000  1
  Dy  Dy14  1  0.50000000  0.00000000  0.00000000  1
  Dy  Dy15  1  0.00000000  0.50000000  0.00000000  1
  Dy  Dy16  1  0.75000000  0.71753800  0.00000000  1
  Dy  Dy17  1  0.78246200  0.00000000  0.25000000  1
  Dy  Dy18  1  0.00000000  0.75000000  0.71753800  1
  Dy  Dy19  1  0.71753800  0.00000000  0.75000000  1
  Dy  Dy20  1  0.00000000  0.25000000  0.78246200  1
  Dy  Dy21  1  0.25000000  0.78246200  0.00000000  1
  Dy  Dy22  1  0.75000000  0.78246200  0.50000000  1
  Dy  Dy23  1  0.71753800  0.50000000  0.25000000  1
  Dy  Dy24  1  0.50000000  0.75000000  0.78246200  1
  Dy  Dy25  1  0.78246200  0.50000000  0.75000000  1
  Dy  Dy26  1  0.50000000  0.25000000  0.71753800  1
  Dy  Dy27  1  0.25000000  0.71753800  0.50000000  1
  Dy  Dy28  1  0.50000000  0.50000000  0.00000000  1
  Dy  Dy29  1  0.50000000  0.50000000  0.50000000  1
  Dy  Dy30  1  0.00000000  0.50000000  0.50000000  1
  Dy  Dy31  1  0.50000000  0.00000000  0.50000000  1
  O  O32  1  0.40134200  0.35894200  0.87049300  1
  O  O33  1  0.59865800  0.14105800  0.87049300  1
  O  O34  1  0.90134200  0.14105800  0.12950700  1
  O  O35  1  0.87049300  0.59865800  0.14105800  1
  O  O36  1  0.35894200  0.87049300  0.40134200  1
  O  O37  1  0.35894200  0.12950700  0.09865800  1
  O  O38  1  0.12950700  0.09865800  0.35894200  1
  O  O39  1  0.14105800  0.87049300  0.59865800  1
  O  O40  1  0.12950700  0.90134200  0.14105800  1
  O  O41  1  0.14105800  0.12950700  0.90134200  1
  O  O42  1  0.87049300  0.40134200  0.35894200  1
  O  O43  1  0.09865800  0.35894200  0.12950700  1
  O  O44  1  0.09865800  0.14105800  0.62950700  1
  O  O45  1  0.90134200  0.35894200  0.62950700  1
  O  O46  1  0.59865800  0.35894200  0.37049300  1
  O  O47  1  0.62950700  0.90134200  0.35894200  1
  O  O48  1  0.40134200  0.14105800  0.37049300  1
  O  O49  1  0.62950700  0.09865800  0.14105800  1
  O  O50  1  0.35894200  0.37049300  0.59865800  1
  O  O51  1  0.37049300  0.59865800  0.35894200  1
  O  O52  1  0.35894200  0.62950700  0.90134200  1
  O  O53  1  0.37049300  0.40134200  0.14105800  1
  O  O54  1  0.14105800  0.37049300  0.40134200  1
  O  O55  1  0.14105800  0.62950700  0.09865800  1
  O  O56  1  0.90134200  0.85894200  0.37049300  1
  O  O57  1  0.09865800  0.64105800  0.37049300  1
  O  O58  1  0.40134200  0.64105800  0.62950700  1
  O  O59  1  0.37049300  0.09865800  0.64105800  1
  O  O60  1  0.85894200  0.37049300  0.90134200  1
  O  O61  1  0.85894200  0.62950700  0.59865800  1
  O  O62  1  0.62950700  0.59865800  0.85894200  1
  O  O63  1  0.64105800  0.37049300  0.09865800  1
  O  O64  1  0.62950700  0.40134200  0.64105800  1
  O  O65  1  0.64105800  0.62950700  0.40134200  1
  O  O66  1  0.37049300  0.90134200  0.85894200  1
  O  O67  1  0.59865800  0.85894200  0.62950700  1
  O  O68  1  0.59865800  0.64105800  0.12950700  1
  O  O69  1  0.40134200  0.85894200  0.12950700  1
  O  O70  1  0.09865800  0.85894200  0.87049300  1
  O  O71  1  0.12950700  0.40134200  0.85894200  1
  O  O72  1  0.90134200  0.64105800  0.87049300  1
  O  O73  1  0.12950700  0.59865800  0.64105800  1
  O  O74  1  0.85894200  0.87049300  0.09865800  1
  O  O75  1  0.87049300  0.09865800  0.85894200  1
  O  O76  1  0.85894200  0.12950700  0.40134200  1
  O  O77  1  0.87049300  0.90134200  0.64105800  1
  O  O78  1  0.64105800  0.87049300  0.90134200  1
  O  O79  1  0.64105800  0.12950700  0.59865800  1
