# generated using pymatgen
data_NiBr2
_symmetry_space_group_name_H-M   'P 1'
_cell_length_a   3.67519121
_cell_length_b   3.67519121
_cell_length_c   18.71356831
_cell_angle_alpha   90.00000000
_cell_angle_beta   90.00000000
_cell_angle_gamma   120.00000000
_symmetry_Int_Tables_number   1
_chemical_formula_structural   NiBr2
_chemical_formula_sum   'Ni3 Br6'
_cell_volume   218.90068343
_cell_formula_units_Z   3
loop_
 _symmetry_equiv_pos_site_id
 _symmetry_equiv_pos_as_xyz
  1  'x, y, z'
loop_
 _atom_site_type_symbol
 _atom_site_label
 _atom_site_symmetry_multiplicity
 _atom_site_fract_x
 _atom_site_fract_y
 _atom_site_fract_z
 _atom_site_occupancy
  Ni  Ni0  1  0.00000000  0.00000000  0.00000000  1
  Ni  Ni1  1  0.66666667  0.33333333  0.33333333  1
  Ni  Ni2  1  0.33333333  0.66666667  0.66666667  1
  Br  Br3  1  0.00000000  0.00000000  0.25844000  1
  Br  Br4  1  0.66666667  0.33333333  0.07489333  1
  Br  Br5  1  0.66666667  0.33333333  0.59177333  1
  Br  Br6  1  0.33333333  0.66666667  0.40822667  1
  Br  Br7  1  0.33333333  0.66666667  0.92510667  1
  Br  Br8  1  0.00000000  0.00000000  0.74156000  1
