# generated using pymatgen
data_SbAs2Cl13
_symmetry_space_group_name_H-M   'P 1'
_cell_length_a   10.81244000
_cell_length_b   16.53736600
_cell_length_c   12.18304200
_cell_angle_alpha   90.00000000
_cell_angle_beta   90.00000000
_cell_angle_gamma   90.00000000
_symmetry_Int_Tables_number   1
_chemical_formula_structural   SbAs2Cl13
_chemical_formula_sum   'Sb4 As8 Cl52'
_cell_volume   2178.44093939
_cell_formula_units_Z   4
loop_
 _symmetry_equiv_pos_site_id
 _symmetry_equiv_pos_as_xyz
  1  'x, y, z'
loop_
 _atom_site_type_symbol
 _atom_site_label
 _atom_site_symmetry_multiplicity
 _atom_site_fract_x
 _atom_site_fract_y
 _atom_site_fract_z
 _atom_site_occupancy
  Sb  Sb0  1  0.50000000  0.29031600  0.99915900  1
  Sb  Sb1  1  0.50000000  0.70968400  0.49915900  1
  Sb  Sb2  1  0.00000000  0.79031600  0.99915900  1
  Sb  Sb3  1  0.00000000  0.20968400  0.49915900  1
  As  As4  1  0.50000000  0.05216000  0.14960100  1
  As  As5  1  0.50000000  0.35695600  0.46164100  1
  As  As6  1  0.50000000  0.94784000  0.64960100  1
  As  As7  1  0.50000000  0.64304400  0.96164100  1
  As  As8  1  0.00000000  0.55216000  0.14960100  1
  As  As9  1  0.00000000  0.85695600  0.46164100  1
  As  As10  1  0.00000000  0.44784000  0.64960100  1
  As  As11  1  0.00000000  0.14304400  0.96164100  1
  Cl  Cl12  1  0.15836800  0.91589300  0.40098900  1
  Cl  Cl13  1  0.34435250  0.96664750  0.13031600  1
  Cl  Cl14  1  0.50000000  0.83223800  0.39212000  1
  Cl  Cl15  1  0.50000000  0.16776200  0.89212000  1
  Cl  Cl16  1  0.50000000  0.58866000  0.60969400  1
  Cl  Cl17  1  0.50000000  0.41134000  0.10969400  1
  Cl  Cl18  1  0.15755050  0.15278450  0.38238800  1
  Cl  Cl19  1  0.84244950  0.84721550  0.88238800  1
  Cl  Cl20  1  0.84244950  0.15278450  0.38238800  1
  Cl  Cl21  1  0.15755050  0.84721550  0.88238800  1
  Cl  Cl22  1  0.65873400  0.76634000  0.61718300  1
  Cl  Cl23  1  0.34126600  0.23366000  0.11718300  1
  Cl  Cl24  1  0.34126600  0.76634000  0.61718300  1
  Cl  Cl25  1  0.65873400  0.23366000  0.11718300  1
  Cl  Cl26  1  0.65564750  0.96664750  0.13031600  1
  Cl  Cl27  1  0.15836800  0.08410700  0.90098900  1
  Cl  Cl28  1  0.84163200  0.91589300  0.40098900  1
  Cl  Cl29  1  0.84163200  0.08410700  0.90098900  1
  Cl  Cl30  1  0.50000000  0.23562700  0.40861700  1
  Cl  Cl31  1  0.50000000  0.76437300  0.90861700  1
  Cl  Cl32  1  0.50000000  0.36020900  0.63474100  1
  Cl  Cl33  1  0.50000000  0.63979100  0.13474100  1
  Cl  Cl34  1  0.50000000  0.05829800  0.33387500  1
  Cl  Cl35  1  0.50000000  0.94170200  0.83387500  1
  Cl  Cl36  1  0.34435250  0.03335250  0.63031600  1
  Cl  Cl37  1  0.65564750  0.03335250  0.63031600  1
  Cl  Cl38  1  0.65836800  0.41589300  0.40098900  1
  Cl  Cl39  1  0.84435250  0.46664750  0.13031600  1
  Cl  Cl40  1  0.00000000  0.33223800  0.39212000  1
  Cl  Cl41  1  0.00000000  0.66776200  0.89212000  1
  Cl  Cl42  1  0.00000000  0.08866000  0.60969400  1
  Cl  Cl43  1  0.00000000  0.91134000  0.10969400  1
  Cl  Cl44  1  0.65755050  0.65278450  0.38238800  1
  Cl  Cl45  1  0.34244950  0.34721550  0.88238800  1
  Cl  Cl46  1  0.34244950  0.65278450  0.38238800  1
  Cl  Cl47  1  0.65755050  0.34721550  0.88238800  1
  Cl  Cl48  1  0.15873400  0.26634000  0.61718300  1
  Cl  Cl49  1  0.84126600  0.73366000  0.11718300  1
  Cl  Cl50  1  0.84126600  0.26634000  0.61718300  1
  Cl  Cl51  1  0.15873400  0.73366000  0.11718300  1
  Cl  Cl52  1  0.15564750  0.46664750  0.13031600  1
  Cl  Cl53  1  0.65836800  0.58410700  0.90098900  1
  Cl  Cl54  1  0.34163200  0.41589300  0.40098900  1
  Cl  Cl55  1  0.34163200  0.58410700  0.90098900  1
  Cl  Cl56  1  0.00000000  0.73562700  0.40861700  1
  Cl  Cl57  1  0.00000000  0.26437300  0.90861700  1
  Cl  Cl58  1  0.00000000  0.86020900  0.63474100  1
  Cl  Cl59  1  0.00000000  0.13979100  0.13474100  1
  Cl  Cl60  1  0.00000000  0.55829800  0.33387500  1
  Cl  Cl61  1  0.00000000  0.44170200  0.83387500  1
  Cl  Cl62  1  0.84435250  0.53335250  0.63031600  1
  Cl  Cl63  1  0.15564750  0.53335250  0.63031600  1
