# generated using pymatgen
data_K2H12Ru(SO7)2
_symmetry_space_group_name_H-M   'P 1'
_cell_length_a   6.22444800
_cell_length_b   12.45810700
_cell_length_c   8.98158780
_cell_angle_alpha   90.00000000
_cell_angle_beta   104.92440764
_cell_angle_gamma   90.00000000
_symmetry_Int_Tables_number   1
_chemical_formula_structural   K2H12Ru(SO7)2
_chemical_formula_sum   'K4 H24 Ru2 S4 O28'
_cell_volume   672.98118429
_cell_formula_units_Z   2
loop_
 _symmetry_equiv_pos_site_id
 _symmetry_equiv_pos_as_xyz
  1  'x, y, z'
loop_
 _atom_site_type_symbol
 _atom_site_label
 _atom_site_symmetry_multiplicity
 _atom_site_fract_x
 _atom_site_fract_y
 _atom_site_fract_z
 _atom_site_occupancy
  K  K0  1  0.64661600  0.84727000  0.35830300  1
  K  K1  1  0.35338400  0.34727000  0.14169700  1
  K  K2  1  0.35338400  0.15273000  0.64169700  1
  K  K3  1  0.64661600  0.65273000  0.85830300  1
  H  H4  1  0.65283300  0.44031100  0.59733400  1
  H  H5  1  0.34716700  0.94031100  0.90266600  1
  H  H6  1  0.99647500  0.69089400  0.63733900  1
  H  H7  1  0.00352500  0.19089400  0.86266100  1
  H  H8  1  0.00352500  0.30910600  0.36266100  1
  H  H9  1  0.99647500  0.80910600  0.13733900  1
  H  H10  1  0.09087100  0.37625000  0.75394300  1
  H  H11  1  0.90912900  0.87625000  0.74605700  1
  H  H12  1  0.90912900  0.62375000  0.24605700  1
  H  H13  1  0.09087100  0.12375000  0.25394300  1
  H  H14  1  0.32267800  0.41137900  0.72093800  1
  H  H15  1  0.67732200  0.91137900  0.77906200  1
  H  H16  1  0.67732200  0.58862100  0.27906200  1
  H  H17  1  0.32267800  0.08862100  0.22093800  1
  H  H18  1  0.34716700  0.55968900  0.40266600  1
  H  H19  1  0.65283300  0.05968900  0.09733400  1
  H  H20  1  0.67067200  0.35331100  0.47286600  1
  H  H21  1  0.32932800  0.85331100  0.02713400  1
  H  H22  1  0.93253900  0.10318600  0.73032300  1
  H  H23  1  0.06746100  0.60318600  0.76967700  1
  H  H24  1  0.67067200  0.14668900  0.97286600  1
  H  H25  1  0.32932800  0.64668900  0.52713400  1
  H  H26  1  0.93253900  0.39681400  0.23032300  1
  H  H27  1  0.06746100  0.89681400  0.26967700  1
  Ru  Ru28  1  0.00000000  0.50000000  0.50000000  1
  Ru  Ru29  1  0.00000000  0.00000000  0.00000000  1
  S  S30  1  0.26908900  0.63595000  0.08666300  1
  S  S31  1  0.73091100  0.36405000  0.91333700  1
  S  S32  1  0.26908900  0.86405000  0.58666300  1
  S  S33  1  0.73091100  0.13595000  0.41333700  1
  O  O34  1  0.38255500  0.93621200  0.71650200  1
  O  O35  1  0.38255500  0.56378800  0.21650200  1
  O  O36  1  0.58420600  0.26894200  0.91385900  1
  O  O37  1  0.41579400  0.76894200  0.58614100  1
  O  O38  1  0.41579400  0.73105800  0.08614100  1
  O  O39  1  0.58420600  0.23105800  0.41385900  1
  O  O40  1  0.76298900  0.42413300  0.06054400  1
  O  O41  1  0.61744500  0.43621200  0.78349800  1
  O  O42  1  0.23701100  0.57586700  0.93945600  1
  O  O43  1  0.76298900  0.07586700  0.56054400  1
  O  O44  1  0.95104200  0.17261100  0.39211200  1
  O  O45  1  0.04895800  0.67261100  0.10788800  1
  O  O46  1  0.04895800  0.82738900  0.60788800  1
  O  O47  1  0.95104200  0.32738900  0.89211200  1
  O  O48  1  0.68564800  0.43182500  0.49552800  1
  O  O49  1  0.31435200  0.93182500  0.00447200  1
  O  O50  1  0.31435200  0.56817500  0.50447200  1
  O  O51  1  0.68564800  0.06817500  0.99552800  1
  O  O52  1  0.95934400  0.61763700  0.66762600  1
  O  O53  1  0.04065600  0.11763700  0.83237400  1
  O  O54  1  0.04065600  0.38236300  0.33237400  1
  O  O55  1  0.95934400  0.88236300  0.16762600  1
  O  O56  1  0.23701100  0.92413300  0.43945600  1
  O  O57  1  0.83117000  0.88662000  0.82863000  1
  O  O58  1  0.83117000  0.61338000  0.32863000  1
  O  O59  1  0.16883000  0.11338000  0.17137000  1
  O  O60  1  0.61744500  0.06378800  0.28349800  1
  O  O61  1  0.16883000  0.38662000  0.67137000  1
