# generated using pymatgen
data_In3(PO4)2
_symmetry_space_group_name_H-M   'P 1'
_cell_length_a   11.32839000
_cell_length_b   11.32839000
_cell_length_c   11.32839000
_cell_angle_alpha   90.00000000
_cell_angle_beta   90.00000000
_cell_angle_gamma   90.00000000
_symmetry_Int_Tables_number   1
_chemical_formula_structural   In3(PO4)2
_chemical_formula_sum   'In24 P16 O64'
_cell_volume   1453.79970331
_cell_formula_units_Z   8
loop_
 _symmetry_equiv_pos_site_id
 _symmetry_equiv_pos_as_xyz
  1  'x, y, z'
loop_
 _atom_site_type_symbol
 _atom_site_label
 _atom_site_symmetry_multiplicity
 _atom_site_fract_x
 _atom_site_fract_y
 _atom_site_fract_z
 _atom_site_occupancy
  In  In0  1  0.75000000  0.49435800  0.50000000  1
  In  In1  1  0.75000000  0.25564200  0.50000000  1
  In  In2  1  0.24435800  0.50000000  0.25000000  1
  In  In3  1  0.50000000  0.75000000  0.25564200  1
  In  In4  1  0.25564200  0.50000000  0.75000000  1
  In  In5  1  0.50000000  0.25000000  0.24435800  1
  In  In6  1  0.25000000  0.00564200  0.50000000  1
  In  In7  1  0.50000000  0.75000000  0.49435800  1
  In  In8  1  0.50000000  0.25000000  0.00564200  1
  In  In9  1  0.49435800  0.50000000  0.75000000  1
  In  In10  1  0.00564200  0.50000000  0.25000000  1
  In  In11  1  0.25000000  0.24435800  0.50000000  1
  In  In12  1  0.25000000  0.99435800  0.00000000  1
  In  In13  1  0.25000000  0.75564200  0.00000000  1
  In  In14  1  0.74435800  0.00000000  0.75000000  1
  In  In15  1  0.00000000  0.25000000  0.75564200  1
  In  In16  1  0.75564200  0.00000000  0.25000000  1
  In  In17  1  0.00000000  0.75000000  0.74435800  1
  In  In18  1  0.75000000  0.50564200  0.00000000  1
  In  In19  1  0.00000000  0.25000000  0.99435800  1
  In  In20  1  0.00000000  0.75000000  0.50564200  1
  In  In21  1  0.99435800  0.00000000  0.25000000  1
  In  In22  1  0.50564200  0.00000000  0.75000000  1
  In  In23  1  0.75000000  0.74435800  0.00000000  1
  P  P24  1  0.79612400  0.29612400  0.20387600  1
  P  P25  1  0.95387600  0.04612400  0.54612400  1
  P  P26  1  0.45387600  0.45387600  0.45387600  1
  P  P27  1  0.54612400  0.95387600  0.04612400  1
  P  P28  1  0.20387600  0.20387600  0.20387600  1
  P  P29  1  0.29612400  0.20387600  0.79612400  1
  P  P30  1  0.20387600  0.79612400  0.29612400  1
  P  P31  1  0.04612400  0.54612400  0.95387600  1
  P  P32  1  0.29612400  0.79612400  0.70387600  1
  P  P33  1  0.45387600  0.54612400  0.04612400  1
  P  P34  1  0.95387600  0.95387600  0.95387600  1
  P  P35  1  0.04612400  0.45387600  0.54612400  1
  P  P36  1  0.70387600  0.70387600  0.70387600  1
  P  P37  1  0.79612400  0.70387600  0.29612400  1
  P  P38  1  0.70387600  0.29612400  0.79612400  1
  P  P39  1  0.54612400  0.04612400  0.45387600  1
  O  O40  1  0.21535050  0.71535050  0.78464950  1
  O  O41  1  0.03464950  0.96535050  0.46535050  1
  O  O42  1  0.03464950  0.03464950  0.03464950  1
  O  O43  1  0.46535050  0.03464950  0.96535050  1
  O  O44  1  0.28464950  0.28464950  0.28464950  1
  O  O45  1  0.71535050  0.78464950  0.21535050  1
  O  O46  1  0.78464950  0.21535050  0.71535050  1
  O  O47  1  0.96535050  0.46535050  0.03464950  1
  O  O48  1  0.28682500  0.87685100  0.36868800  1
  O  O49  1  0.36868800  0.28682500  0.87685100  1
  O  O50  1  0.12314900  0.13131200  0.28682500  1
  O  O51  1  0.21317500  0.87685100  0.63131200  1
  O  O52  1  0.36868800  0.71317500  0.62314900  1
  O  O53  1  0.87685100  0.36868800  0.28682500  1
  O  O54  1  0.88131200  0.12685100  0.46317500  1
  O  O55  1  0.11868800  0.37314900  0.46317500  1
  O  O56  1  0.38131200  0.37314900  0.53682500  1
  O  O57  1  0.46317500  0.11868800  0.37314900  1
  O  O58  1  0.12685100  0.46317500  0.88131200  1
  O  O59  1  0.62685100  0.03682500  0.11868800  1
  O  O60  1  0.11868800  0.62685100  0.03682500  1
  O  O61  1  0.62314900  0.36868800  0.71317500  1
  O  O62  1  0.87685100  0.63131200  0.21317500  1
  O  O63  1  0.13131200  0.28682500  0.12314900  1
  O  O64  1  0.63131200  0.21317500  0.87685100  1
  O  O65  1  0.71317500  0.62314900  0.36868800  1
  O  O66  1  0.28682500  0.12314900  0.13131200  1
  O  O67  1  0.46317500  0.88131200  0.12685100  1
  O  O68  1  0.37314900  0.53682500  0.38131200  1
  O  O69  1  0.53682500  0.38131200  0.37314900  1
  O  O70  1  0.37314900  0.46317500  0.11868800  1
  O  O71  1  0.03682500  0.11868800  0.62685100  1
  O  O72  1  0.71535050  0.21535050  0.28464950  1
  O  O73  1  0.53464950  0.46535050  0.96535050  1
  O  O74  1  0.53464950  0.53464950  0.53464950  1
  O  O75  1  0.96535050  0.53464950  0.46535050  1
  O  O76  1  0.78464950  0.78464950  0.78464950  1
  O  O77  1  0.21535050  0.28464950  0.71535050  1
  O  O78  1  0.28464950  0.71535050  0.21535050  1
  O  O79  1  0.46535050  0.96535050  0.53464950  1
  O  O80  1  0.78682500  0.37685100  0.86868800  1
  O  O81  1  0.86868800  0.78682500  0.37685100  1
  O  O82  1  0.62314900  0.63131200  0.78682500  1
  O  O83  1  0.71317500  0.37685100  0.13131200  1
  O  O84  1  0.86868800  0.21317500  0.12314900  1
  O  O85  1  0.37685100  0.86868800  0.78682500  1
  O  O86  1  0.38131200  0.62685100  0.96317500  1
  O  O87  1  0.61868800  0.87314900  0.96317500  1
  O  O88  1  0.88131200  0.87314900  0.03682500  1
  O  O89  1  0.96317500  0.61868800  0.87314900  1
  O  O90  1  0.62685100  0.96317500  0.38131200  1
  O  O91  1  0.12685100  0.53682500  0.61868800  1
  O  O92  1  0.61868800  0.12685100  0.53682500  1
  O  O93  1  0.12314900  0.86868800  0.21317500  1
  O  O94  1  0.37685100  0.13131200  0.71317500  1
  O  O95  1  0.63131200  0.78682500  0.62314900  1
  O  O96  1  0.13131200  0.71317500  0.37685100  1
  O  O97  1  0.21317500  0.12314900  0.86868800  1
  O  O98  1  0.78682500  0.62314900  0.63131200  1
  O  O99  1  0.96317500  0.38131200  0.62685100  1
  O  O100  1  0.87314900  0.03682500  0.88131200  1
  O  O101  1  0.03682500  0.88131200  0.87314900  1
  O  O102  1  0.87314900  0.96317500  0.61868800  1
  O  O103  1  0.53682500  0.61868800  0.12685100  1
