# generated using pymatgen
data_CaInBr3
_symmetry_space_group_name_H-M   'P 1'
_cell_length_a   4.30185000
_cell_length_b   14.38928400
_cell_length_c   10.96129200
_cell_angle_alpha   90.00000000
_cell_angle_beta   90.00000000
_cell_angle_gamma   90.00000000
_symmetry_Int_Tables_number   1
_chemical_formula_structural   CaInBr3
_chemical_formula_sum   'Ca4 In4 Br12'
_cell_volume   678.50990897
_cell_formula_units_Z   4
loop_
 _symmetry_equiv_pos_site_id
 _symmetry_equiv_pos_as_xyz
  1  'x, y, z'
loop_
 _atom_site_type_symbol
 _atom_site_label
 _atom_site_symmetry_multiplicity
 _atom_site_fract_x
 _atom_site_fract_y
 _atom_site_fract_z
 _atom_site_occupancy
  Ca  Ca0  1  0.50000000  0.00000000  0.00000000  1
  Ca  Ca1  1  0.50000000  0.00000000  0.50000000  1
  Ca  Ca2  1  0.00000000  0.50000000  0.00000000  1
  Ca  Ca3  1  0.00000000  0.50000000  0.50000000  1
  In  In4  1  0.00000000  0.23634400  0.75000000  1
  In  In5  1  0.50000000  0.26365600  0.25000000  1
  In  In6  1  0.50000000  0.73634400  0.75000000  1
  In  In7  1  0.00000000  0.76365600  0.25000000  1
  Br  Br8  1  0.00000000  0.43063700  0.25000000  1
  Br  Br9  1  0.50000000  0.06936300  0.75000000  1
  Br  Br10  1  0.50000000  0.36677100  0.95290000  1
  Br  Br11  1  0.00000000  0.13322900  0.04710000  1
  Br  Br12  1  0.00000000  0.13322900  0.45290000  1
  Br  Br13  1  0.50000000  0.36677100  0.54710000  1
  Br  Br14  1  0.50000000  0.93063700  0.25000000  1
  Br  Br15  1  0.00000000  0.56936300  0.75000000  1
  Br  Br16  1  0.00000000  0.86677100  0.95290000  1
  Br  Br17  1  0.50000000  0.63322900  0.04710000  1
  Br  Br18  1  0.50000000  0.63322900  0.45290000  1
  Br  Br19  1  0.00000000  0.86677100  0.54710000  1
