# generated using pymatgen
data_Na3BS3
_symmetry_space_group_name_H-M   'P 1'
_cell_length_a   11.90933200
_cell_length_b   6.69642200
_cell_length_c   8.44995169
_cell_angle_alpha   90.00000000
_cell_angle_beta   118.02580606
_cell_angle_gamma   90.00000000
_symmetry_Int_Tables_number   1
_chemical_formula_structural   Na3BS3
_chemical_formula_sum   'Na12 B4 S12'
_cell_volume   594.86074039
_cell_formula_units_Z   4
loop_
 _symmetry_equiv_pos_site_id
 _symmetry_equiv_pos_as_xyz
  1  'x, y, z'
loop_
 _atom_site_type_symbol
 _atom_site_label
 _atom_site_symmetry_multiplicity
 _atom_site_fract_x
 _atom_site_fract_y
 _atom_site_fract_z
 _atom_site_occupancy
  Na  Na0  1  0.40319200  0.21520900  0.99562900  1
  Na  Na1  1  0.90319200  0.28479100  0.49562900  1
  Na  Na2  1  0.75000000  0.25000000  0.00000000  1
  Na  Na3  1  0.25000000  0.25000000  0.50000000  1
  Na  Na4  1  0.59680800  0.78479100  0.00437100  1
  Na  Na5  1  0.09680800  0.71520900  0.50437100  1
  Na  Na6  1  0.90319200  0.71520900  0.99562900  1
  Na  Na7  1  0.40319200  0.78479100  0.49562900  1
  Na  Na8  1  0.25000000  0.75000000  0.00000000  1
  Na  Na9  1  0.75000000  0.75000000  0.50000000  1
  Na  Na10  1  0.09680800  0.28479100  0.00437100  1
  Na  Na11  1  0.59680800  0.21520900  0.50437100  1
  B  B12  1  0.00000000  0.07806900  0.25000000  1
  B  B13  1  0.00000000  0.92193100  0.75000000  1
  B  B14  1  0.50000000  0.57806900  0.25000000  1
  B  B15  1  0.50000000  0.42193100  0.75000000  1
  S  S16  1  0.36491550  0.55771850  0.74681900  1
  S  S17  1  0.13508450  0.05771850  0.75318100  1
  S  S18  1  0.63508450  0.44228150  0.25318100  1
  S  S19  1  0.86491550  0.94228150  0.24681900  1
  S  S20  1  0.00000000  0.64392200  0.75000000  1
  S  S21  1  0.00000000  0.35607800  0.25000000  1
  S  S22  1  0.86491550  0.05771850  0.74681900  1
  S  S23  1  0.63508450  0.55771850  0.75318100  1
  S  S24  1  0.13508450  0.94228150  0.25318100  1
  S  S25  1  0.36491550  0.44228150  0.24681900  1
  S  S26  1  0.50000000  0.14392200  0.75000000  1
  S  S27  1  0.50000000  0.85607800  0.25000000  1
