# generated using pymatgen
data_Rb4CdBr6
_symmetry_space_group_name_H-M   'P 1'
_cell_length_a   13.33476197
_cell_length_b   13.33476197
_cell_length_c   16.60612886
_cell_angle_alpha   90.00000000
_cell_angle_beta   90.00000000
_cell_angle_gamma   120.00000000
_symmetry_Int_Tables_number   1
_chemical_formula_structural   Rb4CdBr6
_chemical_formula_sum   'Rb24 Cd6 Br36'
_cell_volume   2557.22870559
_cell_formula_units_Z   6
loop_
 _symmetry_equiv_pos_site_id
 _symmetry_equiv_pos_as_xyz
  1  'x, y, z'
loop_
 _atom_site_type_symbol
 _atom_site_label
 _atom_site_symmetry_multiplicity
 _atom_site_fract_x
 _atom_site_fract_y
 _atom_site_fract_z
 _atom_site_occupancy
  Rb  Rb0  1  0.28422667  0.33333333  0.08333333  1
  Rb  Rb1  1  0.66666667  0.95089333  0.08333333  1
  Rb  Rb2  1  0.04910667  0.71577333  0.08333333  1
  Rb  Rb3  1  0.38244000  0.00000000  0.25000000  1
  Rb  Rb4  1  0.00000000  0.38244000  0.25000000  1
  Rb  Rb5  1  0.61756000  0.61756000  0.25000000  1
  Rb  Rb6  1  0.33333333  0.66666667  0.41666667  1
  Rb  Rb7  1  0.33333333  0.66666667  0.91666667  1
  Rb  Rb8  1  0.95089333  0.66666667  0.41666667  1
  Rb  Rb9  1  0.33333333  0.28422667  0.41666667  1
  Rb  Rb10  1  0.71577333  0.04910667  0.41666667  1
  Rb  Rb11  1  0.04910667  0.33333333  0.58333333  1
  Rb  Rb12  1  0.66666667  0.71577333  0.58333333  1
  Rb  Rb13  1  0.28422667  0.95089333  0.58333333  1
  Rb  Rb14  1  0.00000000  0.00000000  0.75000000  1
  Rb  Rb15  1  0.00000000  0.00000000  0.25000000  1
  Rb  Rb16  1  0.61756000  0.00000000  0.75000000  1
  Rb  Rb17  1  0.00000000  0.61756000  0.75000000  1
  Rb  Rb18  1  0.38244000  0.38244000  0.75000000  1
  Rb  Rb19  1  0.71577333  0.66666667  0.91666667  1
  Rb  Rb20  1  0.33333333  0.04910667  0.91666667  1
  Rb  Rb21  1  0.95089333  0.28422667  0.91666667  1
  Rb  Rb22  1  0.66666667  0.33333333  0.08333333  1
  Rb  Rb23  1  0.66666667  0.33333333  0.58333333  1
  Cd  Cd24  1  0.33333333  0.66666667  0.16666667  1
  Cd  Cd25  1  0.00000000  0.00000000  0.00000000  1
  Cd  Cd26  1  1.00000000  0.00000000  0.50000000  1
  Cd  Cd27  1  0.66666667  0.33333333  0.33333333  1
  Cd  Cd28  1  0.66666667  0.33333333  0.83333333  1
  Cd  Cd29  1  0.33333333  0.66666667  0.66666667  1
  Br  Br30  1  0.36498667  0.85513833  0.06758433  1
  Br  Br31  1  0.14486167  0.50984833  0.06758433  1
  Br  Br32  1  0.49015167  0.63501333  0.06758433  1
  Br  Br33  1  0.84318167  0.81152833  0.09908233  1
  Br  Br34  1  0.18847167  0.03165333  0.09908233  1
  Br  Br35  1  0.96834667  0.15681833  0.09908233  1
  Br  Br36  1  0.30168000  0.47819500  0.26574900  1
  Br  Br37  1  0.52180500  0.82348500  0.26574900  1
  Br  Br38  1  0.17651500  0.69832000  0.26574900  1
  Br  Br39  1  0.82348500  0.52180500  0.23425100  1
  Br  Br40  1  0.69832000  0.17651500  0.23425100  1
  Br  Br41  1  0.47819500  0.30168000  0.23425100  1
  Br  Br42  1  0.03165333  0.18847167  0.40091767  1
  Br  Br43  1  0.81152833  0.84318167  0.40091767  1
  Br  Br44  1  0.15681833  0.96834667  0.40091767  1
  Br  Br45  1  0.50984833  0.14486167  0.43241567  1
  Br  Br46  1  0.85513833  0.36498667  0.43241567  1
  Br  Br47  1  0.63501333  0.49015167  0.43241567  1
  Br  Br48  1  0.96834667  0.81152833  0.59908233  1
  Br  Br49  1  0.18847167  0.15681833  0.59908233  1
  Br  Br50  1  0.84318167  0.03165333  0.59908233  1
  Br  Br51  1  0.49015167  0.85513833  0.56758433  1
  Br  Br52  1  0.36498667  0.50984833  0.56758433  1
  Br  Br53  1  0.14486167  0.63501333  0.56758433  1
  Br  Br54  1  0.69832000  0.52180500  0.73425100  1
  Br  Br55  1  0.47819500  0.17651500  0.73425100  1
  Br  Br56  1  0.82348500  0.30168000  0.73425100  1
  Br  Br57  1  0.17651500  0.47819500  0.76574900  1
  Br  Br58  1  0.52180500  0.69832000  0.76574900  1
  Br  Br59  1  0.30168000  0.82348500  0.76574900  1
  Br  Br60  1  0.63501333  0.14486167  0.93241567  1
  Br  Br61  1  0.85513833  0.49015167  0.93241567  1
  Br  Br62  1  0.50984833  0.36498667  0.93241567  1
  Br  Br63  1  0.15681833  0.18847167  0.90091767  1
  Br  Br64  1  0.03165333  0.84318167  0.90091767  1
  Br  Br65  1  0.81152833  0.96834667  0.90091767  1
