# generated using pymatgen
data_Sr4I6O
_symmetry_space_group_name_H-M   'P 1'
_cell_length_a   10.61946966
_cell_length_b   10.61946966
_cell_length_c   8.20692800
_cell_angle_alpha   90.00000000
_cell_angle_beta   90.00000000
_cell_angle_gamma   120.00000000
_symmetry_Int_Tables_number   1
_chemical_formula_structural   Sr4I6O
_chemical_formula_sum   'Sr8 I12 O2'
_cell_volume   801.52470260
_cell_formula_units_Z   2
loop_
 _symmetry_equiv_pos_site_id
 _symmetry_equiv_pos_as_xyz
  1  'x, y, z'
loop_
 _atom_site_type_symbol
 _atom_site_label
 _atom_site_symmetry_multiplicity
 _atom_site_fract_x
 _atom_site_fract_y
 _atom_site_fract_z
 _atom_site_occupancy
  Sr  Sr0  1  0.79308250  0.20691750  0.98910000  1
  Sr  Sr1  1  0.20691750  0.41383500  0.48910000  1
  Sr  Sr2  1  0.33333333  0.66666667  0.87621600  1
  Sr  Sr3  1  0.41383500  0.20691750  0.98910000  1
  Sr  Sr4  1  0.79308250  0.58616500  0.98910000  1
  Sr  Sr5  1  0.58616500  0.79308250  0.48910000  1
  Sr  Sr6  1  0.20691750  0.79308250  0.48910000  1
  Sr  Sr7  1  0.66666667  0.33333333  0.37621600  1
  I  I8  1  0.46386650  0.53613350  0.18219000  1
  I  I9  1  0.07226700  0.53613350  0.18219000  1
  I  I10  1  0.53613350  0.46386650  0.68219000  1
  I  I11  1  0.46386650  0.92773300  0.18219000  1
  I  I12  1  0.13630800  0.86369200  0.86367400  1
  I  I13  1  0.27261600  0.13630800  0.36367400  1
  I  I14  1  0.86369200  0.72738400  0.36367400  1
  I  I15  1  0.13630800  0.27261600  0.86367400  1
  I  I16  1  0.72738400  0.86369200  0.86367400  1
  I  I17  1  0.86369200  0.13630800  0.36367400  1
  I  I18  1  0.53613350  0.07226700  0.68219000  1
  I  I19  1  0.92773300  0.46386650  0.68219000  1
  O  O20  1  0.33333333  0.66666667  0.58221400  1
  O  O21  1  0.66666667  0.33333333  0.08221400  1
