# generated using pymatgen
data_NaClO3
_symmetry_space_group_name_H-M   'P 1'
_cell_length_a   6.68960600
_cell_length_b   6.68960600
_cell_length_c   6.68960600
_cell_angle_alpha   90.00000000
_cell_angle_beta   90.00000000
_cell_angle_gamma   90.00000000
_symmetry_Int_Tables_number   1
_chemical_formula_structural   NaClO3
_chemical_formula_sum   'Na4 Cl4 O12'
_cell_volume   299.36541041
_cell_formula_units_Z   4
loop_
 _symmetry_equiv_pos_site_id
 _symmetry_equiv_pos_as_xyz
  1  'x, y, z'
loop_
 _atom_site_type_symbol
 _atom_site_label
 _atom_site_symmetry_multiplicity
 _atom_site_fract_x
 _atom_site_fract_y
 _atom_site_fract_z
 _atom_site_occupancy
  Na  Na0  1  0.06422900  0.06422900  0.06422900  1
  Na  Na1  1  0.43577100  0.93577100  0.56422900  1
  Na  Na2  1  0.56422900  0.43577100  0.93577100  1
  Na  Na3  1  0.93577100  0.56422900  0.43577100  1
  Cl  Cl4  1  0.42174500  0.42174500  0.42174500  1
  Cl  Cl5  1  0.07825500  0.57825500  0.92174500  1
  Cl  Cl6  1  0.92174500  0.07825500  0.57825500  1
  Cl  Cl7  1  0.57825500  0.92174500  0.07825500  1
  O  O8  1  0.19285800  0.40387300  0.00798400  1
  O  O9  1  0.69285800  0.09612700  0.99201600  1
  O  O10  1  0.80714200  0.90387300  0.49201600  1
  O  O11  1  0.09612700  0.99201600  0.69285800  1
  O  O12  1  0.49201600  0.80714200  0.90387300  1
  O  O13  1  0.99201600  0.69285800  0.09612700  1
  O  O14  1  0.40387300  0.00798400  0.19285800  1
  O  O15  1  0.00798400  0.19285800  0.40387300  1
  O  O16  1  0.30714200  0.59612700  0.50798400  1
  O  O17  1  0.50798400  0.30714200  0.59612700  1
  O  O18  1  0.59612700  0.50798400  0.30714200  1
  O  O19  1  0.90387300  0.49201600  0.80714200  1
