# generated using pymatgen
data_K2(NbCl3)3
_symmetry_space_group_name_H-M   'P 1'
_cell_length_a   10.28639600
_cell_length_b   16.91373400
_cell_length_c   9.78132327
_cell_angle_alpha   90.00000000
_cell_angle_beta   115.19388959
_cell_angle_gamma   90.00000000
_symmetry_Int_Tables_number   1
_chemical_formula_structural   K2(NbCl3)3
_chemical_formula_sum   'K8 Nb12 Cl36'
_cell_volume   1539.88297116
_cell_formula_units_Z   4
loop_
 _symmetry_equiv_pos_site_id
 _symmetry_equiv_pos_as_xyz
  1  'x, y, z'
loop_
 _atom_site_type_symbol
 _atom_site_label
 _atom_site_symmetry_multiplicity
 _atom_site_fract_x
 _atom_site_fract_y
 _atom_site_fract_z
 _atom_site_occupancy
  K  K0  1  0.39038800  0.16075000  0.67265200  1
  K  K1  1  0.60961200  0.16075000  0.32734800  1
  K  K2  1  0.60961200  0.83925000  0.32734800  1
  K  K3  1  0.39038800  0.83925000  0.67265200  1
  K  K4  1  0.89038800  0.66075000  0.67265200  1
  K  K5  1  0.10961200  0.66075000  0.32734800  1
  K  K6  1  0.10961200  0.33925000  0.32734800  1
  K  K7  1  0.89038800  0.33925000  0.67265200  1
  Nb  Nb8  1  0.86644950  0.91302550  0.85970300  1
  Nb  Nb9  1  0.13355050  0.91302550  0.14029700  1
  Nb  Nb10  1  0.86644950  0.08697450  0.85970300  1
  Nb  Nb11  1  0.13355050  0.08697450  0.14029700  1
  Nb  Nb12  1  0.88046900  0.00000000  0.12763000  1
  Nb  Nb13  1  0.11953100  0.00000000  0.87237000  1
  Nb  Nb14  1  0.36644950  0.41302550  0.85970300  1
  Nb  Nb15  1  0.63355050  0.41302550  0.14029700  1
  Nb  Nb16  1  0.36644950  0.58697450  0.85970300  1
  Nb  Nb17  1  0.63355050  0.58697450  0.14029700  1
  Nb  Nb18  1  0.38046900  0.50000000  0.12763000  1
  Nb  Nb19  1  0.61953100  0.50000000  0.87237000  1
  Cl  Cl20  1  0.51759450  0.60260750  0.31405700  1
  Cl  Cl21  1  0.30447050  0.19651550  0.32241200  1
  Cl  Cl22  1  0.73062100  0.00000000  0.28519100  1
  Cl  Cl23  1  0.26937900  0.00000000  0.71480900  1
  Cl  Cl24  1  0.30447050  0.80348450  0.32241200  1
  Cl  Cl25  1  0.69552950  0.80348450  0.67758800  1
  Cl  Cl26  1  0.31701700  0.00000000  0.32943000  1
  Cl  Cl27  1  0.68298300  0.00000000  0.67057000  1
  Cl  Cl28  1  0.50000000  0.70575700  0.00000000  1
  Cl  Cl29  1  0.50000000  0.29424300  0.00000000  1
  Cl  Cl30  1  0.51759450  0.39739250  0.31405700  1
  Cl  Cl31  1  0.70202600  0.10329100  0.98435400  1
  Cl  Cl32  1  0.70202600  0.89670900  0.98435400  1
  Cl  Cl33  1  0.29797400  0.89670900  0.01564600  1
  Cl  Cl34  1  0.29797400  0.10329100  0.01564600  1
  Cl  Cl35  1  0.48240550  0.60260750  0.68594300  1
  Cl  Cl36  1  0.48240550  0.39739250  0.68594300  1
  Cl  Cl37  1  0.69552950  0.19651550  0.67758800  1
  Cl  Cl38  1  0.01759450  0.10260750  0.31405700  1
  Cl  Cl39  1  0.80447050  0.69651550  0.32241200  1
  Cl  Cl40  1  0.23062100  0.50000000  0.28519100  1
  Cl  Cl41  1  0.76937900  0.50000000  0.71480900  1
  Cl  Cl42  1  0.80447050  0.30348450  0.32241200  1
  Cl  Cl43  1  0.19552950  0.30348450  0.67758800  1
  Cl  Cl44  1  0.81701700  0.50000000  0.32943000  1
  Cl  Cl45  1  0.18298300  0.50000000  0.67057000  1
  Cl  Cl46  1  0.00000000  0.20575700  0.00000000  1
  Cl  Cl47  1  0.00000000  0.79424300  0.00000000  1
  Cl  Cl48  1  0.01759450  0.89739250  0.31405700  1
  Cl  Cl49  1  0.20202600  0.60329100  0.98435400  1
  Cl  Cl50  1  0.20202600  0.39670900  0.98435400  1
  Cl  Cl51  1  0.79797400  0.39670900  0.01564600  1
  Cl  Cl52  1  0.79797400  0.60329100  0.01564600  1
  Cl  Cl53  1  0.98240550  0.10260750  0.68594300  1
  Cl  Cl54  1  0.98240550  0.89739250  0.68594300  1
  Cl  Cl55  1  0.19552950  0.69651550  0.67758800  1
