# generated using pymatgen
data_PH6NO4
_symmetry_space_group_name_H-M   'P 1'
_cell_length_a   7.38728400
_cell_length_b   7.38728400
_cell_length_c   7.94847200
_cell_angle_alpha   90.00000000
_cell_angle_beta   90.00000000
_cell_angle_gamma   90.00000000
_symmetry_Int_Tables_number   1
_chemical_formula_structural   PH6NO4
_chemical_formula_sum   'P4 H24 N4 O16'
_cell_volume   433.76373497
_cell_formula_units_Z   4
loop_
 _symmetry_equiv_pos_site_id
 _symmetry_equiv_pos_as_xyz
  1  'x, y, z'
loop_
 _atom_site_type_symbol
 _atom_site_label
 _atom_site_symmetry_multiplicity
 _atom_site_fract_x
 _atom_site_fract_y
 _atom_site_fract_z
 _atom_site_occupancy
  P  P0  1  0.00000000  0.50000000  0.25000000  1
  P  P1  1  0.00000000  0.00000000  0.00000000  1
  P  P2  1  0.50000000  0.00000000  0.75000000  1
  P  P3  1  0.50000000  0.50000000  0.50000000  1
  H  H4  1  0.38540350  0.51947650  0.07393950  1
  H  H5  1  0.11459650  0.98052350  0.57393950  1
  H  H6  1  0.48052350  0.11459650  0.32393950  1
  H  H7  1  0.48052350  0.38540350  0.92606050  1
  H  H8  1  0.01947650  0.11459650  0.42606050  1
  H  H9  1  0.61459650  0.01947650  0.17606050  1
  H  H10  1  0.25000000  0.35474800  0.37500000  1
  H  H11  1  0.51947650  0.88540350  0.32393950  1
  H  H12  1  0.25000000  0.14525200  0.87500000  1
  H  H13  1  0.14525200  0.75000000  0.12500000  1
  H  H14  1  0.35474800  0.75000000  0.62500000  1
  H  H15  1  0.38540350  0.98052350  0.17606050  1
  H  H16  1  0.88540350  0.01947650  0.57393950  1
  H  H17  1  0.61459650  0.48052350  0.07393950  1
  H  H18  1  0.98052350  0.61459650  0.82393950  1
  H  H19  1  0.98052350  0.88540350  0.42606050  1
  H  H20  1  0.51947650  0.61459650  0.92606050  1
  H  H21  1  0.11459650  0.51947650  0.67606050  1
  H  H22  1  0.75000000  0.85474800  0.87500000  1
  H  H23  1  0.01947650  0.38540350  0.82393950  1
  H  H24  1  0.75000000  0.64525200  0.37500000  1
  H  H25  1  0.64525200  0.25000000  0.62500000  1
  H  H26  1  0.85474800  0.25000000  0.12500000  1
  H  H27  1  0.88540350  0.48052350  0.67606050  1
  N  N28  1  0.00000000  0.00000000  0.50000000  1
  N  N29  1  0.50000000  0.00000000  0.25000000  1
  N  N30  1  0.50000000  0.50000000  0.00000000  1
  N  N31  1  0.00000000  0.50000000  0.75000000  1
  O  O32  1  0.34882600  0.91236500  0.64067700  1
  O  O33  1  0.41236500  0.34882600  0.39067700  1
  O  O34  1  0.58763500  0.65117400  0.39067700  1
  O  O35  1  0.15117400  0.58763500  0.14067700  1
  O  O36  1  0.41236500  0.15117400  0.85932300  1
  O  O37  1  0.08763500  0.34882600  0.35932300  1
  O  O38  1  0.84882600  0.08763500  0.10932300  1
  O  O39  1  0.15117400  0.91236500  0.10932300  1
  O  O40  1  0.84882600  0.41236500  0.14067700  1
  O  O41  1  0.91236500  0.84882600  0.89067700  1
  O  O42  1  0.08763500  0.15117400  0.89067700  1
  O  O43  1  0.65117400  0.08763500  0.64067700  1
  O  O44  1  0.91236500  0.65117400  0.35932300  1
  O  O45  1  0.58763500  0.84882600  0.85932300  1
  O  O46  1  0.34882600  0.58763500  0.60932300  1
  O  O47  1  0.65117400  0.41236500  0.60932300  1
