# generated using pymatgen
data_Na2Te2As
_symmetry_space_group_name_H-M   'P 1'
_cell_length_a   8.80608700
_cell_length_b   9.91581900
_cell_length_c   14.08409600
_cell_angle_alpha   90.00000000
_cell_angle_beta   90.00000000
_cell_angle_gamma   90.00000000
_symmetry_Int_Tables_number   1
_chemical_formula_structural   Na2Te2As
_chemical_formula_sum   'Na16 Te16 As8'
_cell_volume   1229.81713318
_cell_formula_units_Z   8
loop_
 _symmetry_equiv_pos_site_id
 _symmetry_equiv_pos_as_xyz
  1  'x, y, z'
loop_
 _atom_site_type_symbol
 _atom_site_label
 _atom_site_symmetry_multiplicity
 _atom_site_fract_x
 _atom_site_fract_y
 _atom_site_fract_z
 _atom_site_occupancy
  Na  Na0  1  0.58810700  0.35901600  0.62990000  1
  Na  Na1  1  0.08810700  0.14098400  0.37010000  1
  Na  Na2  1  0.41189300  0.85901600  0.87010000  1
  Na  Na3  1  0.91189300  0.64098400  0.12990000  1
  Na  Na4  1  0.92468400  0.12549100  0.62386600  1
  Na  Na5  1  0.42468400  0.37450900  0.37613400  1
  Na  Na6  1  0.07531600  0.62549100  0.87613400  1
  Na  Na7  1  0.57531600  0.87450900  0.12386600  1
  Na  Na8  1  0.76823200  0.75306700  0.69144600  1
  Na  Na9  1  0.26823200  0.74693300  0.30855400  1
  Na  Na10  1  0.23176800  0.25306700  0.80855400  1
  Na  Na11  1  0.73176800  0.24693300  0.19144600  1
  Na  Na12  1  0.32304000  0.93941200  0.56240300  1
  Na  Na13  1  0.82304000  0.56058800  0.43759700  1
  Na  Na14  1  0.67696000  0.43941200  0.93759700  1
  Na  Na15  1  0.17696000  0.06058800  0.06240300  1
  Te  Te16  1  0.73640300  0.75438900  0.93306800  1
  Te  Te17  1  0.23640300  0.74561100  0.06693200  1
  Te  Te18  1  0.26359700  0.25438900  0.56693200  1
  Te  Te19  1  0.76359700  0.24561100  0.43306800  1
  Te  Te20  1  0.60303600  0.04083900  0.71402900  1
  Te  Te21  1  0.10303600  0.45916100  0.28597100  1
  Te  Te22  1  0.39696400  0.54083900  0.78597100  1
  Te  Te23  1  0.89696400  0.95916100  0.21402900  1
  Te  Te24  1  0.51739000  0.15891400  0.00049000  1
  Te  Te25  1  0.01739000  0.34108600  0.99951000  1
  Te  Te26  1  0.48261000  0.65891400  0.49951000  1
  Te  Te27  1  0.98261000  0.84108600  0.50049000  1
  Te  Te28  1  0.08354100  0.95053100  0.79250900  1
  Te  Te29  1  0.58354100  0.54946900  0.20749100  1
  Te  Te30  1  0.91645900  0.45053100  0.70749100  1
  Te  Te31  1  0.41645900  0.04946900  0.29250900  1
  As  As32  1  0.90049700  0.97448300  0.93944300  1
  As  As33  1  0.40049700  0.52551700  0.06055700  1
  As  As34  1  0.09950300  0.47448300  0.56055700  1
  As  As35  1  0.59950300  0.02551700  0.43944300  1
  As  As36  1  0.72597000  0.14843800  0.86551000  1
  As  As37  1  0.22597000  0.35156200  0.13449000  1
  As  As38  1  0.27403000  0.64843800  0.63449000  1
  As  As39  1  0.77403000  0.85156200  0.36551000  1
