# generated using pymatgen
data_PbSO3
_symmetry_space_group_name_H-M   'P 1'
_cell_length_a   5.57030200
_cell_length_b   6.90710200
_cell_length_c   8.05401800
_cell_angle_alpha   90.00000000
_cell_angle_beta   90.00000000
_cell_angle_gamma   90.00000000
_symmetry_Int_Tables_number   1
_chemical_formula_structural   PbSO3
_chemical_formula_sum   'Pb4 S4 O12'
_cell_volume   309.87547600
_cell_formula_units_Z   4
loop_
 _symmetry_equiv_pos_site_id
 _symmetry_equiv_pos_as_xyz
  1  'x, y, z'
loop_
 _atom_site_type_symbol
 _atom_site_label
 _atom_site_symmetry_multiplicity
 _atom_site_fract_x
 _atom_site_fract_y
 _atom_site_fract_z
 _atom_site_occupancy
  Pb  Pb0  1  0.25000000  0.35836300  0.68350800  1
  Pb  Pb1  1  0.75000000  0.64163700  0.31649200  1
  Pb  Pb2  1  0.75000000  0.85836300  0.81649200  1
  Pb  Pb3  1  0.25000000  0.14163700  0.18350800  1
  S  S4  1  0.75000000  0.35117900  0.96510800  1
  S  S5  1  0.25000000  0.64882100  0.03489200  1
  S  S6  1  0.25000000  0.85117900  0.53489200  1
  S  S7  1  0.75000000  0.14882100  0.46510800  1
  O  O8  1  0.03034500  0.78417300  0.06227800  1
  O  O9  1  0.53034500  0.21582700  0.93772200  1
  O  O10  1  0.96965500  0.28417300  0.43772200  1
  O  O11  1  0.46965500  0.71582700  0.56227800  1
  O  O12  1  0.96965500  0.21582700  0.93772200  1
  O  O13  1  0.46965500  0.78417300  0.06227800  1
  O  O14  1  0.03034500  0.71582700  0.56227800  1
  O  O15  1  0.53034500  0.28417300  0.43772200  1
  O  O16  1  0.75000000  0.01600400  0.31222700  1
  O  O17  1  0.25000000  0.98399600  0.68777300  1
  O  O18  1  0.25000000  0.51600400  0.18777300  1
  O  O19  1  0.75000000  0.48399600  0.81222700  1
