# generated using pymatgen
data_Sc2PbS4
_symmetry_space_group_name_H-M   'P 1'
_cell_length_a   3.78118400
_cell_length_b   11.77159400
_cell_length_c   13.77146500
_cell_angle_alpha   90.00000000
_cell_angle_beta   90.00000000
_cell_angle_gamma   90.00000000
_symmetry_Int_Tables_number   1
_chemical_formula_structural   Sc2PbS4
_chemical_formula_sum   'Sc8 Pb4 S16'
_cell_volume   612.97565893
_cell_formula_units_Z   4
loop_
 _symmetry_equiv_pos_site_id
 _symmetry_equiv_pos_as_xyz
  1  'x, y, z'
loop_
 _atom_site_type_symbol
 _atom_site_label
 _atom_site_symmetry_multiplicity
 _atom_site_fract_x
 _atom_site_fract_y
 _atom_site_fract_z
 _atom_site_occupancy
  Sc  Sc0  1  0.75000000  0.55749200  0.61079700  1
  Sc  Sc1  1  0.25000000  0.44250800  0.38920300  1
  Sc  Sc2  1  0.75000000  0.05749200  0.88920300  1
  Sc  Sc3  1  0.25000000  0.94250800  0.11079700  1
  Sc  Sc4  1  0.25000000  0.91816800  0.59697000  1
  Sc  Sc5  1  0.75000000  0.08183200  0.40303000  1
  Sc  Sc6  1  0.25000000  0.41816800  0.90303000  1
  Sc  Sc7  1  0.75000000  0.58183200  0.09697000  1
  Pb  Pb8  1  0.75000000  0.23980300  0.67053200  1
  Pb  Pb9  1  0.25000000  0.76019700  0.32946800  1
  Pb  Pb10  1  0.75000000  0.73980300  0.82946800  1
  Pb  Pb11  1  0.25000000  0.26019700  0.17053200  1
  S  S12  1  0.25000000  0.91338900  0.92694700  1
  S  S13  1  0.75000000  0.08661100  0.07305300  1
  S  S14  1  0.25000000  0.41338900  0.57305300  1
  S  S15  1  0.75000000  0.58661100  0.42694700  1
  S  S16  1  0.25000000  0.03083700  0.28437100  1
  S  S17  1  0.75000000  0.96916300  0.71562900  1
  S  S18  1  0.25000000  0.53083700  0.21562900  1
  S  S19  1  0.75000000  0.46916300  0.78437100  1
  S  S20  1  0.25000000  0.62138400  0.97166800  1
  S  S21  1  0.75000000  0.37861600  0.02833200  1
  S  S22  1  0.25000000  0.12138400  0.52833200  1
  S  S23  1  0.75000000  0.87861600  0.47166800  1
  S  S24  1  0.75000000  0.79657600  0.15806200  1
  S  S25  1  0.25000000  0.20342400  0.84193800  1
  S  S26  1  0.75000000  0.29657600  0.34193800  1
  S  S27  1  0.25000000  0.70342400  0.65806200  1
