# generated using pymatgen
data_La2ReO5
_symmetry_space_group_name_H-M   'P 1'
_cell_length_a   8.99052200
_cell_length_b   8.99052200
_cell_length_c   6.05915600
_cell_angle_alpha   90.00000000
_cell_angle_beta   90.00000000
_cell_angle_gamma   90.00000000
_symmetry_Int_Tables_number   1
_chemical_formula_structural   La2ReO5
_chemical_formula_sum   'La8 Re4 O20'
_cell_volume   489.75846406
_cell_formula_units_Z   4
loop_
 _symmetry_equiv_pos_site_id
 _symmetry_equiv_pos_as_xyz
  1  'x, y, z'
loop_
 _atom_site_type_symbol
 _atom_site_label
 _atom_site_symmetry_multiplicity
 _atom_site_fract_x
 _atom_site_fract_y
 _atom_site_fract_z
 _atom_site_occupancy
  La  La0  1  0.68183100  0.89500500  0.50000000  1
  La  La1  1  0.60499500  0.18183100  0.00000000  1
  La  La2  1  0.39500500  0.81816900  0.00000000  1
  La  La3  1  0.31816900  0.10499500  0.50000000  1
  La  La4  1  0.18183100  0.39500500  0.00000000  1
  La  La5  1  0.10499500  0.68183100  0.50000000  1
  La  La6  1  0.89500500  0.31816900  0.50000000  1
  La  La7  1  0.81816900  0.60499500  0.00000000  1
  Re  Re8  1  0.00000000  0.00000000  0.81208200  1
  Re  Re9  1  0.00000000  0.00000000  0.18791800  1
  Re  Re10  1  0.50000000  0.50000000  0.31208200  1
  Re  Re11  1  0.50000000  0.50000000  0.68791800  1
  O  O12  1  0.40449000  0.31205500  0.24149300  1
  O  O13  1  0.18794500  0.90449000  0.74149300  1
  O  O14  1  0.81205500  0.09551000  0.74149300  1
  O  O15  1  0.59551000  0.68794500  0.24149300  1
  O  O16  1  0.59551000  0.68794500  0.75850700  1
  O  O17  1  0.81205500  0.09551000  0.25850700  1
  O  O18  1  0.50000000  0.00000000  0.25000000  1
  O  O19  1  0.50000000  0.00000000  0.75000000  1
  O  O20  1  0.40449000  0.31205500  0.75850700  1
  O  O21  1  0.18794500  0.90449000  0.25850700  1
  O  O22  1  0.90449000  0.81205500  0.74149300  1
  O  O23  1  0.68794500  0.40449000  0.24149300  1
  O  O24  1  0.31205500  0.59551000  0.24149300  1
  O  O25  1  0.09551000  0.18794500  0.74149300  1
  O  O26  1  0.09551000  0.18794500  0.25850700  1
  O  O27  1  0.31205500  0.59551000  0.75850700  1
  O  O28  1  0.00000000  0.50000000  0.75000000  1
  O  O29  1  0.00000000  0.50000000  0.25000000  1
  O  O30  1  0.90449000  0.81205500  0.25850700  1
  O  O31  1  0.68794500  0.40449000  0.75850700  1
