# generated using pymatgen
data_BrF5
_symmetry_space_group_name_H-M   'P 1'
_cell_length_a   6.73278600
_cell_length_b   7.50090000
_cell_length_c   7.99567400
_cell_angle_alpha   90.00000000
_cell_angle_beta   90.00000000
_cell_angle_gamma   90.00000000
_symmetry_Int_Tables_number   1
_chemical_formula_structural   BrF5
_chemical_formula_sum   'Br4 F20'
_cell_volume   403.79716460
_cell_formula_units_Z   4
loop_
 _symmetry_equiv_pos_site_id
 _symmetry_equiv_pos_as_xyz
  1  'x, y, z'
loop_
 _atom_site_type_symbol
 _atom_site_label
 _atom_site_symmetry_multiplicity
 _atom_site_fract_x
 _atom_site_fract_y
 _atom_site_fract_z
 _atom_site_occupancy
  Br  Br0  1  0.50000000  0.32642900  0.25001400  1
  Br  Br1  1  0.50000000  0.67357100  0.75001400  1
  Br  Br2  1  0.00000000  0.82642900  0.25001400  1
  Br  Br3  1  0.00000000  0.17357100  0.75001400  1
  F  F4  1  0.26997050  0.81272050  0.25899700  1
  F  F5  1  0.73002950  0.18727950  0.75899700  1
  F  F6  1  0.50000000  0.84865000  0.89556300  1
  F  F7  1  0.50000000  0.15135000  0.39556300  1
  F  F8  1  0.50000000  0.84406400  0.59026100  1
  F  F9  1  0.50000000  0.15593600  0.09026100  1
  F  F10  1  0.50000000  0.52569700  0.93616600  1
  F  F11  1  0.50000000  0.47430300  0.43616600  1
  F  F12  1  0.26997050  0.18727950  0.75899700  1
  F  F13  1  0.73002950  0.81272050  0.25899700  1
  F  F14  1  0.76997050  0.31272050  0.25899700  1
  F  F15  1  0.23002950  0.68727950  0.75899700  1
  F  F16  1  0.00000000  0.34865000  0.89556300  1
  F  F17  1  0.00000000  0.65135000  0.39556300  1
  F  F18  1  0.00000000  0.34406400  0.59026100  1
  F  F19  1  0.00000000  0.65593600  0.09026100  1
  F  F20  1  0.00000000  0.02569700  0.93616600  1
  F  F21  1  0.00000000  0.97430300  0.43616600  1
  F  F22  1  0.76997050  0.68727950  0.75899700  1
  F  F23  1  0.23002950  0.31272050  0.25899700  1
