# generated using pymatgen
data_Li2Bi(PO4)2
_symmetry_space_group_name_H-M   'P 1'
_cell_length_a   8.59342358
_cell_length_b   8.59342358
_cell_length_c   7.87490400
_cell_angle_alpha   90.00000000
_cell_angle_beta   90.00000000
_cell_angle_gamma   120.00000000
_symmetry_Int_Tables_number   1
_chemical_formula_structural   Li2Bi(PO4)2
_chemical_formula_sum   'Li6 Bi3 P6 O24'
_cell_volume   503.62622631
_cell_formula_units_Z   3
loop_
 _symmetry_equiv_pos_site_id
 _symmetry_equiv_pos_as_xyz
  1  'x, y, z'
loop_
 _atom_site_type_symbol
 _atom_site_label
 _atom_site_symmetry_multiplicity
 _atom_site_fract_x
 _atom_site_fract_y
 _atom_site_fract_z
 _atom_site_occupancy
  Li  Li0  1  0.64484733  0.64460167  0.36538000  1
  Li  Li1  1  0.00000000  0.00000000  0.50247200  1
  Li  Li2  1  0.33333333  0.66666667  0.61664500  1
  Li  Li3  1  0.99975433  0.35515267  0.36538000  1
  Li  Li4  1  0.35539833  0.00024567  0.36538000  1
  Li  Li5  1  0.66666667  0.33333333  0.53657400  1
  Bi  Bi6  1  0.33333333  0.66666667  0.00056100  1
  Bi  Bi7  1  0.00000000  0.00000000  0.93678700  1
  Bi  Bi8  1  0.66666667  0.33333333  0.06143000  1
  P  P9  1  0.69230733  0.98095367  0.24284600  1
  P  P10  1  0.98227033  0.34703867  0.75253800  1
  P  P11  1  0.28864633  0.30769267  0.24284600  1
  P  P12  1  0.65296133  0.63523167  0.75253800  1
  P  P13  1  0.01904633  0.71135367  0.24284600  1
  P  P14  1  0.36476833  0.01772967  0.75253800  1
  O  O15  1  0.90661733  0.37256667  0.58658000  1
  O  O16  1  0.21767633  0.07544967  0.75598700  1
  O  O17  1  0.27650433  0.81182567  0.76393500  1
  O  O18  1  0.40663633  0.51662767  0.22871300  1
  O  O19  1  0.42029733  0.23064167  0.25294300  1
  O  O20  1  0.60034633  0.51061067  0.91195200  1
  O  O21  1  0.62743333  0.53405067  0.58658000  1
  O  O22  1  0.46594933  0.09338267  0.58658000  1
  O  O23  1  0.48938933  0.08973567  0.91195200  1
  O  O24  1  0.81034433  0.57970267  0.25294300  1
  O  O25  1  0.48337233  0.89000867  0.22871300  1
  O  O26  1  0.08786933  0.84416767  0.38963300  1
  O  O27  1  0.53532133  0.72349567  0.76393500  1
  O  O28  1  0.76935833  0.18965567  0.25294300  1
  O  O29  1  0.91026433  0.39965367  0.91195200  1
  O  O30  1  0.74846833  0.93008167  0.06771600  1
  O  O31  1  0.75629833  0.91213067  0.38963300  1
  O  O32  1  0.10999133  0.59336367  0.22871300  1
  O  O33  1  0.92455033  0.14222667  0.75598700  1
  O  O34  1  0.18817433  0.46467867  0.76393500  1
  O  O35  1  0.85777333  0.78232367  0.75598700  1
  O  O36  1  0.15583233  0.24370167  0.38963300  1
  O  O37  1  0.18161333  0.25153167  0.06771600  1
  O  O38  1  0.06991833  0.81838667  0.06771600  1
