# generated using pymatgen
data_Pb(ClO3)2
_symmetry_space_group_name_H-M   'P 1'
_cell_length_a   7.76029200
_cell_length_b   11.87501000
_cell_length_c   12.72967600
_cell_angle_alpha   90.00000000
_cell_angle_beta   90.00000000
_cell_angle_gamma   90.00000000
_symmetry_Int_Tables_number   1
_chemical_formula_structural   Pb(ClO3)2
_chemical_formula_sum   'Pb8 Cl16 O48'
_cell_volume   1173.08477141
_cell_formula_units_Z   8
loop_
 _symmetry_equiv_pos_site_id
 _symmetry_equiv_pos_as_xyz
  1  'x, y, z'
loop_
 _atom_site_type_symbol
 _atom_site_label
 _atom_site_symmetry_multiplicity
 _atom_site_fract_x
 _atom_site_fract_y
 _atom_site_fract_z
 _atom_site_occupancy
  Pb  Pb0  1  0.75415300  0.00000000  0.50000000  1
  Pb  Pb1  1  0.00415300  0.25000000  0.75000000  1
  Pb  Pb2  1  0.25415300  0.00000000  0.00000000  1
  Pb  Pb3  1  0.50415300  0.25000000  0.25000000  1
  Pb  Pb4  1  0.25415300  0.50000000  0.50000000  1
  Pb  Pb5  1  0.50415300  0.75000000  0.75000000  1
  Pb  Pb6  1  0.75415300  0.50000000  0.00000000  1
  Pb  Pb7  1  0.00415300  0.75000000  0.25000000  1
  Cl  Cl8  1  0.31026450  0.19804600  0.52186250  1
  Cl  Cl9  1  0.31026450  0.30195400  0.97813750  1
  Cl  Cl10  1  0.56026450  0.05195400  0.77186250  1
  Cl  Cl11  1  0.06026450  0.94804600  0.72813750  1
  Cl  Cl12  1  0.81026450  0.19804600  0.02186250  1
  Cl  Cl13  1  0.81026450  0.30195400  0.47813750  1
  Cl  Cl14  1  0.06026450  0.05195400  0.27186250  1
  Cl  Cl15  1  0.56026450  0.94804600  0.22813750  1
  Cl  Cl16  1  0.81026450  0.69804600  0.52186250  1
  Cl  Cl17  1  0.81026450  0.80195400  0.97813750  1
  Cl  Cl18  1  0.06026450  0.55195400  0.77186250  1
  Cl  Cl19  1  0.56026450  0.44804600  0.72813750  1
  Cl  Cl20  1  0.31026450  0.69804600  0.02186250  1
  Cl  Cl21  1  0.31026450  0.80195400  0.47813750  1
  Cl  Cl22  1  0.56026450  0.55195400  0.27186250  1
  Cl  Cl23  1  0.06026450  0.44804600  0.22813750  1
  O  O24  1  0.96504900  0.62829500  0.54248200  1
  O  O25  1  0.46504900  0.37170500  0.95751800  1
  O  O26  1  0.21504900  0.62170500  0.79248200  1
  O  O27  1  0.21504900  0.87829500  0.70751800  1
  O  O28  1  0.51781400  0.98897900  0.87212900  1
  O  O29  1  0.01781400  0.01102100  0.62787100  1
  O  O30  1  0.11619600  0.04250100  0.80366800  1
  O  O31  1  0.61619600  0.95749900  0.69633200  1
  O  O32  1  0.86619600  0.20749900  0.55366800  1
  O  O33  1  0.36619600  0.79250100  0.94633200  1
  O  O34  1  0.26781400  0.23897900  0.87787100  1
  O  O35  1  0.26781400  0.26102100  0.62212900  1
  O  O36  1  0.46504900  0.62829500  0.04248200  1
  O  O37  1  0.96504900  0.37170500  0.45751800  1
  O  O38  1  0.71504900  0.62170500  0.29248200  1
  O  O39  1  0.71504900  0.87829500  0.20751800  1
  O  O40  1  0.01781400  0.98897900  0.37212900  1
  O  O41  1  0.51781400  0.01102100  0.12787100  1
  O  O42  1  0.61619600  0.04250100  0.30366800  1
  O  O43  1  0.11619600  0.95749900  0.19633200  1
  O  O44  1  0.36619600  0.20749900  0.05366800  1
  O  O45  1  0.86619600  0.79250100  0.44633200  1
  O  O46  1  0.76781400  0.23897900  0.37787100  1
  O  O47  1  0.76781400  0.26102100  0.12212900  1
  O  O48  1  0.46504900  0.12829500  0.54248200  1
  O  O49  1  0.96504900  0.87170500  0.95751800  1
  O  O50  1  0.71504900  0.12170500  0.79248200  1
  O  O51  1  0.71504900  0.37829500  0.70751800  1
  O  O52  1  0.01781400  0.48897900  0.87212900  1
  O  O53  1  0.51781400  0.51102100  0.62787100  1
  O  O54  1  0.61619600  0.54250100  0.80366800  1
  O  O55  1  0.11619600  0.45749900  0.69633200  1
  O  O56  1  0.36619600  0.70749900  0.55366800  1
  O  O57  1  0.86619600  0.29250100  0.94633200  1
  O  O58  1  0.76781400  0.73897900  0.87787100  1
  O  O59  1  0.76781400  0.76102100  0.62212900  1
  O  O60  1  0.96504900  0.12829500  0.04248200  1
  O  O61  1  0.46504900  0.87170500  0.45751800  1
  O  O62  1  0.21504900  0.12170500  0.29248200  1
  O  O63  1  0.21504900  0.37829500  0.20751800  1
  O  O64  1  0.51781400  0.48897900  0.37212900  1
  O  O65  1  0.01781400  0.51102100  0.12787100  1
  O  O66  1  0.11619600  0.54250100  0.30366800  1
  O  O67  1  0.61619600  0.45749900  0.19633200  1
  O  O68  1  0.86619600  0.70749900  0.05366800  1
  O  O69  1  0.36619600  0.29250100  0.44633200  1
  O  O70  1  0.26781400  0.73897900  0.37787100  1
  O  O71  1  0.26781400  0.76102100  0.12212900  1
