# generated using pymatgen
data_K2MgH12(SO7)2
_symmetry_space_group_name_H-M   'P 1'
_cell_length_a   6.18556000
_cell_length_b   12.39413400
_cell_length_c   9.14992563
_cell_angle_alpha   90.00000000
_cell_angle_beta   104.38097451
_cell_angle_gamma   90.00000000
_symmetry_Int_Tables_number   1
_chemical_formula_structural   K2MgH12(SO7)2
_chemical_formula_sum   'K4 Mg2 H24 S4 O28'
_cell_volume   679.49566675
_cell_formula_units_Z   2
loop_
 _symmetry_equiv_pos_site_id
 _symmetry_equiv_pos_as_xyz
  1  'x, y, z'
loop_
 _atom_site_type_symbol
 _atom_site_label
 _atom_site_symmetry_multiplicity
 _atom_site_fract_x
 _atom_site_fract_y
 _atom_site_fract_z
 _atom_site_occupancy
  K  K0  1  0.65342000  0.15280300  0.36778600  1
  K  K1  1  0.34658000  0.65280300  0.13221400  1
  K  K2  1  0.34658000  0.84719700  0.63221400  1
  K  K3  1  0.65342000  0.34719700  0.86778600  1
  Mg  Mg4  1  0.00000000  0.00000000  0.00000000  1
  Mg  Mg5  1  0.00000000  0.50000000  0.50000000  1
  H  H6  1  0.66210200  0.56333700  0.60609500  1
  H  H7  1  0.33789800  0.06333700  0.89390500  1
  H  H8  1  0.33789800  0.43666300  0.39390500  1
  H  H9  1  0.66210200  0.93666300  0.10609500  1
  H  H10  1  0.33313000  0.35380600  0.52558500  1
  H  H11  1  0.66687000  0.85380600  0.97441500  1
  H  H12  1  0.66687000  0.64619400  0.47441500  1
  H  H13  1  0.33313000  0.14619400  0.02558500  1
  H  H14  1  0.06976900  0.39962500  0.77262700  1
  H  H15  1  0.93023100  0.89962500  0.72737300  1
  H  H16  1  0.99998800  0.31117700  0.64505800  1
  H  H17  1  0.00001200  0.81117700  0.85494200  1
  H  H18  1  0.00001200  0.68882300  0.35494200  1
  H  H19  1  0.99998800  0.18882300  0.14505800  1
  H  H20  1  0.32837500  0.59076200  0.71794200  1
  H  H21  1  0.67162500  0.09076200  0.78205800  1
  H  H22  1  0.67162500  0.40923800  0.28205800  1
  H  H23  1  0.32837500  0.90923800  0.21794200  1
  H  H24  1  0.09447800  0.62782700  0.74649500  1
  H  H25  1  0.90552200  0.12782700  0.75350500  1
  H  H26  1  0.90552200  0.37217300  0.25350500  1
  H  H27  1  0.09447800  0.87217300  0.24649500  1
  H  H28  1  0.93023100  0.60037500  0.22737300  1
  H  H29  1  0.06976900  0.10037500  0.27262700  1
  S  S30  1  0.27141500  0.13814700  0.59079800  1
  S  S31  1  0.72858500  0.86185300  0.40920200  1
  S  S32  1  0.27141500  0.36185300  0.09079800  1
  S  S33  1  0.72858500  0.63814700  0.90920200  1
  O  O34  1  0.24013500  0.41998400  0.94503800  1
  O  O35  1  0.24013500  0.08001600  0.44503800  1
  O  O36  1  0.17198200  0.88950000  0.16687400  1
  O  O37  1  0.82801800  0.38950000  0.33312600  1
  O  O38  1  0.82801800  0.11050000  0.83312600  1
  O  O39  1  0.17198200  0.61050000  0.66687400  1
  O  O40  1  0.03107000  0.88668800  0.82945300  1
  O  O41  1  0.75986500  0.91998400  0.55496200  1
  O  O42  1  0.96893000  0.11331200  0.17054700  1
  O  O43  1  0.03107000  0.61331200  0.32945300  1
  O  O44  1  0.70591600  0.92908900  0.00941000  1
  O  O45  1  0.29408400  0.42908900  0.49059000  1
  O  O46  1  0.29408400  0.07091100  0.99059000  1
  O  O47  1  0.70591600  0.57091100  0.50941000  1
  O  O48  1  0.94957200  0.67478100  0.88697900  1
  O  O49  1  0.05042800  0.17478100  0.61302100  1
  O  O50  1  0.05042800  0.32521900  0.11302100  1
  O  O51  1  0.94957200  0.82521900  0.38697900  1
  O  O52  1  0.57808100  0.73319500  0.90571400  1
  O  O53  1  0.42191900  0.23319500  0.59428600  1
  O  O54  1  0.42191900  0.26680500  0.09428600  1
  O  O55  1  0.57808100  0.76680500  0.40571400  1
  O  O56  1  0.96893000  0.38668800  0.67054700  1
  O  O57  1  0.38222900  0.06308000  0.71561100  1
  O  O58  1  0.38222900  0.43692000  0.21561100  1
  O  O59  1  0.61777100  0.93692000  0.28438900  1
  O  O60  1  0.75986500  0.58001600  0.05496200  1
  O  O61  1  0.61777100  0.56308000  0.78438900  1
