# generated using pymatgen
data_K2Pb(SO4)2
_symmetry_space_group_name_H-M   'P 1'
_cell_length_a   5.59343178
_cell_length_b   5.59343178
_cell_length_c   21.25136649
_cell_angle_alpha   90.00000000
_cell_angle_beta   90.00000000
_cell_angle_gamma   120.00000000
_symmetry_Int_Tables_number   1
_chemical_formula_structural   K2Pb(SO4)2
_chemical_formula_sum   'K6 Pb3 S6 O24'
_cell_volume   575.80334648
_cell_formula_units_Z   3
loop_
 _symmetry_equiv_pos_site_id
 _symmetry_equiv_pos_as_xyz
  1  'x, y, z'
loop_
 _atom_site_type_symbol
 _atom_site_label
 _atom_site_symmetry_multiplicity
 _atom_site_fract_x
 _atom_site_fract_y
 _atom_site_fract_z
 _atom_site_occupancy
  K  K0  1  0.66666667  0.33333333  0.12960833  1
  K  K1  1  0.00000000  0.00000000  0.20372500  1
  K  K2  1  0.33333333  0.66666667  0.46294167  1
  K  K3  1  0.66666667  0.33333333  0.53705833  1
  K  K4  1  0.00000000  0.00000000  0.79627500  1
  K  K5  1  0.33333333  0.66666667  0.87039167  1
  Pb  Pb6  1  0.00000000  0.00000000  0.00000000  1
  Pb  Pb7  1  0.66666667  0.33333333  0.33333333  1
  Pb  Pb8  1  0.33333333  0.66666667  0.66666667  1
  S  S9  1  0.33333333  0.66666667  0.26572567  1
  S  S10  1  0.33333333  0.66666667  0.06760767  1
  S  S11  1  0.00000000  0.00000000  0.59905900  1
  S  S12  1  0.00000000  0.00000000  0.40094100  1
  S  S13  1  0.66666667  0.33333333  0.93239233  1
  S  S14  1  0.66666667  0.33333333  0.73427433  1
  O  O15  1  0.47917233  0.95834467  0.24153867  1
  O  O16  1  0.04165533  0.52082767  0.24153867  1
  O  O17  1  0.47917233  0.52082767  0.24153867  1
  O  O18  1  0.18749433  0.81250567  0.09179467  1
  O  O19  1  0.18749433  0.37498867  0.09179467  1
  O  O20  1  0.00000000  0.00000000  0.33126100  1
  O  O21  1  0.66666667  0.33333333  0.00207233  1
  O  O22  1  0.62501133  0.81250567  0.09179467  1
  O  O23  1  0.14583900  0.29167800  0.57487200  1
  O  O24  1  0.70832200  0.85416100  0.57487200  1
  O  O25  1  0.14583900  0.85416100  0.57487200  1
  O  O26  1  0.85416100  0.14583900  0.42512800  1
  O  O27  1  0.85416100  0.70832200  0.42512800  1
  O  O28  1  0.66666667  0.33333333  0.66459433  1
  O  O29  1  0.33333333  0.66666667  0.33540567  1
  O  O30  1  0.29167800  0.14583900  0.42512800  1
  O  O31  1  0.81250567  0.62501133  0.90820533  1
  O  O32  1  0.37498867  0.18749433  0.90820533  1
  O  O33  1  0.81250567  0.18749433  0.90820533  1
  O  O34  1  0.52082767  0.47917233  0.75846133  1
  O  O35  1  0.52082767  0.04165533  0.75846133  1
  O  O36  1  0.33333333  0.66666667  0.99792767  1
  O  O37  1  0.00000000  0.00000000  0.66873900  1
  O  O38  1  0.95834467  0.47917233  0.75846133  1
