# generated using pymatgen
data_In2S3
_symmetry_space_group_name_H-M   'P 1'
_cell_length_a   6.66222812
_cell_length_b   6.66222812
_cell_length_c   17.91989697
_cell_angle_alpha   90.00000000
_cell_angle_beta   90.00000000
_cell_angle_gamma   120.00000000
_symmetry_Int_Tables_number   1
_chemical_formula_structural   In2S3
_chemical_formula_sum   'In12 S18'
_cell_volume   688.81903328
_cell_formula_units_Z   6
loop_
 _symmetry_equiv_pos_site_id
 _symmetry_equiv_pos_as_xyz
  1  'x, y, z'
loop_
 _atom_site_type_symbol
 _atom_site_label
 _atom_site_symmetry_multiplicity
 _atom_site_fract_x
 _atom_site_fract_y
 _atom_site_fract_z
 _atom_site_occupancy
  In  In0  1  0.33333333  0.66666667  0.31226367  1
  In  In1  1  0.66666667  0.33333333  0.18773633  1
  In  In2  1  0.33333333  0.66666667  0.02106967  1
  In  In3  1  0.00000000  0.00000000  0.14559700  1
  In  In4  1  0.00000000  0.00000000  0.64559700  1
  In  In5  1  0.33333333  0.66666667  0.52106967  1
  In  In6  1  0.00000000  0.00000000  0.35440300  1
  In  In7  1  0.66666667  0.33333333  0.47893033  1
  In  In8  1  0.66666667  0.33333333  0.97893033  1
  In  In9  1  0.00000000  0.00000000  0.85440300  1
  In  In10  1  0.66666667  0.33333333  0.68773633  1
  In  In11  1  0.33333333  0.66666667  0.81226367  1
  S  S12  1  0.36799567  0.03466233  0.08333333  1
  S  S13  1  0.66666667  0.63200433  0.08333333  1
  S  S14  1  0.96533767  0.33333333  0.08333333  1
  S  S15  1  0.29867100  0.29867100  0.25000000  1
  S  S16  1  0.70132900  0.00000000  0.25000000  1
  S  S17  1  0.00000000  0.70132900  0.25000000  1
  S  S18  1  0.03466233  0.36799567  0.41666667  1
  S  S19  1  0.33333333  0.96533767  0.41666667  1
  S  S20  1  0.63200433  0.66666667  0.41666667  1
  S  S21  1  0.96533767  0.63200433  0.58333333  1
  S  S22  1  0.36799567  0.33333333  0.58333333  1
  S  S23  1  0.66666667  0.03466233  0.58333333  1
  S  S24  1  0.70132900  0.70132900  0.75000000  1
  S  S25  1  0.00000000  0.29867100  0.75000000  1
  S  S26  1  0.29867100  0.00000000  0.75000000  1
  S  S27  1  0.63200433  0.96533767  0.91666667  1
  S  S28  1  0.03466233  0.66666667  0.91666667  1
  S  S29  1  0.33333333  0.36799567  0.91666667  1
