# generated using pymatgen
data_NaMnCl3
_symmetry_space_group_name_H-M   'P 1'
_cell_length_a   6.64475424
_cell_length_b   6.64475424
_cell_length_c   18.85683331
_cell_angle_alpha   90.00000000
_cell_angle_beta   90.00000000
_cell_angle_gamma   120.00000000
_symmetry_Int_Tables_number   1
_chemical_formula_structural   NaMnCl3
_chemical_formula_sum   'Na6 Mn6 Cl18'
_cell_volume   721.03648396
_cell_formula_units_Z   6
loop_
 _symmetry_equiv_pos_site_id
 _symmetry_equiv_pos_as_xyz
  1  'x, y, z'
loop_
 _atom_site_type_symbol
 _atom_site_label
 _atom_site_symmetry_multiplicity
 _atom_site_fract_x
 _atom_site_fract_y
 _atom_site_fract_z
 _atom_site_occupancy
  Na  Na0  1  0.66666667  0.33333333  0.18810133  1
  Na  Na1  1  0.00000000  0.00000000  0.14523200  1
  Na  Na2  1  0.33333333  0.66666667  0.52143467  1
  Na  Na3  1  0.66666667  0.33333333  0.47856533  1
  Na  Na4  1  0.00000000  0.00000000  0.85476800  1
  Na  Na5  1  0.33333333  0.66666667  0.81189867  1
  Mn  Mn6  1  0.33333333  0.66666667  0.32629367  1
  Mn  Mn7  1  0.33333333  0.66666667  0.00703967  1
  Mn  Mn8  1  0.00000000  0.00000000  0.65962700  1
  Mn  Mn9  1  0.00000000  0.00000000  0.34037300  1
  Mn  Mn10  1  0.66666667  0.33333333  0.99296033  1
  Mn  Mn11  1  0.66666667  0.33333333  0.67370633  1
  Cl  Cl12  1  0.29184567  0.96900433  0.25665133  1
  Cl  Cl13  1  0.67715867  0.70815433  0.25665133  1
  Cl  Cl14  1  0.63567100  0.01049200  0.07668200  1
  Cl  Cl15  1  0.37482100  0.36432900  0.07668200  1
  Cl  Cl16  1  0.98950800  0.62517900  0.07668200  1
  Cl  Cl17  1  0.03099567  0.32284133  0.25665133  1
  Cl  Cl18  1  0.95851233  0.30233767  0.58998467  1
  Cl  Cl19  1  0.34382533  0.04148767  0.58998467  1
  Cl  Cl20  1  0.30233767  0.34382533  0.41001533  1
  Cl  Cl21  1  0.04148767  0.69766233  0.41001533  1
  Cl  Cl22  1  0.65617467  0.95851233  0.41001533  1
  Cl  Cl23  1  0.69766233  0.65617467  0.58998467  1
  Cl  Cl24  1  0.62517900  0.63567100  0.92331800  1
  Cl  Cl25  1  0.01049200  0.37482100  0.92331800  1
  Cl  Cl26  1  0.96900433  0.67715867  0.74334867  1
  Cl  Cl27  1  0.70815433  0.03099567  0.74334867  1
  Cl  Cl28  1  0.32284133  0.29184567  0.74334867  1
  Cl  Cl29  1  0.36432900  0.98950800  0.92331800  1
