# generated using pymatgen
data_Pr2Te4O11
_symmetry_space_group_name_H-M   'P 1'
_cell_length_a   12.83672000
_cell_length_b   5.33085200
_cell_length_c   16.72380511
_cell_angle_alpha   90.00000000
_cell_angle_beta   104.52296255
_cell_angle_gamma   90.00000000
_symmetry_Int_Tables_number   1
_chemical_formula_structural   Pr2Te4O11
_chemical_formula_sum   'Pr8 Te16 O44'
_cell_volume   1107.85349594
_cell_formula_units_Z   4
loop_
 _symmetry_equiv_pos_site_id
 _symmetry_equiv_pos_as_xyz
  1  'x, y, z'
loop_
 _atom_site_type_symbol
 _atom_site_label
 _atom_site_symmetry_multiplicity
 _atom_site_fract_x
 _atom_site_fract_y
 _atom_site_fract_z
 _atom_site_occupancy
  Pr  Pr0  1  0.88210300  0.74820700  0.46196900  1
  Pr  Pr1  1  0.61789700  0.24820700  0.03803100  1
  Pr  Pr2  1  0.11789700  0.25179300  0.53803100  1
  Pr  Pr3  1  0.38210300  0.75179300  0.96196900  1
  Pr  Pr4  1  0.38210300  0.24820700  0.46196900  1
  Pr  Pr5  1  0.11789700  0.74820700  0.03803100  1
  Pr  Pr6  1  0.61789700  0.75179300  0.53803100  1
  Pr  Pr7  1  0.88210300  0.25179300  0.96196900  1
  Te  Te8  1  0.88227600  0.27711500  0.30079900  1
  Te  Te9  1  0.61772400  0.77711500  0.19920100  1
  Te  Te10  1  0.11772400  0.72288500  0.69920100  1
  Te  Te11  1  0.38227600  0.22288500  0.80079900  1
  Te  Te12  1  0.86637250  0.71882850  0.12540500  1
  Te  Te13  1  0.13362750  0.71882850  0.37459500  1
  Te  Te14  1  0.13362750  0.28117150  0.87459500  1
  Te  Te15  1  0.86637250  0.28117150  0.62540500  1
  Te  Te16  1  0.38227600  0.77711500  0.30079900  1
  Te  Te17  1  0.11772400  0.27711500  0.19920100  1
  Te  Te18  1  0.61772400  0.22288500  0.69920100  1
  Te  Te19  1  0.88227600  0.72288500  0.80079900  1
  Te  Te20  1  0.36637250  0.21882850  0.12540500  1
  Te  Te21  1  0.63362750  0.21882850  0.37459500  1
  Te  Te22  1  0.63362750  0.78117150  0.87459500  1
  Te  Te23  1  0.36637250  0.78117150  0.62540500  1
  O  O24  1  0.00000000  0.15012600  0.25000000  1
  O  O25  1  0.00000000  0.84987400  0.75000000  1
  O  O26  1  0.64682450  0.45218050  0.17005900  1
  O  O27  1  0.85317550  0.95218050  0.32994100  1
  O  O28  1  0.35317550  0.54781950  0.82994100  1
  O  O29  1  0.14682450  0.04781950  0.67005900  1
  O  O30  1  0.02425100  0.41161800  0.10048700  1
  O  O31  1  0.97574900  0.41161800  0.39951300  1
  O  O32  1  0.97574900  0.58838200  0.89951300  1
  O  O33  1  0.02425100  0.58838200  0.60048700  1
  O  O34  1  0.92765050  0.88141950  0.04696400  1
  O  O35  1  0.07234950  0.88141950  0.45303600  1
  O  O36  1  0.24661450  0.56759050  0.62685500  1
  O  O37  1  0.25338550  0.06759050  0.87314500  1
  O  O38  1  0.75338550  0.43240950  0.37314500  1
  O  O39  1  0.74661450  0.93240950  0.12685500  1
  O  O40  1  0.79181600  0.53857500  0.55510500  1
  O  O41  1  0.20818400  0.53857500  0.94489500  1
  O  O42  1  0.20818400  0.46142500  0.44489500  1
  O  O43  1  0.79181600  0.46142500  0.05510500  1
  O  O44  1  0.92765050  0.11858050  0.54696400  1
  O  O45  1  0.07234950  0.11858050  0.95303600  1
  O  O46  1  0.50000000  0.65012600  0.25000000  1
  O  O47  1  0.50000000  0.34987400  0.75000000  1
  O  O48  1  0.14682450  0.95218050  0.17005900  1
  O  O49  1  0.35317550  0.45218050  0.32994100  1
  O  O50  1  0.85317550  0.04781950  0.82994100  1
  O  O51  1  0.64682450  0.54781950  0.67005900  1
  O  O52  1  0.52425100  0.91161800  0.10048700  1
  O  O53  1  0.47574900  0.91161800  0.39951300  1
  O  O54  1  0.47574900  0.08838200  0.89951300  1
  O  O55  1  0.52425100  0.08838200  0.60048700  1
  O  O56  1  0.42765050  0.38141950  0.04696400  1
  O  O57  1  0.57234950  0.38141950  0.45303600  1
  O  O58  1  0.74661450  0.06759050  0.62685500  1
  O  O59  1  0.75338550  0.56759050  0.87314500  1
  O  O60  1  0.25338550  0.93240950  0.37314500  1
  O  O61  1  0.24661450  0.43240950  0.12685500  1
  O  O62  1  0.29181600  0.03857500  0.55510500  1
  O  O63  1  0.70818400  0.03857500  0.94489500  1
  O  O64  1  0.70818400  0.96142500  0.44489500  1
  O  O65  1  0.29181600  0.96142500  0.05510500  1
  O  O66  1  0.42765050  0.61858050  0.54696400  1
  O  O67  1  0.57234950  0.61858050  0.95303600  1
