# generated using pymatgen
data_CaB2H10O9
_symmetry_space_group_name_H-M   'P 1'
_cell_length_a   6.52898500
_cell_length_b   7.82636906
_cell_length_c   8.13254283
_cell_angle_alpha   69.07153804
_cell_angle_beta   68.43495537
_cell_angle_gamma   73.78843746
_symmetry_Int_Tables_number   1
_chemical_formula_structural   CaB2H10O9
_chemical_formula_sum   'Ca2 B4 H20 O18'
_cell_volume   355.70312240
_cell_formula_units_Z   2
loop_
 _symmetry_equiv_pos_site_id
 _symmetry_equiv_pos_as_xyz
  1  'x, y, z'
loop_
 _atom_site_type_symbol
 _atom_site_label
 _atom_site_symmetry_multiplicity
 _atom_site_fract_x
 _atom_site_fract_y
 _atom_site_fract_z
 _atom_site_occupancy
  Ca  Ca0  1  0.59538400  0.00256900  0.23598700  1
  Ca  Ca1  1  0.40461600  0.99743100  0.76401300  1
  B  B2  1  0.84980200  0.99748800  0.79256400  1
  B  B3  1  0.15019800  0.00251200  0.20743600  1
  B  B4  1  0.62434200  0.32073400  0.84186100  1
  B  B5  1  0.37565800  0.67926600  0.15813900  1
  H  H6  1  0.19491600  0.56945200  0.52262100  1
  H  H7  1  0.76225600  0.49146500  0.27423600  1
  H  H8  1  0.23774400  0.50853500  0.72576400  1
  H  H9  1  0.80508400  0.43054800  0.47737900  1
  H  H10  1  0.12181900  0.51956600  0.30737500  1
  H  H11  1  0.70976000  0.69466100  0.04890600  1
  H  H12  1  0.10199400  0.07534400  0.55731400  1
  H  H13  1  0.89800600  0.92465600  0.44268600  1
  H  H14  1  0.99305700  0.17763500  0.00731900  1
  H  H15  1  0.00694300  0.82236500  0.99268100  1
  H  H16  1  0.91077800  0.76863300  0.70025200  1
  H  H17  1  0.87818100  0.48043400  0.69262500  1
  H  H18  1  0.32399600  0.59947100  0.96001700  1
  H  H19  1  0.67600400  0.40052900  0.03998300  1
  H  H20  1  0.35131900  0.74723400  0.57754000  1
  H  H21  1  0.64868100  0.25276600  0.42246000  1
  H  H22  1  0.59067700  0.67355000  0.60419400  1
  H  H23  1  0.40932300  0.32645000  0.39580600  1
  H  H24  1  0.29024000  0.30533900  0.95109400  1
  H  H25  1  0.08922200  0.23136700  0.29974800  1
  O  O26  1  0.19750600  0.11402900  0.30237600  1
  O  O27  1  0.13961500  0.59219500  0.64755800  1
  O  O28  1  0.06826500  0.05843800  0.69044900  1
  O  O29  1  0.93173500  0.94156200  0.30955100  1
  O  O30  1  0.14585300  0.11886900  0.01592900  1
  O  O31  1  0.85414700  0.88113100  0.98407100  1
  O  O32  1  0.50986200  0.20921500  0.44357500  1
  O  O33  1  0.80249400  0.88597100  0.69762400  1
  O  O34  1  0.34674600  0.85488700  0.19434300  1
  O  O35  1  0.65325400  0.14511300  0.80565700  1
  O  O36  1  0.86038500  0.40780500  0.35244200  1
  O  O37  1  0.70547700  0.28514000  0.00298000  1
  O  O38  1  0.25965000  0.53421400  0.32001700  1
  O  O39  1  0.74035000  0.46578600  0.67998300  1
  O  O40  1  0.38203000  0.40541200  0.87929800  1
  O  O41  1  0.61797000  0.59458800  0.12070200  1
  O  O42  1  0.49013800  0.79078500  0.55642500  1
  O  O43  1  0.29452300  0.71486000  0.99702000  1
