# generated using pymatgen
data_Th6CoBr15
_symmetry_space_group_name_H-M   'P 1'
_cell_length_a   11.75061200
_cell_length_b   11.75061200
_cell_length_c   11.75061200
_cell_angle_alpha   90.00000000
_cell_angle_beta   90.00000000
_cell_angle_gamma   90.00000000
_symmetry_Int_Tables_number   1
_chemical_formula_structural   Th6CoBr15
_chemical_formula_sum   'Th12 Co2 Br30'
_cell_volume   1622.48787095
_cell_formula_units_Z   2
loop_
 _symmetry_equiv_pos_site_id
 _symmetry_equiv_pos_as_xyz
  1  'x, y, z'
loop_
 _atom_site_type_symbol
 _atom_site_label
 _atom_site_symmetry_multiplicity
 _atom_site_fract_x
 _atom_site_fract_y
 _atom_site_fract_z
 _atom_site_occupancy
  Th  Th0  1  0.00000000  0.00000000  0.76263500  1
  Th  Th1  1  0.00000000  0.23736500  0.00000000  1
  Th  Th2  1  0.00000000  0.76263500  0.00000000  1
  Th  Th3  1  0.76263500  0.00000000  0.00000000  1
  Th  Th4  1  0.23736500  0.00000000  0.00000000  1
  Th  Th5  1  0.00000000  0.00000000  0.23736500  1
  Th  Th6  1  0.50000000  0.50000000  0.26263500  1
  Th  Th7  1  0.50000000  0.73736500  0.50000000  1
  Th  Th8  1  0.50000000  0.26263500  0.50000000  1
  Th  Th9  1  0.26263500  0.50000000  0.50000000  1
  Th  Th10  1  0.73736500  0.50000000  0.50000000  1
  Th  Th11  1  0.50000000  0.50000000  0.73736500  1
  Co  Co12  1  0.00000000  0.00000000  0.00000000  1
  Co  Co13  1  0.50000000  0.50000000  0.50000000  1
  Br  Br14  1  0.00000000  0.50000000  0.00000000  1
  Br  Br15  1  0.50000000  0.00000000  0.00000000  1
  Br  Br16  1  0.00000000  0.00000000  0.50000000  1
  Br  Br17  1  0.50000000  0.25055450  0.25055450  1
  Br  Br18  1  0.74944550  0.50000000  0.25055450  1
  Br  Br19  1  0.00000000  0.24944550  0.24944550  1
  Br  Br20  1  0.24944550  0.24944550  0.00000000  1
  Br  Br21  1  0.25055450  0.74944550  0.50000000  1
  Br  Br22  1  0.50000000  0.25055450  0.74944550  1
  Br  Br23  1  0.50000000  0.74944550  0.25055450  1
  Br  Br24  1  0.25055450  0.50000000  0.74944550  1
  Br  Br25  1  0.24944550  0.00000000  0.24944550  1
  Br  Br26  1  0.74944550  0.25055450  0.50000000  1
  Br  Br27  1  0.25055450  0.50000000  0.25055450  1
  Br  Br28  1  0.25055450  0.25055450  0.50000000  1
  Br  Br29  1  0.50000000  0.00000000  0.50000000  1
  Br  Br30  1  0.00000000  0.50000000  0.50000000  1
  Br  Br31  1  0.50000000  0.50000000  0.00000000  1
  Br  Br32  1  0.00000000  0.75055450  0.75055450  1
  Br  Br33  1  0.24944550  0.00000000  0.75055450  1
  Br  Br34  1  0.50000000  0.74944550  0.74944550  1
  Br  Br35  1  0.74944550  0.74944550  0.50000000  1
  Br  Br36  1  0.75055450  0.24944550  0.00000000  1
  Br  Br37  1  0.00000000  0.75055450  0.24944550  1
  Br  Br38  1  0.00000000  0.24944550  0.75055450  1
  Br  Br39  1  0.75055450  0.00000000  0.24944550  1
  Br  Br40  1  0.74944550  0.50000000  0.74944550  1
  Br  Br41  1  0.24944550  0.75055450  0.00000000  1
  Br  Br42  1  0.75055450  0.00000000  0.75055450  1
  Br  Br43  1  0.75055450  0.75055450  0.00000000  1
