# generated using pymatgen
data_Na3CuO3
_symmetry_space_group_name_H-M   'P 1'
_cell_length_a   11.03668400
_cell_length_b   12.19966000
_cell_length_c   16.49822900
_cell_angle_alpha   90.00000000
_cell_angle_beta   90.00000000
_cell_angle_gamma   90.00000000
_symmetry_Int_Tables_number   1
_chemical_formula_structural   Na3CuO3
_chemical_formula_sum   'Na72 Cu24 O72'
_cell_volume   2221.38411925
_cell_formula_units_Z   24
loop_
 _symmetry_equiv_pos_site_id
 _symmetry_equiv_pos_as_xyz
  1  'x, y, z'
loop_
 _atom_site_type_symbol
 _atom_site_label
 _atom_site_symmetry_multiplicity
 _atom_site_fract_x
 _atom_site_fract_y
 _atom_site_fract_z
 _atom_site_occupancy
  Na  Na0  1  0.50000000  0.97523300  0.27998100  1
  Na  Na1  1  0.50000000  0.52476700  0.77998100  1
  Na  Na2  1  0.50000000  0.02476700  0.72001900  1
  Na  Na3  1  0.50000000  0.47523300  0.22001900  1
  Na  Na4  1  0.25000000  0.08255600  0.25000000  1
  Na  Na5  1  0.25000000  0.91744400  0.75000000  1
  Na  Na6  1  0.75000000  0.91744400  0.75000000  1
  Na  Na7  1  0.75000000  0.08255600  0.25000000  1
  Na  Na8  1  0.50000000  0.17214200  0.21967500  1
  Na  Na9  1  0.50000000  0.32785800  0.71967500  1
  Na  Na10  1  0.50000000  0.82785800  0.78032500  1
  Na  Na11  1  0.50000000  0.67214200  0.28032500  1
  Na  Na12  1  0.30286600  0.17678800  0.07050500  1
  Na  Na13  1  0.19713400  0.82321200  0.57050500  1
  Na  Na14  1  0.30286600  0.82321200  0.92949500  1
  Na  Na15  1  0.19713400  0.17678800  0.42949500  1
  Na  Na16  1  0.69713400  0.82321200  0.92949500  1
  Na  Na17  1  0.80286600  0.17678800  0.42949500  1
  Na  Na18  1  0.69713400  0.17678800  0.07050500  1
  Na  Na19  1  0.80286600  0.82321200  0.57050500  1
  Na  Na20  1  0.20379550  0.02624550  0.91283500  1
  Na  Na21  1  0.29620450  0.97375450  0.41283500  1
  Na  Na22  1  0.20379550  0.97375450  0.08716500  1
  Na  Na23  1  0.29620450  0.02624550  0.58716500  1
  Na  Na24  1  0.79620450  0.97375450  0.08716500  1
  Na  Na25  1  0.70379550  0.02624550  0.58716500  1
  Na  Na26  1  0.79620450  0.02624550  0.91283500  1
  Na  Na27  1  0.70379550  0.97375450  0.41283500  1
  Na  Na28  1  0.34002000  0.17736200  0.81458400  1
  Na  Na29  1  0.65998000  0.32263800  0.31458400  1
  Na  Na30  1  0.34002000  0.82263800  0.18541600  1
  Na  Na31  1  0.65998000  0.67736200  0.68541600  1
  Na  Na32  1  0.65998000  0.82263800  0.18541600  1
  Na  Na33  1  0.34002000  0.67736200  0.68541600  1
  Na  Na34  1  0.65998000  0.17736200  0.81458400  1
  Na  Na35  1  0.34002000  0.32263800  0.31458400  1
  Na  Na36  1  0.00000000  0.47523300  0.27998100  1
  Na  Na37  1  0.00000000  0.02476700  0.77998100  1
  Na  Na38  1  0.00000000  0.52476700  0.72001900  1
  Na  Na39  1  0.00000000  0.97523300  0.22001900  1
  Na  Na40  1  0.75000000  0.58255600  0.25000000  1
  Na  Na41  1  0.75000000  0.41744400  0.75000000  1
  Na  Na42  1  0.25000000  0.41744400  0.75000000  1
  Na  Na43  1  0.25000000  0.58255600  0.25000000  1
  Na  Na44  1  0.00000000  0.67214200  0.21967500  1
  Na  Na45  1  0.00000000  0.82785800  0.71967500  1
  Na  Na46  1  0.00000000  0.32785800  0.78032500  1
  Na  Na47  1  0.00000000  0.17214200  0.28032500  1
  Na  Na48  1  0.80286600  0.67678800  0.07050500  1
  Na  Na49  1  0.69713400  0.32321200  0.57050500  1
  Na  Na50  1  0.80286600  0.32321200  0.92949500  1
  Na  Na51  1  0.69713400  0.67678800  0.42949500  1
  Na  Na52  1  0.19713400  0.32321200  0.92949500  1
  Na  Na53  1  0.30286600  0.67678800  0.42949500  1
  Na  Na54  1  0.19713400  0.67678800  0.07050500  1
  Na  Na55  1  0.30286600  0.32321200  0.57050500  1
  Na  Na56  1  0.70379550  0.52624550  0.91283500  1
  Na  Na57  1  0.79620450  0.47375450  0.41283500  1
  Na  Na58  1  0.70379550  0.47375450  0.08716500  1
  Na  Na59  1  0.79620450  0.52624550  0.58716500  1
  Na  Na60  1  0.29620450  0.47375450  0.08716500  1
  Na  Na61  1  0.20379550  0.52624550  0.58716500  1
  Na  Na62  1  0.29620450  0.52624550  0.91283500  1
  Na  Na63  1  0.20379550  0.47375450  0.41283500  1
  Na  Na64  1  0.84002000  0.67736200  0.81458400  1
  Na  Na65  1  0.15998000  0.82263800  0.31458400  1
  Na  Na66  1  0.84002000  0.32263800  0.18541600  1
  Na  Na67  1  0.15998000  0.17736200  0.68541600  1
  Na  Na68  1  0.15998000  0.32263800  0.18541600  1
  Na  Na69  1  0.84002000  0.17736200  0.68541600  1
  Na  Na70  1  0.15998000  0.67736200  0.81458400  1
  Na  Na71  1  0.84002000  0.82263800  0.31458400  1
  Cu  Cu72  1  0.50000000  0.65221400  0.07829500  1
  Cu  Cu73  1  0.50000000  0.84778600  0.57829500  1
  Cu  Cu74  1  0.50000000  0.34778600  0.92170500  1
  Cu  Cu75  1  0.50000000  0.15221400  0.42170500  1
  Cu  Cu76  1  0.50000000  0.67163900  0.90894600  1
  Cu  Cu77  1  0.50000000  0.82836100  0.40894600  1
  Cu  Cu78  1  0.50000000  0.32836100  0.09105400  1
  Cu  Cu79  1  0.50000000  0.17163900  0.59105400  1
  Cu  Cu80  1  0.50000000  0.00086600  0.08414600  1
  Cu  Cu81  1  0.50000000  0.49913400  0.58414600  1
  Cu  Cu82  1  0.50000000  0.99913400  0.91585400  1
  Cu  Cu83  1  0.50000000  0.50086600  0.41585400  1
  Cu  Cu84  1  0.00000000  0.15221400  0.07829500  1
  Cu  Cu85  1  0.00000000  0.34778600  0.57829500  1
  Cu  Cu86  1  0.00000000  0.84778600  0.92170500  1
  Cu  Cu87  1  0.00000000  0.65221400  0.42170500  1
  Cu  Cu88  1  0.00000000  0.17163900  0.90894600  1
  Cu  Cu89  1  0.00000000  0.32836100  0.40894600  1
  Cu  Cu90  1  0.00000000  0.82836100  0.09105400  1
  Cu  Cu91  1  0.00000000  0.67163900  0.59105400  1
  Cu  Cu92  1  0.00000000  0.50086600  0.08414600  1
  Cu  Cu93  1  0.00000000  0.99913400  0.58414600  1
  Cu  Cu94  1  0.00000000  0.49913400  0.91585400  1
  Cu  Cu95  1  0.00000000  0.00086600  0.41585400  1
  O  O96  1  0.62017750  0.63891050  0.15420600  1
  O  O97  1  0.37982250  0.86108950  0.65420600  1
  O  O98  1  0.62017750  0.36108950  0.84579400  1
  O  O99  1  0.37982250  0.13891050  0.34579400  1
  O  O100  1  0.37982250  0.36108950  0.84579400  1
  O  O101  1  0.62017750  0.13891050  0.34579400  1
  O  O102  1  0.37982250  0.63891050  0.15420600  1
  O  O103  1  0.62017750  0.86108950  0.65420600  1
  O  O104  1  0.61338650  0.66215650  0.99367800  1
  O  O105  1  0.38661350  0.83784350  0.49367800  1
  O  O106  1  0.61338650  0.33784350  0.00632200  1
  O  O107  1  0.38661350  0.16215650  0.50632200  1
  O  O108  1  0.38661350  0.33784350  0.00632200  1
  O  O109  1  0.61338650  0.16215650  0.50632200  1
  O  O110  1  0.38661350  0.66215650  0.99367800  1
  O  O111  1  0.61338650  0.83784350  0.49367800  1
  O  O112  1  0.62362450  0.67876850  0.83200200  1
  O  O113  1  0.37637550  0.82123150  0.33200200  1
  O  O114  1  0.62362450  0.32123150  0.16799800  1
  O  O115  1  0.37637550  0.17876850  0.66799800  1
  O  O116  1  0.37637550  0.32123150  0.16799800  1
  O  O117  1  0.62362450  0.17876850  0.66799800  1
  O  O118  1  0.37637550  0.67876850  0.83200200  1
  O  O119  1  0.62362450  0.82123150  0.33200200  1
  O  O120  1  0.38451400  0.00000000  0.00000000  1
  O  O121  1  0.11548600  0.00000000  0.50000000  1
  O  O122  1  0.61548600  0.00000000  0.00000000  1
  O  O123  1  0.88451400  0.00000000  0.50000000  1
  O  O124  1  0.38036000  0.00832500  0.16115100  1
  O  O125  1  0.11964000  0.99167500  0.66115100  1
  O  O126  1  0.38036000  0.99167500  0.83884900  1
  O  O127  1  0.11964000  0.00832500  0.33884900  1
  O  O128  1  0.61964000  0.99167500  0.83884900  1
  O  O129  1  0.88036000  0.00832500  0.33884900  1
  O  O130  1  0.61964000  0.00832500  0.16115100  1
  O  O131  1  0.88036000  0.99167500  0.66115100  1
  O  O132  1  0.12017750  0.13891050  0.15420600  1
  O  O133  1  0.87982250  0.36108950  0.65420600  1
  O  O134  1  0.12017750  0.86108950  0.84579400  1
  O  O135  1  0.87982250  0.63891050  0.34579400  1
  O  O136  1  0.87982250  0.86108950  0.84579400  1
  O  O137  1  0.12017750  0.63891050  0.34579400  1
  O  O138  1  0.87982250  0.13891050  0.15420600  1
  O  O139  1  0.12017750  0.36108950  0.65420600  1
  O  O140  1  0.11338650  0.16215650  0.99367800  1
  O  O141  1  0.88661350  0.33784350  0.49367800  1
  O  O142  1  0.11338650  0.83784350  0.00632200  1
  O  O143  1  0.88661350  0.66215650  0.50632200  1
  O  O144  1  0.88661350  0.83784350  0.00632200  1
  O  O145  1  0.11338650  0.66215650  0.50632200  1
  O  O146  1  0.88661350  0.16215650  0.99367800  1
  O  O147  1  0.11338650  0.33784350  0.49367800  1
  O  O148  1  0.12362450  0.17876850  0.83200200  1
  O  O149  1  0.87637550  0.32123150  0.33200200  1
  O  O150  1  0.12362450  0.82123150  0.16799800  1
  O  O151  1  0.87637550  0.67876850  0.66799800  1
  O  O152  1  0.87637550  0.82123150  0.16799800  1
  O  O153  1  0.12362450  0.67876850  0.66799800  1
  O  O154  1  0.87637550  0.17876850  0.83200200  1
  O  O155  1  0.12362450  0.32123150  0.33200200  1
  O  O156  1  0.88451400  0.50000000  0.00000000  1
  O  O157  1  0.61548600  0.50000000  0.50000000  1
  O  O158  1  0.11548600  0.50000000  0.00000000  1
  O  O159  1  0.38451400  0.50000000  0.50000000  1
  O  O160  1  0.88036000  0.50832500  0.16115100  1
  O  O161  1  0.61964000  0.49167500  0.66115100  1
  O  O162  1  0.88036000  0.49167500  0.83884900  1
  O  O163  1  0.61964000  0.50832500  0.33884900  1
  O  O164  1  0.11964000  0.49167500  0.83884900  1
  O  O165  1  0.38036000  0.50832500  0.33884900  1
  O  O166  1  0.11964000  0.50832500  0.16115100  1
  O  O167  1  0.38036000  0.49167500  0.66115100  1
