# generated using pymatgen
data_Te6Cl2O11
_symmetry_space_group_name_H-M   'P 1'
_cell_length_a   6.96061200
_cell_length_b   11.92601400
_cell_length_c   15.68020900
_cell_angle_alpha   90.00000000
_cell_angle_beta   90.00000000
_cell_angle_gamma   90.00000000
_symmetry_Int_Tables_number   1
_chemical_formula_structural   Te6Cl2O11
_chemical_formula_sum   'Te24 Cl8 O44'
_cell_volume   1301.65109418
_cell_formula_units_Z   4
loop_
 _symmetry_equiv_pos_site_id
 _symmetry_equiv_pos_as_xyz
  1  'x, y, z'
loop_
 _atom_site_type_symbol
 _atom_site_label
 _atom_site_symmetry_multiplicity
 _atom_site_fract_x
 _atom_site_fract_y
 _atom_site_fract_z
 _atom_site_occupancy
  Te  Te0  1  0.63313250  0.84335350  0.91397900  1
  Te  Te1  1  0.36686750  0.15664650  0.41397900  1
  Te  Te2  1  0.36686750  0.15664650  0.08602100  1
  Te  Te3  1  0.63313250  0.84335350  0.58602100  1
  Te  Te4  1  0.63313250  0.15664650  0.91397900  1
  Te  Te5  1  0.36686750  0.84335350  0.41397900  1
  Te  Te6  1  0.36686750  0.84335350  0.08602100  1
  Te  Te7  1  0.63313250  0.15664650  0.58602100  1
  Te  Te8  1  0.07520900  0.00000000  0.85801600  1
  Te  Te9  1  0.92479100  0.00000000  0.35801600  1
  Te  Te10  1  0.92479100  0.00000000  0.14198400  1
  Te  Te11  1  0.07520900  0.00000000  0.64198400  1
  Te  Te12  1  0.13313250  0.34335350  0.91397900  1
  Te  Te13  1  0.86686750  0.65664650  0.41397900  1
  Te  Te14  1  0.86686750  0.65664650  0.08602100  1
  Te  Te15  1  0.13313250  0.34335350  0.58602100  1
  Te  Te16  1  0.13313250  0.65664650  0.91397900  1
  Te  Te17  1  0.86686750  0.34335350  0.41397900  1
  Te  Te18  1  0.86686750  0.34335350  0.08602100  1
  Te  Te19  1  0.13313250  0.65664650  0.58602100  1
  Te  Te20  1  0.57520900  0.50000000  0.85801600  1
  Te  Te21  1  0.42479100  0.50000000  0.35801600  1
  Te  Te22  1  0.42479100  0.50000000  0.14198400  1
  Te  Te23  1  0.57520900  0.50000000  0.64198400  1
  Cl  Cl24  1  0.29096350  0.83924250  0.75000000  1
  Cl  Cl25  1  0.70903650  0.16075750  0.25000000  1
  Cl  Cl26  1  0.29096350  0.16075750  0.75000000  1
  Cl  Cl27  1  0.70903650  0.83924250  0.25000000  1
  Cl  Cl28  1  0.79096350  0.33924250  0.75000000  1
  Cl  Cl29  1  0.20903650  0.66075750  0.25000000  1
  Cl  Cl30  1  0.79096350  0.66075750  0.75000000  1
  Cl  Cl31  1  0.20903650  0.33924250  0.25000000  1
  O  O32  1  0.57667900  0.00000000  0.88523000  1
  O  O33  1  0.42332100  0.00000000  0.38523000  1
  O  O34  1  0.42332100  0.00000000  0.11477000  1
  O  O35  1  0.57667900  0.00000000  0.61477000  1
  O  O36  1  0.33482300  0.84898700  0.96379700  1
  O  O37  1  0.66517700  0.15101300  0.46379700  1
  O  O38  1  0.66517700  0.15101300  0.03620300  1
  O  O39  1  0.33482300  0.84898700  0.53620300  1
  O  O40  1  0.33482300  0.15101300  0.96379700  1
  O  O41  1  0.66517700  0.84898700  0.46379700  1
  O  O42  1  0.66517700  0.84898700  0.03620300  1
  O  O43  1  0.33482300  0.15101300  0.53620300  1
  O  O44  1  0.42148350  0.61987550  0.90496200  1
  O  O45  1  0.57851650  0.38012450  0.40496200  1
  O  O46  1  0.57851650  0.38012450  0.09503800  1
  O  O47  1  0.42148350  0.61987550  0.59503800  1
  O  O48  1  0.07071600  0.00000000  0.25000000  1
  O  O49  1  0.92928400  0.00000000  0.75000000  1
  O  O50  1  0.42148350  0.38012450  0.59503800  1
  O  O51  1  0.57851650  0.61987550  0.09503800  1
  O  O52  1  0.57851650  0.61987550  0.40496200  1
  O  O53  1  0.42148350  0.38012450  0.90496200  1
  O  O54  1  0.07667900  0.50000000  0.88523000  1
  O  O55  1  0.92332100  0.50000000  0.38523000  1
  O  O56  1  0.92332100  0.50000000  0.11477000  1
  O  O57  1  0.07667900  0.50000000  0.61477000  1
  O  O58  1  0.83482300  0.34898700  0.96379700  1
  O  O59  1  0.16517700  0.65101300  0.46379700  1
  O  O60  1  0.16517700  0.65101300  0.03620300  1
  O  O61  1  0.83482300  0.34898700  0.53620300  1
  O  O62  1  0.83482300  0.65101300  0.96379700  1
  O  O63  1  0.16517700  0.34898700  0.46379700  1
  O  O64  1  0.16517700  0.34898700  0.03620300  1
  O  O65  1  0.83482300  0.65101300  0.53620300  1
  O  O66  1  0.92148350  0.11987550  0.90496200  1
  O  O67  1  0.07851650  0.88012450  0.40496200  1
  O  O68  1  0.07851650  0.88012450  0.09503800  1
  O  O69  1  0.92148350  0.11987550  0.59503800  1
  O  O70  1  0.57071600  0.50000000  0.25000000  1
  O  O71  1  0.42928400  0.50000000  0.75000000  1
  O  O72  1  0.92148350  0.88012450  0.59503800  1
  O  O73  1  0.07851650  0.11987550  0.09503800  1
  O  O74  1  0.07851650  0.11987550  0.40496200  1
  O  O75  1  0.92148350  0.88012450  0.90496200  1
