# generated using pymatgen
data_Na2Te4O9
_symmetry_space_group_name_H-M   'P 1'
_cell_length_a   7.00735357
_cell_length_b   7.49488740
_cell_length_c   10.77485352
_cell_angle_alpha   109.56126854
_cell_angle_beta   91.05942390
_cell_angle_gamma   109.51584493
_symmetry_Int_Tables_number   1
_chemical_formula_structural   Na2Te4O9
_chemical_formula_sum   'Na4 Te8 O18'
_cell_volume   497.15126733
_cell_formula_units_Z   2
loop_
 _symmetry_equiv_pos_site_id
 _symmetry_equiv_pos_as_xyz
  1  'x, y, z'
loop_
 _atom_site_type_symbol
 _atom_site_label
 _atom_site_symmetry_multiplicity
 _atom_site_fract_x
 _atom_site_fract_y
 _atom_site_fract_z
 _atom_site_occupancy
  Na  Na0  1  0.98278269  0.54485204  0.63415283  1
  Na  Na1  1  0.01721731  0.45514796  0.36584717  1
  Na  Na2  1  0.47959553  0.73338594  0.48565663  1
  Na  Na3  1  0.52040447  0.26661406  0.51434337  1
  Te  Te4  1  0.02315588  0.99404497  0.32889319  1
  Te  Te5  1  0.97684412  0.00595503  0.67110681  1
  Te  Te6  1  0.52483910  0.40915365  0.80132959  1
  Te  Te7  1  0.47516090  0.59084635  0.19867041  1
  Te  Te8  1  0.45946941  0.84825004  0.78149656  1
  Te  Te9  1  0.54053059  0.15174996  0.21850344  1
  Te  Te10  1  0.00796009  0.29265811  0.99423767  1
  Te  Te11  1  0.99203991  0.70734189  0.00576233  1
  O  O12  1  0.95953867  0.01581922  0.14039583  1
  O  O13  1  0.04046133  0.98418078  0.85960417  1
  O  O14  1  0.03502881  0.27786686  0.59742438  1
  O  O15  1  0.96497119  0.72213314  0.40257562  1
  O  O16  1  0.71816429  0.23661839  0.90773190  1
  O  O17  1  0.28183571  0.76338161  0.09226810  1
  O  O18  1  0.33986774  0.99727417  0.33506177  1
  O  O19  1  0.66013226  0.00272583  0.66493823  1
  O  O20  1  0.06083292  0.60907705  0.88452922  1
  O  O21  1  0.93916708  0.39092295  0.11547078  1
  O  O22  1  0.64042505  0.49771631  0.64624864  1
  O  O23  1  0.35957495  0.50228369  0.35375136  1
  O  O24  1  0.66684119  0.61949839  0.88360455  1
  O  O25  1  0.33315881  0.38050161  0.11639545  1
  O  O26  1  0.65976315  0.35761141  0.30202283  1
  O  O27  1  0.34023685  0.64238859  0.69797717  1
  O  O28  1  0.28220225  0.01810615  0.66452743  1
  O  O29  1  0.71779775  0.98189385  0.33547257  1
