# generated using pymatgen
data_RbIn5S8
_symmetry_space_group_name_H-M   'P 1'
_cell_length_a   19.30775600
_cell_length_b   3.92696200
_cell_length_c   9.39676487
_cell_angle_alpha   90.00000000
_cell_angle_beta   102.26226272
_cell_angle_gamma   90.00000000
_symmetry_Int_Tables_number   1
_chemical_formula_structural   RbIn5S8
_chemical_formula_sum   'Rb2 In10 S16'
_cell_volume   696.21592224
_cell_formula_units_Z   2
loop_
 _symmetry_equiv_pos_site_id
 _symmetry_equiv_pos_as_xyz
  1  'x, y, z'
loop_
 _atom_site_type_symbol
 _atom_site_label
 _atom_site_symmetry_multiplicity
 _atom_site_fract_x
 _atom_site_fract_y
 _atom_site_fract_z
 _atom_site_occupancy
  Rb  Rb0  1  0.00000000  0.50000000  0.50000000  1
  Rb  Rb1  1  0.50000000  0.00000000  0.50000000  1
  In  In2  1  0.71171500  0.00000000  0.33917300  1
  In  In3  1  0.64746600  0.00000000  0.91889600  1
  In  In4  1  0.85253400  0.50000000  0.08110400  1
  In  In5  1  0.78828500  0.50000000  0.66082700  1
  In  In6  1  0.00000000  0.00000000  0.00000000  1
  In  In7  1  0.21171500  0.50000000  0.33917300  1
  In  In8  1  0.14746600  0.50000000  0.91889600  1
  In  In9  1  0.35253400  0.00000000  0.08110400  1
  In  In10  1  0.28828500  0.00000000  0.66082700  1
  In  In11  1  0.50000000  0.50000000  0.00000000  1
  S  S12  1  0.83414300  0.00000000  0.52037100  1
  S  S13  1  0.92633300  0.00000000  0.20723100  1
  S  S14  1  0.57366700  0.50000000  0.79276900  1
  S  S15  1  0.58374500  0.00000000  0.12965300  1
  S  S16  1  0.91625500  0.50000000  0.87034700  1
  S  S17  1  0.76371600  0.00000000  0.84733900  1
  S  S18  1  0.73628400  0.50000000  0.15266100  1
  S  S19  1  0.66585700  0.50000000  0.47962900  1
  S  S20  1  0.33414300  0.50000000  0.52037100  1
  S  S21  1  0.42633300  0.50000000  0.20723100  1
  S  S22  1  0.07366700  0.00000000  0.79276900  1
  S  S23  1  0.08374500  0.50000000  0.12965300  1
  S  S24  1  0.41625500  0.00000000  0.87034700  1
  S  S25  1  0.26371600  0.50000000  0.84733900  1
  S  S26  1  0.23628400  0.00000000  0.15266100  1
  S  S27  1  0.16585700  0.00000000  0.47962900  1
