# generated using pymatgen
data_CaAl12O19
_symmetry_space_group_name_H-M   'P 1'
_cell_length_a   5.61588011
_cell_length_b   5.61588011
_cell_length_c   22.05087000
_cell_angle_alpha   90.00000000
_cell_angle_beta   90.00000000
_cell_angle_gamma   120.00000000
_symmetry_Int_Tables_number   1
_chemical_formula_structural   CaAl12O19
_chemical_formula_sum   'Ca2 Al24 O38'
_cell_volume   602.27108906
_cell_formula_units_Z   2
loop_
 _symmetry_equiv_pos_site_id
 _symmetry_equiv_pos_as_xyz
  1  'x, y, z'
loop_
 _atom_site_type_symbol
 _atom_site_label
 _atom_site_symmetry_multiplicity
 _atom_site_fract_x
 _atom_site_fract_y
 _atom_site_fract_z
 _atom_site_occupancy
  Ca  Ca0  1  0.33333333  0.66666667  0.75000000  1
  Ca  Ca1  1  0.66666667  0.33333333  0.25000000  1
  Al  Al2  1  0.00000000  0.00000000  0.25000000  1
  Al  Al3  1  0.00000000  0.00000000  0.75000000  1
  Al  Al4  1  0.00000000  0.00000000  0.00000000  1
  Al  Al5  1  0.00000000  0.00000000  0.50000000  1
  Al  Al6  1  0.66666667  0.33333333  0.80896900  1
  Al  Al7  1  0.33333333  0.66666667  0.30896900  1
  Al  Al8  1  0.33333333  0.66666667  0.19103100  1
  Al  Al9  1  0.66666667  0.33333333  0.69103100  1
  Al  Al10  1  0.66666667  0.33333333  0.97195400  1
  Al  Al11  1  0.33333333  0.66666667  0.47195400  1
  Al  Al12  1  0.33333333  0.66666667  0.02804600  1
  Al  Al13  1  0.66666667  0.33333333  0.52804600  1
  Al  Al14  1  0.83165500  0.66331000  0.10956900  1
  Al  Al15  1  0.33669000  0.16834500  0.10956900  1
  Al  Al16  1  0.83165500  0.16834500  0.10956900  1
  Al  Al17  1  0.16834500  0.83165500  0.60956900  1
  Al  Al18  1  0.66331000  0.83165500  0.89043100  1
  Al  Al19  1  0.16834500  0.33669000  0.60956900  1
  Al  Al20  1  0.66331000  0.83165500  0.60956900  1
  Al  Al21  1  0.83165500  0.66331000  0.39043100  1
  Al  Al22  1  0.83165500  0.16834500  0.39043100  1
  Al  Al23  1  0.16834500  0.83165500  0.89043100  1
  Al  Al24  1  0.16834500  0.33669000  0.89043100  1
  Al  Al25  1  0.33669000  0.16834500  0.39043100  1
  O  O26  1  0.63682500  0.81841250  0.25000000  1
  O  O27  1  0.81841250  0.63682500  0.75000000  1
  O  O28  1  0.81841250  0.18158750  0.75000000  1
  O  O29  1  0.18158750  0.81841250  0.25000000  1
  O  O30  1  0.18158750  0.36317500  0.25000000  1
  O  O31  1  0.36317500  0.18158750  0.75000000  1
  O  O32  1  0.00000000  0.00000000  0.85007000  1
  O  O33  1  0.00000000  0.00000000  0.35007000  1
  O  O34  1  0.00000000  0.00000000  0.14993000  1
  O  O35  1  0.00000000  0.00000000  0.64993000  1
  O  O36  1  0.66666667  0.33333333  0.05475600  1
  O  O37  1  0.33333333  0.66666667  0.55475600  1
  O  O38  1  0.33333333  0.66666667  0.94524400  1
  O  O39  1  0.66666667  0.33333333  0.44524400  1
  O  O40  1  0.49649500  0.99299000  0.85044300  1
  O  O41  1  0.84483400  0.68966800  0.94772100  1
  O  O42  1  0.00701000  0.50350500  0.85044300  1
  O  O43  1  0.50350500  0.49649500  0.35044300  1
  O  O44  1  0.99299000  0.49649500  0.14955700  1
  O  O45  1  0.50350500  0.00701000  0.35044300  1
  O  O46  1  0.99299000  0.49649500  0.35044300  1
  O  O47  1  0.49649500  0.99299000  0.64955700  1
  O  O48  1  0.49649500  0.50350500  0.64955700  1
  O  O49  1  0.50350500  0.49649500  0.14955700  1
  O  O50  1  0.50350500  0.00701000  0.14955700  1
  O  O51  1  0.00701000  0.50350500  0.64955700  1
  O  O52  1  0.31033200  0.15516600  0.55227900  1
  O  O53  1  0.15516600  0.31033200  0.05227900  1
  O  O54  1  0.15516600  0.84483400  0.05227900  1
  O  O55  1  0.84483400  0.15516600  0.55227900  1
  O  O56  1  0.84483400  0.68966800  0.55227900  1
  O  O57  1  0.68966800  0.84483400  0.44772100  1
  O  O58  1  0.15516600  0.31033200  0.44772100  1
  O  O59  1  0.68966800  0.84483400  0.05227900  1
  O  O60  1  0.15516600  0.84483400  0.44772100  1
  O  O61  1  0.84483400  0.15516600  0.94772100  1
  O  O62  1  0.31033200  0.15516600  0.94772100  1
  O  O63  1  0.49649500  0.50350500  0.85044300  1
