# generated using pymatgen
data_Cu2PbO2
_symmetry_space_group_name_H-M   'P 1'
_cell_length_a   8.24699600
_cell_length_b   8.39110000
_cell_length_c   6.08686991
_cell_angle_alpha   90.00000000
_cell_angle_beta   132.46635826
_cell_angle_gamma   90.00000000
_symmetry_Int_Tables_number   1
_chemical_formula_structural   Cu2PbO2
_chemical_formula_sum   'Cu8 Pb4 O8'
_cell_volume   310.72279310
_cell_formula_units_Z   4
loop_
 _symmetry_equiv_pos_site_id
 _symmetry_equiv_pos_as_xyz
  1  'x, y, z'
loop_
 _atom_site_type_symbol
 _atom_site_label
 _atom_site_symmetry_multiplicity
 _atom_site_fract_x
 _atom_site_fract_y
 _atom_site_fract_z
 _atom_site_occupancy
  Cu  Cu0  1  0.50000000  0.00000000  0.00000000  1
  Cu  Cu1  1  0.50000000  0.00000000  0.50000000  1
  Cu  Cu2  1  0.25000000  0.25000000  0.50000000  1
  Cu  Cu3  1  0.25000000  0.75000000  0.00000000  1
  Cu  Cu4  1  0.00000000  0.50000000  0.00000000  1
  Cu  Cu5  1  0.00000000  0.50000000  0.50000000  1
  Cu  Cu6  1  0.75000000  0.75000000  0.50000000  1
  Cu  Cu7  1  0.75000000  0.25000000  0.00000000  1
  Pb  Pb8  1  0.50000000  0.62741400  0.75000000  1
  Pb  Pb9  1  0.50000000  0.37258600  0.25000000  1
  Pb  Pb10  1  0.00000000  0.12741400  0.75000000  1
  Pb  Pb11  1  0.00000000  0.87258600  0.25000000  1
  O  O12  1  0.78544950  0.92982450  0.70890800  1
  O  O13  1  0.21455050  0.92982450  0.79109200  1
  O  O14  1  0.21455050  0.07017550  0.29109200  1
  O  O15  1  0.78544950  0.07017550  0.20890800  1
  O  O16  1  0.28544950  0.42982450  0.70890800  1
  O  O17  1  0.71455050  0.42982450  0.79109200  1
  O  O18  1  0.71455050  0.57017550  0.29109200  1
  O  O19  1  0.28544950  0.57017550  0.20890800  1
