# generated using pymatgen
data_Bi2SeO5
_symmetry_space_group_name_H-M   'P 1'
_cell_length_a   5.56975200
_cell_length_b   16.62430200
_cell_length_c   11.61300800
_cell_angle_alpha   90.00000000
_cell_angle_beta   90.00000000
_cell_angle_gamma   90.00000000
_symmetry_Int_Tables_number   1
_chemical_formula_structural   Bi2SeO5
_chemical_formula_sum   'Bi16 Se8 O40'
_cell_volume   1075.28602889
_cell_formula_units_Z   8
loop_
 _symmetry_equiv_pos_site_id
 _symmetry_equiv_pos_as_xyz
  1  'x, y, z'
loop_
 _atom_site_type_symbol
 _atom_site_label
 _atom_site_symmetry_multiplicity
 _atom_site_fract_x
 _atom_site_fract_y
 _atom_site_fract_z
 _atom_site_occupancy
  Bi  Bi0  1  0.97798500  0.25000000  0.61438600  1
  Bi  Bi1  1  0.47798500  0.25000000  0.38561400  1
  Bi  Bi2  1  0.50818800  0.25000000  0.87139500  1
  Bi  Bi3  1  0.00818800  0.25000000  0.12860500  1
  Bi  Bi4  1  0.01344950  0.08477850  0.39081700  1
  Bi  Bi5  1  0.51344950  0.41522150  0.60918300  1
  Bi  Bi6  1  0.51344950  0.08477850  0.60918300  1
  Bi  Bi7  1  0.01344950  0.41522150  0.39081700  1
  Bi  Bi8  1  0.47798500  0.75000000  0.61438600  1
  Bi  Bi9  1  0.97798500  0.75000000  0.38561400  1
  Bi  Bi10  1  0.00818800  0.75000000  0.87139500  1
  Bi  Bi11  1  0.50818800  0.75000000  0.12860500  1
  Bi  Bi12  1  0.51344950  0.58477850  0.39081700  1
  Bi  Bi13  1  0.01344950  0.91522150  0.60918300  1
  Bi  Bi14  1  0.01344950  0.58477850  0.60918300  1
  Bi  Bi15  1  0.51344950  0.91522150  0.39081700  1
  Se  Se16  1  0.51672200  0.08926300  0.14343300  1
  Se  Se17  1  0.01672200  0.41073700  0.85656700  1
  Se  Se18  1  0.01672200  0.08926300  0.85656700  1
  Se  Se19  1  0.51672200  0.41073700  0.14343300  1
  Se  Se20  1  0.01672200  0.58926300  0.14343300  1
  Se  Se21  1  0.51672200  0.91073700  0.85656700  1
  Se  Se22  1  0.51672200  0.58926300  0.85656700  1
  Se  Se23  1  0.01672200  0.91073700  0.14343300  1
  O  O24  1  0.71747850  0.15708950  0.20787300  1
  O  O25  1  0.21747850  0.34291050  0.79212700  1
  O  O26  1  0.21747850  0.15708950  0.79212700  1
  O  O27  1  0.71747850  0.34291050  0.20787300  1
  O  O28  1  0.27558650  0.16243150  0.49251500  1
  O  O29  1  0.77558650  0.33756850  0.50748500  1
  O  O30  1  0.77558650  0.16243150  0.50748500  1
  O  O31  1  0.27558650  0.33756850  0.49251500  1
  O  O32  1  0.61469100  0.25000000  0.69916400  1
  O  O33  1  0.11469100  0.25000000  0.30083600  1
  O  O34  1  0.30318950  0.15082050  0.07961300  1
  O  O35  1  0.80318950  0.34917950  0.92038700  1
  O  O36  1  0.37986950  0.44648650  0.26609600  1
  O  O37  1  0.87986950  0.05351350  0.73390400  1
  O  O38  1  0.87986950  0.44648650  0.73390400  1
  O  O39  1  0.37986950  0.05351350  0.26609600  1
  O  O40  1  0.73402300  0.00000000  0.50000000  1
  O  O41  1  0.23402300  0.00000000  0.50000000  1
  O  O42  1  0.30318950  0.34917950  0.07961300  1
  O  O43  1  0.80318950  0.15082050  0.92038700  1
  O  O44  1  0.21747850  0.65708950  0.20787300  1
  O  O45  1  0.71747850  0.84291050  0.79212700  1
  O  O46  1  0.71747850  0.65708950  0.79212700  1
  O  O47  1  0.21747850  0.84291050  0.20787300  1
  O  O48  1  0.77558650  0.66243150  0.49251500  1
  O  O49  1  0.27558650  0.83756850  0.50748500  1
  O  O50  1  0.27558650  0.66243150  0.50748500  1
  O  O51  1  0.77558650  0.83756850  0.49251500  1
  O  O52  1  0.11469100  0.75000000  0.69916400  1
  O  O53  1  0.61469100  0.75000000  0.30083600  1
  O  O54  1  0.80318950  0.65082050  0.07961300  1
  O  O55  1  0.30318950  0.84917950  0.92038700  1
  O  O56  1  0.87986950  0.94648650  0.26609600  1
  O  O57  1  0.37986950  0.55351350  0.73390400  1
  O  O58  1  0.37986950  0.94648650  0.73390400  1
  O  O59  1  0.87986950  0.55351350  0.26609600  1
  O  O60  1  0.23402300  0.50000000  0.50000000  1
  O  O61  1  0.73402300  0.50000000  0.50000000  1
  O  O62  1  0.80318950  0.84917950  0.07961300  1
  O  O63  1  0.30318950  0.65082050  0.92038700  1
