# generated using pymatgen
data_CCl2O
_symmetry_space_group_name_H-M   'P 1'
_cell_length_a   16.82989200
_cell_length_b   16.82989200
_cell_length_c   5.95131800
_cell_angle_alpha   90.00000000
_cell_angle_beta   90.00000000
_cell_angle_gamma   90.00000000
_symmetry_Int_Tables_number   1
_chemical_formula_structural   CCl2O
_chemical_formula_sum   'C16 Cl32 O16'
_cell_volume   1685.68264241
_cell_formula_units_Z   16
loop_
 _symmetry_equiv_pos_site_id
 _symmetry_equiv_pos_as_xyz
  1  'x, y, z'
loop_
 _atom_site_type_symbol
 _atom_site_label
 _atom_site_symmetry_multiplicity
 _atom_site_fract_x
 _atom_site_fract_y
 _atom_site_fract_z
 _atom_site_occupancy
  C  C0  1  0.36147300  0.62855600  0.61752200  1
  C  C1  1  0.87144400  0.36147300  0.86752200  1
  C  C2  1  0.12855600  0.63852700  0.86752200  1
  C  C3  1  0.63852700  0.37144400  0.61752200  1
  C  C4  1  0.13852700  0.37144400  0.63247800  1
  C  C5  1  0.12855600  0.13852700  0.88247800  1
  C  C6  1  0.87144400  0.86147300  0.88247800  1
  C  C7  1  0.86147300  0.62855600  0.63247800  1
  C  C8  1  0.86147300  0.12855600  0.11752200  1
  C  C9  1  0.37144400  0.86147300  0.36752200  1
  C  C10  1  0.62855600  0.13852700  0.36752200  1
  C  C11  1  0.13852700  0.87144400  0.11752200  1
  C  C12  1  0.63852700  0.87144400  0.13247800  1
  C  C13  1  0.62855600  0.63852700  0.38247800  1
  C  C14  1  0.37144400  0.36147300  0.38247800  1
  C  C15  1  0.36147300  0.12855600  0.13247800  1
  Cl  Cl16  1  0.39022500  0.54426400  0.76947400  1
  Cl  Cl17  1  0.95573600  0.39022500  0.01947400  1
  Cl  Cl18  1  0.04426400  0.60977500  0.01947400  1
  Cl  Cl19  1  0.60977500  0.45573600  0.76947400  1
  Cl  Cl20  1  0.10977500  0.45573600  0.48052600  1
  Cl  Cl21  1  0.04426400  0.10977500  0.73052600  1
  Cl  Cl22  1  0.95573600  0.89022500  0.73052600  1
  Cl  Cl23  1  0.89022500  0.54426400  0.48052600  1
  Cl  Cl24  1  0.30538150  0.60458050  0.38277450  1
  Cl  Cl25  1  0.89541950  0.30538150  0.63277450  1
  Cl  Cl26  1  0.10458050  0.69461850  0.63277450  1
  Cl  Cl27  1  0.69461850  0.39541950  0.38277450  1
  Cl  Cl28  1  0.19461850  0.39541950  0.86722550  1
  Cl  Cl29  1  0.10458050  0.19461850  0.11722550  1
  Cl  Cl30  1  0.89541950  0.80538150  0.11722550  1
  Cl  Cl31  1  0.80538150  0.60458050  0.86722550  1
  Cl  Cl32  1  0.89022500  0.04426400  0.26947400  1
  Cl  Cl33  1  0.45573600  0.89022500  0.51947400  1
  Cl  Cl34  1  0.54426400  0.10977500  0.51947400  1
  Cl  Cl35  1  0.10977500  0.95573600  0.26947400  1
  Cl  Cl36  1  0.60977500  0.95573600  0.98052600  1
  Cl  Cl37  1  0.54426400  0.60977500  0.23052600  1
  Cl  Cl38  1  0.45573600  0.39022500  0.23052600  1
  Cl  Cl39  1  0.39022500  0.04426400  0.98052600  1
  Cl  Cl40  1  0.80538150  0.10458050  0.88277450  1
  Cl  Cl41  1  0.39541950  0.80538150  0.13277450  1
  Cl  Cl42  1  0.60458050  0.19461850  0.13277450  1
  Cl  Cl43  1  0.19461850  0.89541950  0.88277450  1
  Cl  Cl44  1  0.69461850  0.89541950  0.36722550  1
  Cl  Cl45  1  0.60458050  0.69461850  0.61722550  1
  Cl  Cl46  1  0.39541950  0.30538150  0.61722550  1
  Cl  Cl47  1  0.30538150  0.10458050  0.36722550  1
  O  O48  1  0.87935450  0.19477550  0.17021050  1
  O  O49  1  0.80522450  0.37935450  0.92021050  1
  O  O50  1  0.19477550  0.62064550  0.92021050  1
  O  O51  1  0.12064550  0.80522450  0.17021050  1
  O  O52  1  0.12064550  0.30522450  0.57978950  1
  O  O53  1  0.69477550  0.62064550  0.32978950  1
  O  O54  1  0.30522450  0.37935450  0.32978950  1
  O  O55  1  0.87935450  0.69477550  0.57978950  1
  O  O56  1  0.37935450  0.69477550  0.67021050  1
  O  O57  1  0.30522450  0.87935450  0.42021050  1
  O  O58  1  0.69477550  0.12064550  0.42021050  1
  O  O59  1  0.62064550  0.30522450  0.67021050  1
  O  O60  1  0.62064550  0.80522450  0.07978950  1
  O  O61  1  0.19477550  0.12064550  0.82978950  1
  O  O62  1  0.80522450  0.87935450  0.82978950  1
  O  O63  1  0.37935450  0.19477550  0.07978950  1
