# generated using pymatgen
data_Sb5IO7
_symmetry_space_group_name_H-M   'P 1'
_cell_length_a   6.94738620
_cell_length_b   6.94738620
_cell_length_c   12.97691900
_cell_angle_alpha   90.00000000
_cell_angle_beta   90.00000000
_cell_angle_gamma   120.00000000
_symmetry_Int_Tables_number   1
_chemical_formula_structural   Sb5IO7
_chemical_formula_sum   'Sb10 I2 O14'
_cell_volume   542.43175892
_cell_formula_units_Z   2
loop_
 _symmetry_equiv_pos_site_id
 _symmetry_equiv_pos_as_xyz
  1  'x, y, z'
loop_
 _atom_site_type_symbol
 _atom_site_label
 _atom_site_symmetry_multiplicity
 _atom_site_fract_x
 _atom_site_fract_y
 _atom_site_fract_z
 _atom_site_occupancy
  Sb  Sb0  1  0.66666667  0.33333333  0.94636100  1
  Sb  Sb1  1  0.66666667  0.33333333  0.55363900  1
  Sb  Sb2  1  0.33333333  0.66666667  0.05363900  1
  Sb  Sb3  1  0.33333333  0.66666667  0.44636100  1
  Sb  Sb4  1  0.63971900  0.67904600  0.75000000  1
  Sb  Sb5  1  0.32095400  0.96067300  0.75000000  1
  Sb  Sb6  1  0.03932700  0.36028100  0.75000000  1
  Sb  Sb7  1  0.36028100  0.03932700  0.25000000  1
  Sb  Sb8  1  0.96067300  0.32095400  0.25000000  1
  Sb  Sb9  1  0.67904600  0.63971900  0.25000000  1
  I  I10  1  0.00000000  0.00000000  0.50000000  1
  I  I11  1  0.00000000  0.00000000  0.00000000  1
  O  O12  1  0.55025200  0.05742500  0.64018500  1
  O  O13  1  0.94257500  0.49282700  0.64018500  1
  O  O14  1  0.50717300  0.44974800  0.64018500  1
  O  O15  1  0.44974800  0.50717300  0.35981500  1
  O  O16  1  0.50717300  0.44974800  0.85981500  1
  O  O17  1  0.55025200  0.05742500  0.85981500  1
  O  O18  1  0.94257500  0.49282700  0.85981500  1
  O  O19  1  0.05742500  0.55025200  0.14018500  1
  O  O20  1  0.49282700  0.94257500  0.14018500  1
  O  O21  1  0.49282700  0.94257500  0.35981500  1
  O  O22  1  0.05742500  0.55025200  0.35981500  1
  O  O23  1  0.44974800  0.50717300  0.14018500  1
  O  O24  1  0.66666667  0.33333333  0.25000000  1
  O  O25  1  0.33333333  0.66666667  0.75000000  1
