# generated using pymatgen
data_BaSn2S3
_symmetry_space_group_name_H-M   'P 1'
_cell_length_a   6.24477000
_cell_length_b   13.66459800
_cell_length_c   12.08429107
_cell_angle_alpha   90.00000000
_cell_angle_beta   101.16877584
_cell_angle_gamma   90.00000000
_symmetry_Int_Tables_number   1
_chemical_formula_structural   BaSn2S3
_chemical_formula_sum   'Ba6 Sn12 S18'
_cell_volume   1011.65034666
_cell_formula_units_Z   6
loop_
 _symmetry_equiv_pos_site_id
 _symmetry_equiv_pos_as_xyz
  1  'x, y, z'
loop_
 _atom_site_type_symbol
 _atom_site_label
 _atom_site_symmetry_multiplicity
 _atom_site_fract_x
 _atom_site_fract_y
 _atom_site_fract_z
 _atom_site_occupancy
  Ba  Ba0  1  0.12348300  0.25000000  0.47452000  1
  Ba  Ba1  1  0.87651700  0.75000000  0.52548000  1
  Ba  Ba2  1  0.79934100  0.57827000  0.12811900  1
  Ba  Ba3  1  0.20065900  0.07827000  0.87188100  1
  Ba  Ba4  1  0.20065900  0.42173000  0.87188100  1
  Ba  Ba5  1  0.79934100  0.92173000  0.12811900  1
  Sn  Sn6  1  0.45346800  0.11401600  0.22780900  1
  Sn  Sn7  1  0.38274800  0.75000000  0.20816400  1
  Sn  Sn8  1  0.22458900  0.55207300  0.44765600  1
  Sn  Sn9  1  0.77541100  0.05207300  0.55234400  1
  Sn  Sn10  1  0.77541100  0.44792700  0.55234400  1
  Sn  Sn11  1  0.22458900  0.94792700  0.44765600  1
  Sn  Sn12  1  0.84262000  0.25000000  0.09923200  1
  Sn  Sn13  1  0.15738000  0.75000000  0.90076800  1
  Sn  Sn14  1  0.54653200  0.61401600  0.77219100  1
  Sn  Sn15  1  0.54653200  0.88598400  0.77219100  1
  Sn  Sn16  1  0.45346800  0.38598400  0.22780900  1
  Sn  Sn17  1  0.61725200  0.25000000  0.79183600  1
  S  S18  1  0.24841100  0.25000000  0.07014400  1
  S  S19  1  0.75158900  0.75000000  0.92985600  1
  S  S20  1  0.57375900  0.25000000  0.37831300  1
  S  S21  1  0.42624100  0.75000000  0.62168700  1
  S  S22  1  0.96117000  0.25000000  0.71708500  1
  S  S23  1  0.03883000  0.75000000  0.28291500  1
  S  S24  1  0.26144200  0.60682200  0.05111700  1
  S  S25  1  0.73855800  0.10682200  0.94888300  1
  S  S26  1  0.73855800  0.39317800  0.94888300  1
  S  S27  1  0.26144200  0.89317800  0.05111700  1
  S  S28  1  0.91284400  0.57910800  0.70965300  1
  S  S29  1  0.08715600  0.07910800  0.29034700  1
  S  S30  1  0.08715600  0.42089200  0.29034700  1
  S  S31  1  0.91284400  0.92089200  0.70965300  1
  S  S32  1  0.59463500  0.92888400  0.38608700  1
  S  S33  1  0.40536500  0.07111600  0.61391300  1
  S  S34  1  0.40536500  0.42888400  0.61391300  1
  S  S35  1  0.59463500  0.57111600  0.38608700  1
