# generated using pymatgen
data_Rb4Mg3H10
_symmetry_space_group_name_H-M   'P 1'
_cell_length_a   6.04650600
_cell_length_b   14.16033600
_cell_length_c   13.56827300
_cell_angle_alpha   90.00000000
_cell_angle_beta   90.00000000
_cell_angle_gamma   90.00000000
_symmetry_Int_Tables_number   1
_chemical_formula_structural   Rb4Mg3H10
_chemical_formula_sum   'Rb16 Mg12 H40'
_cell_volume   1161.72308617
_cell_formula_units_Z   4
loop_
 _symmetry_equiv_pos_site_id
 _symmetry_equiv_pos_as_xyz
  1  'x, y, z'
loop_
 _atom_site_type_symbol
 _atom_site_label
 _atom_site_symmetry_multiplicity
 _atom_site_fract_x
 _atom_site_fract_y
 _atom_site_fract_z
 _atom_site_occupancy
  Rb  Rb0  1  0.50000000  0.95907300  0.13940800  1
  Rb  Rb1  1  0.00000000  0.54092700  0.86059200  1
  Rb  Rb2  1  0.50000000  0.54092700  0.63940800  1
  Rb  Rb3  1  0.00000000  0.95907300  0.36059200  1
  Rb  Rb4  1  0.50000000  0.75715100  0.39474500  1
  Rb  Rb5  1  0.00000000  0.74284900  0.60525500  1
  Rb  Rb6  1  0.50000000  0.74284900  0.89474500  1
  Rb  Rb7  1  0.00000000  0.75715100  0.10525500  1
  Rb  Rb8  1  0.00000000  0.45907300  0.13940800  1
  Rb  Rb9  1  0.50000000  0.04092700  0.86059200  1
  Rb  Rb10  1  0.00000000  0.04092700  0.63940800  1
  Rb  Rb11  1  0.50000000  0.45907300  0.36059200  1
  Rb  Rb12  1  0.00000000  0.25715100  0.39474500  1
  Rb  Rb13  1  0.50000000  0.24284900  0.60525500  1
  Rb  Rb14  1  0.00000000  0.24284900  0.89474500  1
  Rb  Rb15  1  0.50000000  0.25715100  0.10525500  1
  Mg  Mg16  1  0.50000000  0.50000000  0.00000000  1
  Mg  Mg17  1  0.00000000  0.50000000  0.50000000  1
  Mg  Mg18  1  0.50000000  0.62226800  0.15663700  1
  Mg  Mg19  1  0.00000000  0.87773200  0.84336300  1
  Mg  Mg20  1  0.50000000  0.87773200  0.65663700  1
  Mg  Mg21  1  0.00000000  0.62226800  0.34336300  1
  Mg  Mg22  1  0.00000000  0.00000000  0.00000000  1
  Mg  Mg23  1  0.50000000  0.00000000  0.50000000  1
  Mg  Mg24  1  0.00000000  0.12226800  0.15663700  1
  Mg  Mg25  1  0.50000000  0.37773200  0.84336300  1
  Mg  Mg26  1  0.00000000  0.37773200  0.65663700  1
  Mg  Mg27  1  0.50000000  0.12226800  0.34336300  1
  H  H28  1  0.50000000  0.75610300  0.14808400  1
  H  H29  1  0.00000000  0.74389700  0.85191600  1
  H  H30  1  0.50000000  0.74389700  0.64808400  1
  H  H31  1  0.00000000  0.75610300  0.35191600  1
  H  H32  1  0.50000000  0.97262900  0.35625600  1
  H  H33  1  0.00000000  0.52737100  0.64374400  1
  H  H34  1  0.50000000  0.52737100  0.85625600  1
  H  H35  1  0.00000000  0.97262900  0.14374400  1
  H  H36  1  0.25000000  0.61078700  0.25000000  1
  H  H37  1  0.75000000  0.88921300  0.75000000  1
  H  H38  1  0.25000000  0.88921300  0.75000000  1
  H  H39  1  0.75000000  0.61078700  0.25000000  1
  H  H40  1  0.78614650  0.90135550  0.96045200  1
  H  H41  1  0.28614650  0.59864450  0.03954800  1
  H  H42  1  0.78614650  0.59864450  0.46045200  1
  H  H43  1  0.28614650  0.90135550  0.53954800  1
  H  H44  1  0.21385350  0.90135550  0.96045200  1
  H  H45  1  0.71385350  0.59864450  0.03954800  1
  H  H46  1  0.71385350  0.90135550  0.53954800  1
  H  H47  1  0.21385350  0.59864450  0.46045200  1
  H  H48  1  0.00000000  0.25610300  0.14808400  1
  H  H49  1  0.50000000  0.24389700  0.85191600  1
  H  H50  1  0.00000000  0.24389700  0.64808400  1
  H  H51  1  0.50000000  0.25610300  0.35191600  1
  H  H52  1  0.00000000  0.47262900  0.35625600  1
  H  H53  1  0.50000000  0.02737100  0.64374400  1
  H  H54  1  0.00000000  0.02737100  0.85625600  1
  H  H55  1  0.50000000  0.47262900  0.14374400  1
  H  H56  1  0.75000000  0.11078700  0.25000000  1
  H  H57  1  0.25000000  0.38921300  0.75000000  1
  H  H58  1  0.75000000  0.38921300  0.75000000  1
  H  H59  1  0.25000000  0.11078700  0.25000000  1
  H  H60  1  0.28614650  0.40135550  0.96045200  1
  H  H61  1  0.78614650  0.09864450  0.03954800  1
  H  H62  1  0.28614650  0.09864450  0.46045200  1
  H  H63  1  0.78614650  0.40135550  0.53954800  1
  H  H64  1  0.71385350  0.40135550  0.96045200  1
  H  H65  1  0.21385350  0.09864450  0.03954800  1
  H  H66  1  0.21385350  0.40135550  0.53954800  1
  H  H67  1  0.71385350  0.09864450  0.46045200  1
