# generated using pymatgen
data_Bi3BrO4
_symmetry_space_group_name_H-M   'P 1'
_cell_length_a   5.81917200
_cell_length_b   5.84069100
_cell_length_c   19.30941500
_cell_angle_alpha   90.00000000
_cell_angle_beta   90.00000000
_cell_angle_gamma   90.00000000
_symmetry_Int_Tables_number   1
_chemical_formula_structural   Bi3BrO4
_chemical_formula_sum   'Bi12 Br4 O16'
_cell_volume   656.28811757
_cell_formula_units_Z   4
loop_
 _symmetry_equiv_pos_site_id
 _symmetry_equiv_pos_as_xyz
  1  'x, y, z'
loop_
 _atom_site_type_symbol
 _atom_site_label
 _atom_site_symmetry_multiplicity
 _atom_site_fract_x
 _atom_site_fract_y
 _atom_site_fract_z
 _atom_site_occupancy
  Bi  Bi0  1  0.29978800  0.70182200  0.35929100  1
  Bi  Bi1  1  0.79978800  0.29817800  0.35929100  1
  Bi  Bi2  1  0.70021200  0.20182200  0.85929100  1
  Bi  Bi3  1  0.79978800  0.20182200  0.14070900  1
  Bi  Bi4  1  0.70021200  0.29817800  0.64070900  1
  Bi  Bi5  1  0.20021200  0.70182200  0.64070900  1
  Bi  Bi6  1  0.29978800  0.79817800  0.14070900  1
  Bi  Bi7  1  0.20021200  0.79817800  0.85929100  1
  Bi  Bi8  1  0.75000000  0.79868800  0.50000000  1
  Bi  Bi9  1  0.75000000  0.70131200  0.00000000  1
  Bi  Bi10  1  0.25000000  0.20131200  0.50000000  1
  Bi  Bi11  1  0.25000000  0.29868800  0.00000000  1
  Br  Br12  1  0.72889300  0.75000000  0.75000000  1
  Br  Br13  1  0.27110700  0.25000000  0.25000000  1
  Br  Br14  1  0.77110700  0.75000000  0.25000000  1
  Br  Br15  1  0.22889300  0.25000000  0.75000000  1
  O  O16  1  0.07231800  0.93193000  0.56398600  1
  O  O17  1  0.42768200  0.93193000  0.43601400  1
  O  O18  1  0.07231800  0.56807000  0.93601400  1
  O  O19  1  0.42768200  0.56807000  0.06398600  1
  O  O20  1  0.92768200  0.06807000  0.43601400  1
  O  O21  1  0.57231800  0.06807000  0.56398600  1
  O  O22  1  0.92768200  0.43193000  0.06398600  1
  O  O23  1  0.57231800  0.43193000  0.93601400  1
  O  O24  1  0.98383400  0.45730600  0.58790900  1
  O  O25  1  0.48383400  0.95730600  0.91209100  1
  O  O26  1  0.98383400  0.04269400  0.91209100  1
  O  O27  1  0.51616600  0.04269400  0.08790900  1
  O  O28  1  0.01616600  0.54269400  0.41209100  1
  O  O29  1  0.48383400  0.54269400  0.58790900  1
  O  O30  1  0.01616600  0.95730600  0.08790900  1
  O  O31  1  0.51616600  0.45730600  0.41209100  1
