# generated using pymatgen
data_LiCuPO4
_symmetry_space_group_name_H-M   'P 1'
_cell_length_a   4.97506400
_cell_length_b   4.97506400
_cell_length_c   6.82863200
_cell_angle_alpha   90.00000000
_cell_angle_beta   90.00000000
_cell_angle_gamma   90.00000000
_symmetry_Int_Tables_number   1
_chemical_formula_structural   LiCuPO4
_chemical_formula_sum   'Li2 Cu2 P2 O8'
_cell_volume   169.01725840
_cell_formula_units_Z   2
loop_
 _symmetry_equiv_pos_site_id
 _symmetry_equiv_pos_as_xyz
  1  'x, y, z'
loop_
 _atom_site_type_symbol
 _atom_site_label
 _atom_site_symmetry_multiplicity
 _atom_site_fract_x
 _atom_site_fract_y
 _atom_site_fract_z
 _atom_site_occupancy
  Li  Li0  1  0.00000000  0.00000000  0.50000000  1
  Li  Li1  1  0.50000000  0.50000000  0.00000000  1
  Cu  Cu2  1  0.00000000  0.00000000  0.00000000  1
  Cu  Cu3  1  0.50000000  0.50000000  0.50000000  1
  P  P4  1  0.00000000  0.50000000  0.25000000  1
  P  P5  1  0.50000000  0.00000000  0.75000000  1
  O  O6  1  0.68474500  0.18046300  0.87851600  1
  O  O7  1  0.18046300  0.31525500  0.12148400  1
  O  O8  1  0.31953700  0.18474500  0.62148400  1
  O  O9  1  0.81525500  0.31953700  0.37851600  1
  O  O10  1  0.18474500  0.68046300  0.37851600  1
  O  O11  1  0.68046300  0.81525500  0.62148400  1
  O  O12  1  0.81953700  0.68474500  0.12148400  1
  O  O13  1  0.31525500  0.81953700  0.87851600  1
