# generated using pymatgen
data_K2Zn3O4
_symmetry_space_group_name_H-M   'P 1'
_cell_length_a   15.03220800
_cell_length_b   6.47296000
_cell_length_c   5.83568453
_cell_angle_alpha   90.00000000
_cell_angle_beta   103.26431168
_cell_angle_gamma   90.00000000
_symmetry_Int_Tables_number   1
_chemical_formula_structural   K2Zn3O4
_chemical_formula_sum   'K8 Zn12 O16'
_cell_volume   552.68036462
_cell_formula_units_Z   4
loop_
 _symmetry_equiv_pos_site_id
 _symmetry_equiv_pos_as_xyz
  1  'x, y, z'
loop_
 _atom_site_type_symbol
 _atom_site_label
 _atom_site_symmetry_multiplicity
 _atom_site_fract_x
 _atom_site_fract_y
 _atom_site_fract_z
 _atom_site_occupancy
  K  K0  1  0.11927900  0.87583200  0.98811100  1
  K  K1  1  0.11927900  0.12416800  0.48811100  1
  K  K2  1  0.38072100  0.62416800  0.01188900  1
  K  K3  1  0.38072100  0.37583200  0.51188900  1
  K  K4  1  0.61927900  0.37583200  0.98811100  1
  K  K5  1  0.61927900  0.62416800  0.48811100  1
  K  K6  1  0.88072100  0.12416800  0.01188900  1
  K  K7  1  0.88072100  0.87583200  0.51188900  1
  Zn  Zn8  1  0.19114200  0.38245100  0.08487600  1
  Zn  Zn9  1  0.19114200  0.61754900  0.58487600  1
  Zn  Zn10  1  0.30885800  0.11754900  0.91512400  1
  Zn  Zn11  1  0.00000000  0.51933800  0.25000000  1
  Zn  Zn12  1  0.00000000  0.48066200  0.75000000  1
  Zn  Zn13  1  0.30885800  0.88245100  0.41512400  1
  Zn  Zn14  1  0.69114200  0.88245100  0.08487600  1
  Zn  Zn15  1  0.69114200  0.11754900  0.58487600  1
  Zn  Zn16  1  0.80885800  0.61754900  0.91512400  1
  Zn  Zn17  1  0.50000000  0.01933800  0.25000000  1
  Zn  Zn18  1  0.50000000  0.98066200  0.75000000  1
  Zn  Zn19  1  0.80885800  0.38245100  0.41512400  1
  O  O20  1  0.26419800  0.12246800  0.21366000  1
  O  O21  1  0.05831400  0.32279300  0.04482800  1
  O  O22  1  0.44168600  0.82279300  0.45517200  1
  O  O23  1  0.44168600  0.17720700  0.95517200  1
  O  O24  1  0.23580200  0.62246800  0.28634000  1
  O  O25  1  0.23580200  0.37753200  0.78634000  1
  O  O26  1  0.26419800  0.87753200  0.71366000  1
  O  O27  1  0.05831400  0.67720700  0.54482800  1
  O  O28  1  0.76419800  0.62246800  0.21366000  1
  O  O29  1  0.55831400  0.82279300  0.04482800  1
  O  O30  1  0.94168600  0.32279300  0.45517200  1
  O  O31  1  0.94168600  0.67720700  0.95517200  1
  O  O32  1  0.73580200  0.12246800  0.28634000  1
  O  O33  1  0.73580200  0.87753200  0.78634000  1
  O  O34  1  0.76419800  0.37753200  0.71366000  1
  O  O35  1  0.55831400  0.17720700  0.54482800  1
