# generated using pymatgen
data_Na4B2O5
_symmetry_space_group_name_H-M   'P 1'
_cell_length_a   10.71891800
_cell_length_b   8.07780200
_cell_length_c   6.38000926
_cell_angle_alpha   90.00000000
_cell_angle_beta   110.09864174
_cell_angle_gamma   90.00000000
_symmetry_Int_Tables_number   1
_chemical_formula_structural   Na4B2O5
_chemical_formula_sum   'Na16 B8 O20'
_cell_volume   518.77424999
_cell_formula_units_Z   4
loop_
 _symmetry_equiv_pos_site_id
 _symmetry_equiv_pos_as_xyz
  1  'x, y, z'
loop_
 _atom_site_type_symbol
 _atom_site_label
 _atom_site_symmetry_multiplicity
 _atom_site_fract_x
 _atom_site_fract_y
 _atom_site_fract_z
 _atom_site_occupancy
  Na  Na0  1  0.35886200  0.67325000  0.22756700  1
  Na  Na1  1  0.64113800  0.67325000  0.27243300  1
  Na  Na2  1  0.64113800  0.32675000  0.77243300  1
  Na  Na3  1  0.35886200  0.32675000  0.72756700  1
  Na  Na4  1  0.36565300  0.96320200  0.57281600  1
  Na  Na5  1  0.63434700  0.96320200  0.92718400  1
  Na  Na6  1  0.63434700  0.03679800  0.42718400  1
  Na  Na7  1  0.36565300  0.03679800  0.07281600  1
  Na  Na8  1  0.85886200  0.17325000  0.22756700  1
  Na  Na9  1  0.14113800  0.17325000  0.27243300  1
  Na  Na10  1  0.14113800  0.82675000  0.77243300  1
  Na  Na11  1  0.85886200  0.82675000  0.72756700  1
  Na  Na12  1  0.86565300  0.46320200  0.57281600  1
  Na  Na13  1  0.13434700  0.46320200  0.92718400  1
  Na  Na14  1  0.13434700  0.53679800  0.42718400  1
  Na  Na15  1  0.86565300  0.53679800  0.07281600  1
  B  B16  1  0.59154500  0.33624900  0.16751700  1
  B  B17  1  0.40845500  0.33624900  0.33248300  1
  B  B18  1  0.40845500  0.66375100  0.83248300  1
  B  B19  1  0.59154500  0.66375100  0.66751700  1
  B  B20  1  0.09154500  0.83624900  0.16751700  1
  B  B21  1  0.90845500  0.83624900  0.33248300  1
  B  B22  1  0.90845500  0.16375100  0.83248300  1
  B  B23  1  0.09154500  0.16375100  0.66751700  1
  O  O24  1  0.50000000  0.57563400  0.75000000  1
  O  O25  1  0.50000000  0.42436600  0.25000000  1
  O  O26  1  0.54611300  0.80240600  0.54015400  1
  O  O27  1  0.45388700  0.80240600  0.95984600  1
  O  O28  1  0.21642700  0.90106100  0.21690600  1
  O  O29  1  0.78357300  0.90106100  0.28309400  1
  O  O30  1  0.78357300  0.09893900  0.78309400  1
  O  O31  1  0.21642700  0.09893900  0.71690600  1
  O  O32  1  0.54611300  0.19759400  0.04015400  1
  O  O33  1  0.45388700  0.19759400  0.45984600  1
  O  O34  1  0.00000000  0.07563400  0.75000000  1
  O  O35  1  0.00000000  0.92436600  0.25000000  1
  O  O36  1  0.04611300  0.30240600  0.54015400  1
  O  O37  1  0.95388700  0.30240600  0.95984600  1
  O  O38  1  0.71642700  0.40106100  0.21690600  1
  O  O39  1  0.28357300  0.40106100  0.28309400  1
  O  O40  1  0.28357300  0.59893900  0.78309400  1
  O  O41  1  0.71642700  0.59893900  0.71690600  1
  O  O42  1  0.04611300  0.69759400  0.04015400  1
  O  O43  1  0.95388700  0.69759400  0.45984600  1
