# generated using pymatgen
data_Hg3(SI)2
_symmetry_space_group_name_H-M   'P 1'
_cell_length_a   9.77515800
_cell_length_b   10.02467800
_cell_length_c   19.45295400
_cell_angle_alpha   90.00000000
_cell_angle_beta   90.00000000
_cell_angle_gamma   90.00000000
_symmetry_Int_Tables_number   1
_chemical_formula_structural   Hg3(SI)2
_chemical_formula_sum   'Hg24 S16 I16'
_cell_volume   1906.24965151
_cell_formula_units_Z   8
loop_
 _symmetry_equiv_pos_site_id
 _symmetry_equiv_pos_as_xyz
  1  'x, y, z'
loop_
 _atom_site_type_symbol
 _atom_site_label
 _atom_site_symmetry_multiplicity
 _atom_site_fract_x
 _atom_site_fract_y
 _atom_site_fract_z
 _atom_site_occupancy
  Hg  Hg0  1  0.75000000  0.75000000  0.10098950  1
  Hg  Hg1  1  0.75000000  0.25000000  0.39901050  1
  Hg  Hg2  1  0.75000000  0.75000000  0.39901050  1
  Hg  Hg3  1  0.75000000  0.25000000  0.10098950  1
  Hg  Hg4  1  0.99800050  0.72911950  0.25000000  1
  Hg  Hg5  1  0.99800050  0.27088050  0.25000000  1
  Hg  Hg6  1  0.50199950  0.22911950  0.25000000  1
  Hg  Hg7  1  0.50199950  0.77088050  0.25000000  1
  Hg  Hg8  1  0.45663950  0.50000000  0.38393850  1
  Hg  Hg9  1  0.45663950  0.50000000  0.11606150  1
  Hg  Hg10  1  0.04336050  0.00000000  0.11606150  1
  Hg  Hg11  1  0.04336050  0.00000000  0.38393850  1
  Hg  Hg12  1  0.25000000  0.25000000  0.60098950  1
  Hg  Hg13  1  0.25000000  0.75000000  0.89901050  1
  Hg  Hg14  1  0.25000000  0.25000000  0.89901050  1
  Hg  Hg15  1  0.25000000  0.75000000  0.60098950  1
  Hg  Hg16  1  0.49800050  0.22911950  0.75000000  1
  Hg  Hg17  1  0.49800050  0.77088050  0.75000000  1
  Hg  Hg18  1  0.00199950  0.72911950  0.75000000  1
  Hg  Hg19  1  0.00199950  0.27088050  0.75000000  1
  Hg  Hg20  1  0.95663950  0.00000000  0.88393850  1
  Hg  Hg21  1  0.95663950  0.00000000  0.61606150  1
  Hg  Hg22  1  0.54336050  0.50000000  0.61606150  1
  Hg  Hg23  1  0.54336050  0.50000000  0.88393850  1
  S  S24  1  0.99946350  0.75787150  0.12476950  1
  S  S25  1  0.99946350  0.24212850  0.37523050  1
  S  S26  1  0.50053650  0.25787150  0.37523050  1
  S  S27  1  0.50053650  0.74212850  0.12476950  1
  S  S28  1  0.50053650  0.74212850  0.37523050  1
  S  S29  1  0.50053650  0.25787150  0.12476950  1
  S  S30  1  0.99946350  0.24212850  0.12476950  1
  S  S31  1  0.99946350  0.75787150  0.37523050  1
  S  S32  1  0.49946350  0.25787150  0.62476950  1
  S  S33  1  0.49946350  0.74212850  0.87523050  1
  S  S34  1  0.00053650  0.75787150  0.87523050  1
  S  S35  1  0.00053650  0.24212850  0.62476950  1
  S  S36  1  0.00053650  0.24212850  0.87523050  1
  S  S37  1  0.00053650  0.75787150  0.62476950  1
  S  S38  1  0.49946350  0.74212850  0.62476950  1
  S  S39  1  0.49946350  0.25787150  0.87523050  1
  I  I40  1  0.74317750  0.00000000  0.00066550  1
  I  I41  1  0.74317750  0.00000000  0.49933450  1
  I  I42  1  0.75682250  0.50000000  0.49933450  1
  I  I43  1  0.75682250  0.50000000  0.00066550  1
  I  I44  1  0.72871450  0.00000000  0.25000000  1
  I  I45  1  0.77128550  0.50000000  0.25000000  1
  I  I46  1  0.25610450  0.00000000  0.25000000  1
  I  I47  1  0.24389550  0.50000000  0.25000000  1
  I  I48  1  0.24317750  0.50000000  0.50066550  1
  I  I49  1  0.24317750  0.50000000  0.99933450  1
  I  I50  1  0.25682250  0.00000000  0.99933450  1
  I  I51  1  0.25682250  0.00000000  0.50066550  1
  I  I52  1  0.22871450  0.50000000  0.75000000  1
  I  I53  1  0.27128550  0.00000000  0.75000000  1
  I  I54  1  0.75610450  0.50000000  0.75000000  1
  I  I55  1  0.74389550  0.00000000  0.75000000  1
