# generated using pymatgen
data_PbBr2
_symmetry_space_group_name_H-M   'P 1'
_cell_length_a   4.75394200
_cell_length_b   8.23671400
_cell_length_c   10.15750900
_cell_angle_alpha   90.00000000
_cell_angle_beta   90.00000000
_cell_angle_gamma   90.00000000
_symmetry_Int_Tables_number   1
_chemical_formula_structural   PbBr2
_chemical_formula_sum   'Pb4 Br8'
_cell_volume   397.73616423
_cell_formula_units_Z   4
loop_
 _symmetry_equiv_pos_site_id
 _symmetry_equiv_pos_as_xyz
  1  'x, y, z'
loop_
 _atom_site_type_symbol
 _atom_site_label
 _atom_site_symmetry_multiplicity
 _atom_site_fract_x
 _atom_site_fract_y
 _atom_site_fract_z
 _atom_site_occupancy
  Pb  Pb0  1  0.25000000  0.23162900  0.42813300  1
  Pb  Pb1  1  0.75000000  0.76837100  0.57186700  1
  Pb  Pb2  1  0.25000000  0.73162900  0.07186700  1
  Pb  Pb3  1  0.75000000  0.26837100  0.92813300  1
  Br  Br4  1  0.25000000  0.00671700  0.65330900  1
  Br  Br5  1  0.75000000  0.99328300  0.34669100  1
  Br  Br6  1  0.25000000  0.50671700  0.84669100  1
  Br  Br7  1  0.75000000  0.49328300  0.15330900  1
  Br  Br8  1  0.75000000  0.85934100  0.91271400  1
  Br  Br9  1  0.25000000  0.14065900  0.08728600  1
  Br  Br10  1  0.75000000  0.35934100  0.58728600  1
  Br  Br11  1  0.25000000  0.64065900  0.41271400  1
