# generated using pymatgen
data_KCu4(AsO4)3
_symmetry_space_group_name_H-M   'P 1'
_cell_length_a   12.43064600
_cell_length_b   12.57876200
_cell_length_c   7.54950744
_cell_angle_alpha   90.00000000
_cell_angle_beta   118.67339869
_cell_angle_gamma   90.00000000
_symmetry_Int_Tables_number   1
_chemical_formula_structural   KCu4(AsO4)3
_chemical_formula_sum   'K4 Cu16 As12 O48'
_cell_volume   1035.69651587
_cell_formula_units_Z   4
loop_
 _symmetry_equiv_pos_site_id
 _symmetry_equiv_pos_as_xyz
  1  'x, y, z'
loop_
 _atom_site_type_symbol
 _atom_site_label
 _atom_site_symmetry_multiplicity
 _atom_site_fract_x
 _atom_site_fract_y
 _atom_site_fract_z
 _atom_site_occupancy
  K  K0  1  0.50000000  0.48767600  0.75000000  1
  K  K1  1  0.50000000  0.51232400  0.25000000  1
  K  K2  1  0.00000000  0.98767600  0.75000000  1
  K  K3  1  0.00000000  0.01232400  0.25000000  1
  Cu  Cu4  1  0.22499700  0.15734200  0.64440400  1
  Cu  Cu5  1  0.50000000  0.99491500  0.25000000  1
  Cu  Cu6  1  0.50000000  0.76252800  0.75000000  1
  Cu  Cu7  1  0.22499700  0.84265800  0.14440400  1
  Cu  Cu8  1  0.50000000  0.23747200  0.25000000  1
  Cu  Cu9  1  0.50000000  0.00508500  0.75000000  1
  Cu  Cu10  1  0.77500300  0.15734200  0.85559600  1
  Cu  Cu11  1  0.77500300  0.84265800  0.35559600  1
  Cu  Cu12  1  0.72499700  0.65734200  0.64440400  1
  Cu  Cu13  1  0.00000000  0.49491500  0.25000000  1
  Cu  Cu14  1  0.00000000  0.26252800  0.75000000  1
  Cu  Cu15  1  0.72499700  0.34265800  0.14440400  1
  Cu  Cu16  1  0.00000000  0.73747200  0.25000000  1
  Cu  Cu17  1  0.00000000  0.50508500  0.75000000  1
  Cu  Cu18  1  0.27500300  0.65734200  0.85559600  1
  Cu  Cu19  1  0.27500300  0.34265800  0.35559600  1
  As  As20  1  0.76732250  0.88055350  0.87612000  1
  As  As21  1  0.76732250  0.11944650  0.37612000  1
  As  As22  1  0.23267750  0.88055350  0.62388000  1
  As  As23  1  0.50000000  0.77628300  0.25000000  1
  As  As24  1  0.50000000  0.22371700  0.75000000  1
  As  As25  1  0.23267750  0.11944650  0.12388000  1
  As  As26  1  0.26732250  0.38055350  0.87612000  1
  As  As27  1  0.26732250  0.61944650  0.37612000  1
  As  As28  1  0.73267750  0.38055350  0.62388000  1
  As  As29  1  0.00000000  0.27628300  0.25000000  1
  As  As30  1  0.00000000  0.72371700  0.75000000  1
  As  As31  1  0.73267750  0.61944650  0.12388000  1
  O  O32  1  0.81999350  0.00552650  0.86737300  1
  O  O33  1  0.18000650  0.99447350  0.13262700  1
  O  O34  1  0.22192150  0.19441250  0.30702500  1
  O  O35  1  0.22192150  0.80558750  0.80702500  1
  O  O36  1  0.38736500  0.11325900  0.17989300  1
  O  O37  1  0.39783500  0.12131300  0.74127600  1
  O  O38  1  0.38736500  0.88674100  0.67989300  1
  O  O39  1  0.61263500  0.88674100  0.82010700  1
  O  O40  1  0.54789350  0.29681350  0.96642800  1
  O  O41  1  0.81999350  0.99447350  0.36737300  1
  O  O42  1  0.60216500  0.87868700  0.25872400  1
  O  O43  1  0.64653750  0.66748950  0.88043900  1
  O  O44  1  0.35346250  0.66748950  0.61956100  1
  O  O45  1  0.64653750  0.33251050  0.38043900  1
  O  O46  1  0.45210650  0.70318650  0.03357200  1
  O  O47  1  0.61263500  0.11325900  0.32010700  1
  O  O48  1  0.54789350  0.70318650  0.46642800  1
  O  O49  1  0.60216500  0.12131300  0.75872400  1
  O  O50  1  0.77807850  0.80558750  0.69297500  1
  O  O51  1  0.35346250  0.33251050  0.11956100  1
  O  O52  1  0.77807850  0.19441250  0.19297500  1
  O  O53  1  0.45210650  0.29681350  0.53357200  1
  O  O54  1  0.39783500  0.87868700  0.24127600  1
  O  O55  1  0.18000650  0.00552650  0.63262700  1
  O  O56  1  0.31999350  0.50552650  0.86737300  1
  O  O57  1  0.68000650  0.49447350  0.13262700  1
  O  O58  1  0.72192150  0.69441250  0.30702500  1
  O  O59  1  0.72192150  0.30558750  0.80702500  1
  O  O60  1  0.88736500  0.61325900  0.17989300  1
  O  O61  1  0.89783500  0.62131300  0.74127600  1
  O  O62  1  0.88736500  0.38674100  0.67989300  1
  O  O63  1  0.11263500  0.38674100  0.82010700  1
  O  O64  1  0.04789350  0.79681350  0.96642800  1
  O  O65  1  0.31999350  0.49447350  0.36737300  1
  O  O66  1  0.10216500  0.37868700  0.25872400  1
  O  O67  1  0.14653750  0.16748950  0.88043900  1
  O  O68  1  0.85346250  0.16748950  0.61956100  1
  O  O69  1  0.14653750  0.83251050  0.38043900  1
  O  O70  1  0.95210650  0.20318650  0.03357200  1
  O  O71  1  0.11263500  0.61325900  0.32010700  1
  O  O72  1  0.04789350  0.20318650  0.46642800  1
  O  O73  1  0.10216500  0.62131300  0.75872400  1
  O  O74  1  0.27807850  0.30558750  0.69297500  1
  O  O75  1  0.85346250  0.83251050  0.11956100  1
  O  O76  1  0.27807850  0.69441250  0.19297500  1
  O  O77  1  0.95210650  0.79681350  0.53357200  1
  O  O78  1  0.89783500  0.37868700  0.24127600  1
  O  O79  1  0.68000650  0.50552650  0.63262700  1
