# generated using pymatgen
data_Li7SbO6
_symmetry_space_group_name_H-M   'P 1'
_cell_length_a   5.62925405
_cell_length_b   5.62925405
_cell_length_c   14.72256509
_cell_angle_alpha   90.00000000
_cell_angle_beta   90.00000000
_cell_angle_gamma   120.00000000
_symmetry_Int_Tables_number   1
_chemical_formula_structural   Li7SbO6
_chemical_formula_sum   'Li21 Sb3 O18'
_cell_volume   404.03204621
_cell_formula_units_Z   3
loop_
 _symmetry_equiv_pos_site_id
 _symmetry_equiv_pos_as_xyz
  1  'x, y, z'
loop_
 _atom_site_type_symbol
 _atom_site_label
 _atom_site_symmetry_multiplicity
 _atom_site_fract_x
 _atom_site_fract_y
 _atom_site_fract_z
 _atom_site_occupancy
  Li  Li0  1  0.33333333  0.66666667  0.01126067  1
  Li  Li1  1  0.28251667  0.94299733  0.21872133  1
  Li  Li2  1  0.66048067  0.71748333  0.21872133  1
  Li  Li3  1  0.05700267  0.33951933  0.21872133  1
  Li  Li4  1  0.39931833  0.34964767  0.11356167  1
  Li  Li5  1  0.95032933  0.60068167  0.11356167  1
  Li  Li6  1  0.65035233  0.04967067  0.11356167  1
  Li  Li7  1  0.00000000  0.00000000  0.34459400  1
  Li  Li8  1  0.94918333  0.27633067  0.55205467  1
  Li  Li9  1  0.32714733  0.05081667  0.55205467  1
  Li  Li10  1  0.72366933  0.67285267  0.55205467  1
  Li  Li11  1  0.06598500  0.68298100  0.44689500  1
  Li  Li12  1  0.61699600  0.93401500  0.44689500  1
  Li  Li13  1  0.31701900  0.38300400  0.44689500  1
  Li  Li14  1  0.66666667  0.33333333  0.67792733  1
  Li  Li15  1  0.61585000  0.60966400  0.88538800  1
  Li  Li16  1  0.99381400  0.38415000  0.88538800  1
  Li  Li17  1  0.39033600  0.00618600  0.88538800  1
  Li  Li18  1  0.73265167  0.01631433  0.78022833  1
  Li  Li19  1  0.28366267  0.26734833  0.78022833  1
  Li  Li20  1  0.98368567  0.71633733  0.78022833  1
  Sb  Sb21  1  0.66666667  0.33333333  0.33190033  1
  Sb  Sb22  1  0.33333333  0.66666667  0.66523367  1
  Sb  Sb23  1  0.00000000  0.00000000  0.99856700  1
  O  O24  1  0.37492200  0.32586400  0.25004900  1
  O  O25  1  0.27543467  0.96294133  0.07994733  1
  O  O26  1  0.68750667  0.72456533  0.07994733  1
  O  O27  1  0.67413600  0.04905800  0.25004900  1
  O  O28  1  0.95094200  0.62507800  0.25004900  1
  O  O29  1  0.03705867  0.31249333  0.07994733  1
  O  O30  1  0.04158867  0.65919733  0.58338233  1
  O  O31  1  0.94210133  0.29627467  0.41328067  1
  O  O32  1  0.35417333  0.05789867  0.41328067  1
  O  O33  1  0.34080267  0.38239133  0.58338233  1
  O  O34  1  0.61760867  0.95841133  0.58338233  1
  O  O35  1  0.70372533  0.64582667  0.41328067  1
  O  O36  1  0.70825533  0.99253067  0.91671567  1
  O  O37  1  0.60876800  0.62960800  0.74661400  1
  O  O38  1  0.02084000  0.39123200  0.74661400  1
  O  O39  1  0.00746933  0.71572467  0.91671567  1
  O  O40  1  0.28427533  0.29174467  0.91671567  1
  O  O41  1  0.37039200  0.97916000  0.74661400  1
