# generated using pymatgen
data_Er2Cu2O5
_symmetry_space_group_name_H-M   'P 1'
_cell_length_a   3.48875200
_cell_length_b   10.84675200
_cell_length_c   12.48531700
_cell_angle_alpha   90.00000000
_cell_angle_beta   90.00000000
_cell_angle_gamma   90.00000000
_symmetry_Int_Tables_number   1
_chemical_formula_structural   Er2Cu2O5
_chemical_formula_sum   'Er8 Cu8 O20'
_cell_volume   472.46471805
_cell_formula_units_Z   4
loop_
 _symmetry_equiv_pos_site_id
 _symmetry_equiv_pos_as_xyz
  1  'x, y, z'
loop_
 _atom_site_type_symbol
 _atom_site_label
 _atom_site_symmetry_multiplicity
 _atom_site_fract_x
 _atom_site_fract_y
 _atom_site_fract_z
 _atom_site_occupancy
  Er  Er0  1  0.27788900  0.54316100  0.17292300  1
  Er  Er1  1  0.72211100  0.45683900  0.67292300  1
  Er  Er2  1  0.22211100  0.04316100  0.17292300  1
  Er  Er3  1  0.77788900  0.95683900  0.67292300  1
  Er  Er4  1  0.28048300  0.70855500  0.50059400  1
  Er  Er5  1  0.71951700  0.29144500  0.00059400  1
  Er  Er6  1  0.21951700  0.20855500  0.50059400  1
  Er  Er7  1  0.78048300  0.79144500  0.00059400  1
  Cu  Cu8  1  0.84584100  0.76336300  0.28433200  1
  Cu  Cu9  1  0.15415900  0.23663700  0.78433200  1
  Cu  Cu10  1  0.65415900  0.26336300  0.28433200  1
  Cu  Cu11  1  0.34584100  0.73663700  0.78433200  1
  Cu  Cu12  1  0.84060200  0.49029400  0.39054700  1
  Cu  Cu13  1  0.15939800  0.50970600  0.89054700  1
  Cu  Cu14  1  0.65939800  0.99029400  0.39054700  1
  Cu  Cu15  1  0.34060200  0.00970600  0.89054700  1
  O  O16  1  0.27448800  0.92180000  0.03050000  1
  O  O17  1  0.72551200  0.07820000  0.53050000  1
  O  O18  1  0.22551200  0.42180000  0.03050000  1
  O  O19  1  0.77448800  0.57820000  0.53050000  1
  O  O20  1  0.72338100  0.93023500  0.23946700  1
  O  O21  1  0.27661900  0.06976500  0.73946700  1
  O  O22  1  0.77661900  0.43023500  0.23946700  1
  O  O23  1  0.22338100  0.56976500  0.73946700  1
  O  O24  1  0.16218600  0.62614100  0.33687100  1
  O  O25  1  0.83781400  0.37385900  0.83687100  1
  O  O26  1  0.33781400  0.12614100  0.33687100  1
  O  O27  1  0.66218600  0.87385900  0.83687100  1
  O  O28  1  0.78312400  0.82336000  0.43660800  1
  O  O29  1  0.21687600  0.17664000  0.93660800  1
  O  O30  1  0.71687600  0.32336000  0.43660800  1
  O  O31  1  0.28312400  0.67664000  0.93660800  1
  O  O32  1  0.27649200  0.82624400  0.64495600  1
  O  O33  1  0.72350800  0.17375600  0.14495600  1
  O  O34  1  0.22350800  0.32624400  0.64495600  1
  O  O35  1  0.77649200  0.67375600  0.14495600  1
