# generated using pymatgen
data_Nb3I8
_symmetry_space_group_name_H-M   'P 1'
_cell_length_a   7.70816193
_cell_length_b   7.70816193
_cell_length_c   44.75112707
_cell_angle_alpha   90.00000000
_cell_angle_beta   90.00000000
_cell_angle_gamma   120.00000000
_symmetry_Int_Tables_number   1
_chemical_formula_structural   Nb3I8
_chemical_formula_sum   'Nb18 I48'
_cell_volume   2302.69421007
_cell_formula_units_Z   6
loop_
 _symmetry_equiv_pos_site_id
 _symmetry_equiv_pos_as_xyz
  1  'x, y, z'
loop_
 _atom_site_type_symbol
 _atom_site_label
 _atom_site_symmetry_multiplicity
 _atom_site_fract_x
 _atom_site_fract_y
 _atom_site_fract_z
 _atom_site_occupancy
  Nb  Nb0  1  0.07114533  0.53557267  0.08217467  1
  Nb  Nb1  1  0.59552133  0.79776067  0.25115867  1
  Nb  Nb2  1  0.46442733  0.53557267  0.08217467  1
  Nb  Nb3  1  0.20223933  0.40447867  0.25115867  1
  Nb  Nb4  1  0.20223933  0.79776067  0.25115867  1
  Nb  Nb5  1  0.46442733  0.92885467  0.08217467  1
  Nb  Nb6  1  0.73781200  0.86890600  0.41550800  1
  Nb  Nb7  1  0.26218800  0.13109400  0.58449200  1
  Nb  Nb8  1  0.13109400  0.86890600  0.41550800  1
  Nb  Nb9  1  0.86890600  0.73781200  0.58449200  1
  Nb  Nb10  1  0.86890600  0.13109400  0.58449200  1
  Nb  Nb11  1  0.13109400  0.26218800  0.41550800  1
  Nb  Nb12  1  0.40447867  0.20223933  0.74884133  1
  Nb  Nb13  1  0.92885467  0.46442733  0.91782533  1
  Nb  Nb14  1  0.79776067  0.20223933  0.74884133  1
  Nb  Nb15  1  0.53557267  0.07114533  0.91782533  1
  Nb  Nb16  1  0.53557267  0.46442733  0.91782533  1
  Nb  Nb17  1  0.79776067  0.59552133  0.74884133  1
  I  I18  1  0.00307600  0.50153800  0.20851900  1
  I  I19  1  0.83077900  0.66155800  0.28522000  1
  I  I20  1  0.32822467  0.16411233  0.04811333  1
  I  I21  1  0.83588767  0.16411233  0.04811333  1
  I  I22  1  0.33333333  0.66666667  0.03433067  1
  I  I23  1  0.66359067  0.83179533  0.12481433  1
  I  I24  1  0.16820467  0.33640933  0.12481433  1
  I  I25  1  0.33333333  0.66666667  0.29900267  1
  I  I26  1  0.33844200  0.16922100  0.28522000  1
  I  I27  1  0.83077900  0.16922100  0.28522000  1
  I  I28  1  0.16820467  0.83179533  0.12481433  1
  I  I29  1  0.83588767  0.67177533  0.04811333  1
  I  I30  1  0.49846200  0.50153800  0.20851900  1
  I  I31  1  0.49846200  0.99692400  0.20851900  1
  I  I32  1  0.66666667  0.33333333  0.11476033  1
  I  I33  1  0.00000000  0.00000000  0.21857300  1
  I  I34  1  0.66974267  0.83487133  0.54185233  1
  I  I35  1  0.49744567  0.99489133  0.61855333  1
  I  I36  1  0.99489133  0.49744567  0.38144667  1
  I  I37  1  0.50255433  0.49744567  0.38144667  1
  I  I38  1  0.00000000  0.00000000  0.36766400  1
  I  I39  1  0.33025733  0.16512867  0.45814767  1
  I  I40  1  0.83487133  0.66974267  0.45814767  1
  I  I41  1  0.00000000  0.00000000  0.63233600  1
  I  I42  1  0.00510867  0.50255433  0.61855333  1
  I  I43  1  0.49744567  0.50255433  0.61855333  1
  I  I44  1  0.83487133  0.16512867  0.45814767  1
  I  I45  1  0.50255433  0.00510867  0.38144667  1
  I  I46  1  0.16512867  0.83487133  0.54185233  1
  I  I47  1  0.16512867  0.33025733  0.54185233  1
  I  I48  1  0.33333333  0.66666667  0.44809367  1
  I  I49  1  0.66666667  0.33333333  0.55190633  1
  I  I50  1  0.33640933  0.16820467  0.87518567  1
  I  I51  1  0.16411233  0.32822467  0.95188667  1
  I  I52  1  0.66155800  0.83077900  0.71478000  1
  I  I53  1  0.16922100  0.83077900  0.71478000  1
  I  I54  1  0.66666667  0.33333333  0.70099733  1
  I  I55  1  0.99692400  0.49846200  0.79148100  1
  I  I56  1  0.50153800  0.00307600  0.79148100  1
  I  I57  1  0.66666667  0.33333333  0.96566933  1
  I  I58  1  0.67177533  0.83588767  0.95188667  1
  I  I59  1  0.16411233  0.83588767  0.95188667  1
  I  I60  1  0.50153800  0.49846200  0.79148100  1
  I  I61  1  0.16922100  0.33844200  0.71478000  1
  I  I62  1  0.83179533  0.16820467  0.87518567  1
  I  I63  1  0.83179533  0.66359067  0.87518567  1
  I  I64  1  0.00000000  0.00000000  0.78142700  1
  I  I65  1  0.33333333  0.66666667  0.88523967  1
