# generated using pymatgen
data_Tl2(CdSb)3
_symmetry_space_group_name_H-M   'P 1'
_cell_length_a   17.59582600
_cell_length_b   4.98288400
_cell_length_c   12.12858466
_cell_angle_alpha   90.00000000
_cell_angle_beta   111.99589966
_cell_angle_gamma   90.00000000
_symmetry_Int_Tables_number   1
_chemical_formula_structural   Tl2(CdSb)3
_chemical_formula_sum   'Tl8 Cd12 Sb12'
_cell_volume   986.00467993
_cell_formula_units_Z   4
loop_
 _symmetry_equiv_pos_site_id
 _symmetry_equiv_pos_as_xyz
  1  'x, y, z'
loop_
 _atom_site_type_symbol
 _atom_site_label
 _atom_site_symmetry_multiplicity
 _atom_site_fract_x
 _atom_site_fract_y
 _atom_site_fract_z
 _atom_site_occupancy
  Tl  Tl0  1  0.31172300  0.00000000  0.61219000  1
  Tl  Tl1  1  0.18827700  0.50000000  0.38781000  1
  Tl  Tl2  1  0.32224300  0.50000000  0.11082500  1
  Tl  Tl3  1  0.17775700  0.00000000  0.88917500  1
  Tl  Tl4  1  0.81172300  0.50000000  0.61219000  1
  Tl  Tl5  1  0.68827700  0.00000000  0.38781000  1
  Tl  Tl6  1  0.82224300  0.00000000  0.11082500  1
  Tl  Tl7  1  0.67775700  0.50000000  0.88917500  1
  Cd  Cd8  1  0.39350900  0.00000000  0.92817800  1
  Cd  Cd9  1  0.10649100  0.50000000  0.07182200  1
  Cd  Cd10  1  0.05363100  0.00000000  0.27258100  1
  Cd  Cd11  1  0.44636900  0.50000000  0.72741900  1
  Cd  Cd12  1  0.36703400  0.00000000  0.33996800  1
  Cd  Cd13  1  0.13296600  0.50000000  0.66003200  1
  Cd  Cd14  1  0.89350900  0.50000000  0.92817800  1
  Cd  Cd15  1  0.60649100  0.00000000  0.07182200  1
  Cd  Cd16  1  0.55363100  0.50000000  0.27258100  1
  Cd  Cd17  1  0.94636900  0.00000000  0.72741900  1
  Cd  Cd18  1  0.86703400  0.50000000  0.33996800  1
  Cd  Cd19  1  0.63296600  0.00000000  0.66003200  1
  Sb  Sb20  1  0.19231500  0.00000000  0.18596200  1
  Sb  Sb21  1  0.30768500  0.50000000  0.81403800  1
  Sb  Sb22  1  0.03312800  0.50000000  0.81528900  1
  Sb  Sb23  1  0.46687200  0.00000000  0.18471100  1
  Sb  Sb24  1  0.41308800  0.50000000  0.47210000  1
  Sb  Sb25  1  0.08691200  0.00000000  0.52790000  1
  Sb  Sb26  1  0.69231500  0.50000000  0.18596200  1
  Sb  Sb27  1  0.80768500  0.00000000  0.81403800  1
  Sb  Sb28  1  0.53312800  0.00000000  0.81528900  1
  Sb  Sb29  1  0.96687200  0.50000000  0.18471100  1
  Sb  Sb30  1  0.91308800  0.00000000  0.47210000  1
  Sb  Sb31  1  0.58691200  0.50000000  0.52790000  1
