# generated using pymatgen
data_CsBrO4
_symmetry_space_group_name_H-M   'P 1'
_cell_length_a   5.87297400
_cell_length_b   5.87297400
_cell_length_c   15.15990000
_cell_angle_alpha   90.00000000
_cell_angle_beta   90.00000000
_cell_angle_gamma   90.00000000
_symmetry_Int_Tables_number   1
_chemical_formula_structural   CsBrO4
_chemical_formula_sum   'Cs4 Br4 O16'
_cell_volume   522.89259666
_cell_formula_units_Z   4
loop_
 _symmetry_equiv_pos_site_id
 _symmetry_equiv_pos_as_xyz
  1  'x, y, z'
loop_
 _atom_site_type_symbol
 _atom_site_label
 _atom_site_symmetry_multiplicity
 _atom_site_fract_x
 _atom_site_fract_y
 _atom_site_fract_z
 _atom_site_occupancy
  Cs  Cs0  1  0.00000000  0.00000000  0.00000000  1
  Cs  Cs1  1  0.00000000  0.50000000  0.25000000  1
  Cs  Cs2  1  0.50000000  0.50000000  0.50000000  1
  Cs  Cs3  1  0.50000000  0.00000000  0.75000000  1
  Br  Br4  1  0.50000000  0.50000000  0.00000000  1
  Br  Br5  1  0.50000000  0.00000000  0.25000000  1
  Br  Br6  1  0.00000000  0.00000000  0.50000000  1
  Br  Br7  1  0.00000000  0.50000000  0.75000000  1
  O  O8  1  0.26815800  0.50000000  0.06169100  1
  O  O9  1  0.50000000  0.76815800  0.31169100  1
  O  O10  1  0.50000000  0.23184200  0.31169100  1
  O  O11  1  0.73184200  0.50000000  0.06169100  1
  O  O12  1  0.26815800  0.00000000  0.18830900  1
  O  O13  1  0.00000000  0.76815800  0.43830900  1
  O  O14  1  0.00000000  0.23184200  0.43830900  1
  O  O15  1  0.73184200  0.00000000  0.18830900  1
  O  O16  1  0.76815800  0.00000000  0.56169100  1
  O  O17  1  0.00000000  0.26815800  0.81169100  1
  O  O18  1  0.00000000  0.73184200  0.81169100  1
  O  O19  1  0.23184200  0.00000000  0.56169100  1
  O  O20  1  0.76815800  0.50000000  0.68830900  1
  O  O21  1  0.50000000  0.26815800  0.93830900  1
  O  O22  1  0.50000000  0.73184200  0.93830900  1
  O  O23  1  0.23184200  0.50000000  0.68830900  1
