# generated using pymatgen
data_Rb2TeBr6
_symmetry_space_group_name_H-M   'P 1'
_cell_length_a   11.09570800
_cell_length_b   11.09570800
_cell_length_c   11.09570800
_cell_angle_alpha   90.00000000
_cell_angle_beta   90.00000000
_cell_angle_gamma   90.00000000
_symmetry_Int_Tables_number   1
_chemical_formula_structural   Rb2TeBr6
_chemical_formula_sum   'Rb8 Te4 Br24'
_cell_volume   1366.04516139
_cell_formula_units_Z   4
loop_
 _symmetry_equiv_pos_site_id
 _symmetry_equiv_pos_as_xyz
  1  'x, y, z'
loop_
 _atom_site_type_symbol
 _atom_site_label
 _atom_site_symmetry_multiplicity
 _atom_site_fract_x
 _atom_site_fract_y
 _atom_site_fract_z
 _atom_site_occupancy
  Rb  Rb0  1  0.25000000  0.25000000  0.75000000  1
  Rb  Rb1  1  0.25000000  0.75000000  0.75000000  1
  Rb  Rb2  1  0.25000000  0.75000000  0.25000000  1
  Rb  Rb3  1  0.25000000  0.25000000  0.25000000  1
  Rb  Rb4  1  0.75000000  0.25000000  0.25000000  1
  Rb  Rb5  1  0.75000000  0.75000000  0.25000000  1
  Rb  Rb6  1  0.75000000  0.75000000  0.75000000  1
  Rb  Rb7  1  0.75000000  0.25000000  0.75000000  1
  Te  Te8  1  0.00000000  0.00000000  0.00000000  1
  Te  Te9  1  0.00000000  0.50000000  0.50000000  1
  Te  Te10  1  0.50000000  0.00000000  0.50000000  1
  Te  Te11  1  0.50000000  0.50000000  0.00000000  1
  Br  Br12  1  0.50000000  0.25352900  0.00000000  1
  Br  Br13  1  0.50000000  0.00000000  0.74647100  1
  Br  Br14  1  0.00000000  0.00000000  0.75352900  1
  Br  Br15  1  0.50000000  0.74647100  0.00000000  1
  Br  Br16  1  0.75352900  0.00000000  0.00000000  1
  Br  Br17  1  0.24647100  0.00000000  0.00000000  1
  Br  Br18  1  0.50000000  0.75352900  0.50000000  1
  Br  Br19  1  0.50000000  0.50000000  0.24647100  1
  Br  Br20  1  0.00000000  0.50000000  0.25352900  1
  Br  Br21  1  0.50000000  0.24647100  0.50000000  1
  Br  Br22  1  0.75352900  0.50000000  0.50000000  1
  Br  Br23  1  0.24647100  0.50000000  0.50000000  1
  Br  Br24  1  0.00000000  0.25352900  0.50000000  1
  Br  Br25  1  0.00000000  0.00000000  0.24647100  1
  Br  Br26  1  0.50000000  0.00000000  0.25352900  1
  Br  Br27  1  0.00000000  0.74647100  0.50000000  1
  Br  Br28  1  0.25352900  0.00000000  0.50000000  1
  Br  Br29  1  0.74647100  0.00000000  0.50000000  1
  Br  Br30  1  0.00000000  0.75352900  0.00000000  1
  Br  Br31  1  0.00000000  0.50000000  0.74647100  1
  Br  Br32  1  0.50000000  0.50000000  0.75352900  1
  Br  Br33  1  0.00000000  0.24647100  0.00000000  1
  Br  Br34  1  0.25352900  0.50000000  0.00000000  1
  Br  Br35  1  0.74647100  0.50000000  0.00000000  1
