# generated using pymatgen
data_Nb3Cl7
_symmetry_space_group_name_H-M   'P 1'
_cell_length_a   13.28764200
_cell_length_b   13.67531600
_cell_length_c   11.30520700
_cell_angle_alpha   90.00000000
_cell_angle_beta   90.00000000
_cell_angle_gamma   90.00000000
_symmetry_Int_Tables_number   1
_chemical_formula_structural   Nb3Cl7
_chemical_formula_sum   'Nb24 Cl56'
_cell_volume   2054.29972471
_cell_formula_units_Z   8
loop_
 _symmetry_equiv_pos_site_id
 _symmetry_equiv_pos_as_xyz
  1  'x, y, z'
loop_
 _atom_site_type_symbol
 _atom_site_label
 _atom_site_symmetry_multiplicity
 _atom_site_fract_x
 _atom_site_fract_y
 _atom_site_fract_z
 _atom_site_occupancy
  Nb  Nb0  1  0.12868200  0.00000000  0.90919900  1
  Nb  Nb1  1  0.37131800  0.00000000  0.40919900  1
  Nb  Nb2  1  0.62868200  0.00000000  0.59080100  1
  Nb  Nb3  1  0.87131800  0.00000000  0.09080100  1
  Nb  Nb4  1  0.55718200  0.60897800  0.11245200  1
  Nb  Nb5  1  0.44281800  0.89102200  0.61245200  1
  Nb  Nb6  1  0.55718200  0.89102200  0.38754800  1
  Nb  Nb7  1  0.44281800  0.60897800  0.88754800  1
  Nb  Nb8  1  0.44281800  0.39102200  0.88754800  1
  Nb  Nb9  1  0.55718200  0.10897800  0.38754800  1
  Nb  Nb10  1  0.44281800  0.10897800  0.61245200  1
  Nb  Nb11  1  0.55718200  0.39102200  0.11245200  1
  Nb  Nb12  1  0.62868200  0.50000000  0.90919900  1
  Nb  Nb13  1  0.87131800  0.50000000  0.40919900  1
  Nb  Nb14  1  0.12868200  0.50000000  0.59080100  1
  Nb  Nb15  1  0.37131800  0.50000000  0.09080100  1
  Nb  Nb16  1  0.05718200  0.10897800  0.11245200  1
  Nb  Nb17  1  0.94281800  0.39102200  0.61245200  1
  Nb  Nb18  1  0.05718200  0.39102200  0.38754800  1
  Nb  Nb19  1  0.94281800  0.10897800  0.88754800  1
  Nb  Nb20  1  0.94281800  0.89102200  0.88754800  1
  Nb  Nb21  1  0.05718200  0.60897800  0.38754800  1
  Nb  Nb22  1  0.94281800  0.60897800  0.61245200  1
  Nb  Nb23  1  0.05718200  0.89102200  0.11245200  1
  Cl  Cl24  1  0.63260700  0.75000000  0.25000000  1
  Cl  Cl25  1  0.36739300  0.75000000  0.75000000  1
  Cl  Cl26  1  0.36739300  0.25000000  0.75000000  1
  Cl  Cl27  1  0.63260700  0.25000000  0.25000000  1
  Cl  Cl28  1  0.22548700  0.12399900  0.01722300  1
  Cl  Cl29  1  0.27451300  0.87600100  0.51722300  1
  Cl  Cl30  1  0.72548700  0.87600100  0.48277700  1
  Cl  Cl31  1  0.77451300  0.12399900  0.98277700  1
  Cl  Cl32  1  0.77451300  0.87600100  0.98277700  1
  Cl  Cl33  1  0.72548700  0.12399900  0.48277700  1
  Cl  Cl34  1  0.27451300  0.12399900  0.51722300  1
  Cl  Cl35  1  0.22548700  0.87600100  0.01722300  1
  Cl  Cl36  1  0.50000000  0.24766500  0.00000000  1
  Cl  Cl37  1  0.50000000  0.25233500  0.50000000  1
  Cl  Cl38  1  0.50000000  0.75233500  0.00000000  1
  Cl  Cl39  1  0.50000000  0.74766500  0.50000000  1
  Cl  Cl40  1  0.13538300  0.00000000  0.26459500  1
  Cl  Cl41  1  0.36461700  0.00000000  0.76459500  1
  Cl  Cl42  1  0.63538300  0.00000000  0.23540500  1
  Cl  Cl43  1  0.86461700  0.00000000  0.73540500  1
  Cl  Cl44  1  0.40749450  0.87673050  0.25775300  1
  Cl  Cl45  1  0.59250550  0.62326950  0.75775300  1
  Cl  Cl46  1  0.40749450  0.62326950  0.24224700  1
  Cl  Cl47  1  0.59250550  0.87673050  0.74224700  1
  Cl  Cl48  1  0.59250550  0.12326950  0.74224700  1
  Cl  Cl49  1  0.40749450  0.37673050  0.24224700  1
  Cl  Cl50  1  0.59250550  0.37673050  0.75775300  1
  Cl  Cl51  1  0.40749450  0.12326950  0.25775300  1
  Cl  Cl52  1  0.13260700  0.25000000  0.25000000  1
  Cl  Cl53  1  0.86739300  0.25000000  0.75000000  1
  Cl  Cl54  1  0.86739300  0.75000000  0.75000000  1
  Cl  Cl55  1  0.13260700  0.75000000  0.25000000  1
  Cl  Cl56  1  0.72548700  0.62399900  0.01722300  1
  Cl  Cl57  1  0.77451300  0.37600100  0.51722300  1
  Cl  Cl58  1  0.22548700  0.37600100  0.48277700  1
  Cl  Cl59  1  0.27451300  0.62399900  0.98277700  1
  Cl  Cl60  1  0.27451300  0.37600100  0.98277700  1
  Cl  Cl61  1  0.22548700  0.62399900  0.48277700  1
  Cl  Cl62  1  0.77451300  0.62399900  0.51722300  1
  Cl  Cl63  1  0.72548700  0.37600100  0.01722300  1
  Cl  Cl64  1  0.00000000  0.74766500  0.00000000  1
  Cl  Cl65  1  0.00000000  0.75233500  0.50000000  1
  Cl  Cl66  1  0.00000000  0.25233500  0.00000000  1
  Cl  Cl67  1  0.00000000  0.24766500  0.50000000  1
  Cl  Cl68  1  0.63538300  0.50000000  0.26459500  1
  Cl  Cl69  1  0.86461700  0.50000000  0.76459500  1
  Cl  Cl70  1  0.13538300  0.50000000  0.23540500  1
  Cl  Cl71  1  0.36461700  0.50000000  0.73540500  1
  Cl  Cl72  1  0.90749450  0.37673050  0.25775300  1
  Cl  Cl73  1  0.09250550  0.12326950  0.75775300  1
  Cl  Cl74  1  0.90749450  0.12326950  0.24224700  1
  Cl  Cl75  1  0.09250550  0.37673050  0.74224700  1
  Cl  Cl76  1  0.09250550  0.62326950  0.74224700  1
  Cl  Cl77  1  0.90749450  0.87673050  0.24224700  1
  Cl  Cl78  1  0.09250550  0.87673050  0.75775300  1
  Cl  Cl79  1  0.90749450  0.62326950  0.25775300  1
