# generated using pymatgen
data_Na5AuSe12
_symmetry_space_group_name_H-M   'P 1'
_cell_length_a   7.22520900
_cell_length_b   17.20048500
_cell_length_c   8.47155495
_cell_angle_alpha   90.00000000
_cell_angle_beta   106.54007957
_cell_angle_gamma   90.00000000
_symmetry_Int_Tables_number   1
_chemical_formula_structural   Na5AuSe12
_chemical_formula_sum   'Na10 Au2 Se24'
_cell_volume   1009.25543969
_cell_formula_units_Z   2
loop_
 _symmetry_equiv_pos_site_id
 _symmetry_equiv_pos_as_xyz
  1  'x, y, z'
loop_
 _atom_site_type_symbol
 _atom_site_label
 _atom_site_symmetry_multiplicity
 _atom_site_fract_x
 _atom_site_fract_y
 _atom_site_fract_z
 _atom_site_occupancy
  Na  Na0  1  0.22254000  0.64663700  0.34906900  1
  Na  Na1  1  0.77746000  0.14663700  0.65093100  1
  Na  Na2  1  0.22013300  0.06206500  0.01774700  1
  Na  Na3  1  0.77986700  0.56206500  0.98225300  1
  Na  Na4  1  0.70685000  0.92909300  0.44167800  1
  Na  Na5  1  0.29315000  0.42909300  0.55832200  1
  Na  Na6  1  0.33645500  0.23861000  0.28681100  1
  Na  Na7  1  0.66354500  0.73861000  0.71318900  1
  Na  Na8  1  0.12123200  0.86098200  0.10272400  1
  Na  Na9  1  0.87876800  0.36098200  0.89727600  1
  Au  Au10  1  0.78376300  0.14987200  0.15894700  1
  Au  Au11  1  0.21623700  0.64987200  0.84105300  1
  Se  Se12  1  0.99027600  0.21230200  0.42395100  1
  Se  Se13  1  0.04870400  0.45416800  0.21225200  1
  Se  Se14  1  0.61177900  0.27952800  0.08104700  1
  Se  Se15  1  0.38822100  0.77952800  0.91895300  1
  Se  Se16  1  0.95175100  0.01902000  0.24677600  1
  Se  Se17  1  0.04824900  0.51902000  0.75322400  1
  Se  Se18  1  0.57500500  0.08858500  0.89378500  1
  Se  Se19  1  0.00972400  0.71230200  0.57604900  1
  Se  Se20  1  0.78360100  0.55106500  0.51744100  1
  Se  Se21  1  0.42499500  0.58858500  0.10621500  1
  Se  Se22  1  0.36544300  0.24806600  0.83203700  1
  Se  Se23  1  0.63455700  0.74806600  0.16796300  1
  Se  Se24  1  0.21639900  0.05106500  0.48255900  1
  Se  Se25  1  0.39441500  0.81227700  0.42206800  1
  Se  Se26  1  0.84421000  0.33806400  0.43585800  1
  Se  Se27  1  0.15579000  0.83806400  0.56414200  1
  Se  Se28  1  0.68790100  0.95637700  0.90464600  1
  Se  Se29  1  0.31209900  0.45637700  0.09535400  1
  Se  Se30  1  0.09646500  0.21925700  0.93463000  1
  Se  Se31  1  0.90353500  0.71925700  0.06537000  1
  Se  Se32  1  0.47409100  0.07215300  0.36280400  1
  Se  Se33  1  0.52590900  0.57215300  0.63719600  1
  Se  Se34  1  0.60558500  0.31227700  0.57793200  1
  Se  Se35  1  0.95129600  0.95416800  0.78774800  1
