# generated using pymatgen
data_Cs4PbBr6
_symmetry_space_group_name_H-M   'P 1'
_cell_length_a   14.11632363
_cell_length_b   14.11632363
_cell_length_c   17.58067073
_cell_angle_alpha   90.00000000
_cell_angle_beta   90.00000000
_cell_angle_gamma   120.00000000
_symmetry_Int_Tables_number   1
_chemical_formula_structural   Cs4PbBr6
_chemical_formula_sum   'Cs24 Pb6 Br36'
_cell_volume   3033.95604465
_cell_formula_units_Z   6
loop_
 _symmetry_equiv_pos_site_id
 _symmetry_equiv_pos_as_xyz
  1  'x, y, z'
loop_
 _atom_site_type_symbol
 _atom_site_label
 _atom_site_symmetry_multiplicity
 _atom_site_fract_x
 _atom_site_fract_y
 _atom_site_fract_z
 _atom_site_occupancy
  Cs  Cs0  1  0.33333333  0.66666667  0.91666667  1
  Cs  Cs1  1  0.33333333  0.66666667  0.41666667  1
  Cs  Cs2  1  0.37549200  0.00000000  0.25000000  1
  Cs  Cs3  1  0.00000000  0.37549200  0.25000000  1
  Cs  Cs4  1  0.62450800  0.62450800  0.25000000  1
  Cs  Cs5  1  0.29117467  0.33333333  0.08333333  1
  Cs  Cs6  1  0.66666667  0.95784133  0.08333333  1
  Cs  Cs7  1  0.04215867  0.70882533  0.08333333  1
  Cs  Cs8  1  0.00000000  0.00000000  0.25000000  1
  Cs  Cs9  1  0.00000000  0.00000000  0.75000000  1
  Cs  Cs10  1  0.04215867  0.33333333  0.58333333  1
  Cs  Cs11  1  0.66666667  0.70882533  0.58333333  1
  Cs  Cs12  1  0.29117467  0.95784133  0.58333333  1
  Cs  Cs13  1  0.95784133  0.66666667  0.41666667  1
  Cs  Cs14  1  0.33333333  0.29117467  0.41666667  1
  Cs  Cs15  1  0.70882533  0.04215867  0.41666667  1
  Cs  Cs16  1  0.66666667  0.33333333  0.58333333  1
  Cs  Cs17  1  0.66666667  0.33333333  0.08333333  1
  Cs  Cs18  1  0.70882533  0.66666667  0.91666667  1
  Cs  Cs19  1  0.33333333  0.04215867  0.91666667  1
  Cs  Cs20  1  0.95784133  0.29117467  0.91666667  1
  Cs  Cs21  1  0.62450800  0.00000000  0.75000000  1
  Cs  Cs22  1  0.00000000  0.62450800  0.75000000  1
  Cs  Cs23  1  0.37549200  0.37549200  0.75000000  1
  Pb  Pb24  1  0.00000000  0.00000000  0.00000000  1
  Pb  Pb25  1  0.33333333  0.66666667  0.16666667  1
  Pb  Pb26  1  0.66666667  0.33333333  0.33333333  1
  Pb  Pb27  1  0.00000000  0.00000000  0.50000000  1
  Pb  Pb28  1  0.33333333  0.66666667  0.66666667  1
  Pb  Pb29  1  0.66666667  0.33333333  0.83333333  1
  Br  Br30  1  0.14336267  0.50546733  0.06570233  1
  Br  Br31  1  0.49453267  0.63789533  0.06570233  1
  Br  Br32  1  0.36210467  0.85663733  0.06570233  1
  Br  Br33  1  0.97122867  0.16119933  0.10096433  1
  Br  Br34  1  0.83880067  0.81002933  0.10096433  1
  Br  Br35  1  0.18997067  0.02877133  0.10096433  1
  Br  Br36  1  0.52330400  0.82786600  0.26763100  1
  Br  Br37  1  0.17213400  0.69543800  0.26763100  1
  Br  Br38  1  0.30456200  0.47669600  0.26763100  1
  Br  Br39  1  0.69543800  0.17213400  0.23236900  1
  Br  Br40  1  0.47669600  0.30456200  0.23236900  1
  Br  Br41  1  0.82786600  0.52330400  0.23236900  1
  Br  Br42  1  0.81002933  0.83880067  0.39903567  1
  Br  Br43  1  0.16119933  0.97122867  0.39903567  1
  Br  Br44  1  0.02877133  0.18997067  0.39903567  1
  Br  Br45  1  0.63789533  0.49453267  0.43429767  1
  Br  Br46  1  0.50546733  0.14336267  0.43429767  1
  Br  Br47  1  0.85663733  0.36210467  0.43429767  1
  Br  Br48  1  0.18997067  0.16119933  0.60096433  1
  Br  Br49  1  0.83880067  0.02877133  0.60096433  1
  Br  Br50  1  0.97122867  0.81002933  0.60096433  1
  Br  Br51  1  0.36210467  0.50546733  0.56570233  1
  Br  Br52  1  0.14336267  0.63789533  0.56570233  1
  Br  Br53  1  0.49453267  0.85663733  0.56570233  1
  Br  Br54  1  0.47669600  0.17213400  0.73236900  1
  Br  Br55  1  0.82786600  0.30456200  0.73236900  1
  Br  Br56  1  0.69543800  0.52330400  0.73236900  1
  Br  Br57  1  0.30456200  0.82786600  0.76763100  1
  Br  Br58  1  0.17213400  0.47669600  0.76763100  1
  Br  Br59  1  0.52330400  0.69543800  0.76763100  1
  Br  Br60  1  0.85663733  0.49453267  0.93429767  1
  Br  Br61  1  0.50546733  0.36210467  0.93429767  1
  Br  Br62  1  0.63789533  0.14336267  0.93429767  1
  Br  Br63  1  0.02877133  0.83880067  0.89903567  1
  Br  Br64  1  0.81002933  0.97122867  0.89903567  1
  Br  Br65  1  0.16119933  0.18997067  0.89903567  1
