# generated using pymatgen
data_La5B4N9
_symmetry_space_group_name_H-M   'P 1'
_cell_length_a   7.71945600
_cell_length_b   9.81428400
_cell_length_c   12.65820500
_cell_angle_alpha   90.00000000
_cell_angle_beta   90.00000000
_cell_angle_gamma   90.00000000
_symmetry_Int_Tables_number   1
_chemical_formula_structural   La5B4N9
_chemical_formula_sum   'La20 B16 N36'
_cell_volume   958.99742735
_cell_formula_units_Z   4
loop_
 _symmetry_equiv_pos_site_id
 _symmetry_equiv_pos_as_xyz
  1  'x, y, z'
loop_
 _atom_site_type_symbol
 _atom_site_label
 _atom_site_symmetry_multiplicity
 _atom_site_fract_x
 _atom_site_fract_y
 _atom_site_fract_z
 _atom_site_occupancy
  La  La0  1  0.99641300  0.34586600  0.08526600  1
  La  La1  1  0.49641300  0.65413400  0.91473400  1
  La  La2  1  0.00358700  0.34586600  0.41473400  1
  La  La3  1  0.50358700  0.65413400  0.58526600  1
  La  La4  1  0.00358700  0.65413400  0.91473400  1
  La  La5  1  0.50358700  0.34586600  0.08526600  1
  La  La6  1  0.99641300  0.65413400  0.58526600  1
  La  La7  1  0.49641300  0.34586600  0.41473400  1
  La  La8  1  0.50000000  0.01041900  0.25000000  1
  La  La9  1  0.00000000  0.98958100  0.75000000  1
  La  La10  1  0.50000000  0.98958100  0.75000000  1
  La  La11  1  0.00000000  0.01041900  0.25000000  1
  La  La12  1  0.25000000  0.99499100  0.99528200  1
  La  La13  1  0.75000000  0.00500900  0.00471800  1
  La  La14  1  0.75000000  0.99499100  0.50471800  1
  La  La15  1  0.25000000  0.00500900  0.49528200  1
  La  La16  1  0.25000000  0.36024700  0.67816800  1
  La  La17  1  0.75000000  0.63975300  0.32183200  1
  La  La18  1  0.75000000  0.36024700  0.82183200  1
  La  La19  1  0.25000000  0.63975300  0.17816800  1
  B  B20  1  0.75000000  0.43393600  0.58544300  1
  B  B21  1  0.09354600  0.22570700  0.87084700  1
  B  B22  1  0.59354600  0.77429300  0.12915300  1
  B  B23  1  0.90645400  0.22570700  0.62915300  1
  B  B24  1  0.40645400  0.77429300  0.37084700  1
  B  B25  1  0.90645400  0.77429300  0.12915300  1
  B  B26  1  0.40645400  0.22570700  0.87084700  1
  B  B27  1  0.09354600  0.77429300  0.37084700  1
  B  B28  1  0.59354600  0.22570700  0.62915300  1
  B  B29  1  0.25000000  0.43393600  0.91455700  1
  B  B30  1  0.75000000  0.56606400  0.08544300  1
  B  B31  1  0.25000000  0.56606400  0.41455700  1
  B  B32  1  0.25000000  0.75523600  0.74132100  1
  B  B33  1  0.75000000  0.24476400  0.25867900  1
  B  B34  1  0.75000000  0.75523600  0.75867900  1
  B  B35  1  0.25000000  0.24476400  0.24132100  1
  N  N36  1  0.25000000  0.60707400  0.72636800  1
  N  N37  1  0.25000000  0.53377300  0.99831600  1
  N  N38  1  0.96009700  0.85859700  0.41321500  1
  N  N39  1  0.46009700  0.14140300  0.58678500  1
  N  N40  1  0.53990300  0.85859700  0.41321500  1
  N  N41  1  0.03990300  0.14140300  0.58678500  1
  N  N42  1  0.46009700  0.85859700  0.08678500  1
  N  N43  1  0.96009700  0.14140300  0.91321500  1
  N  N44  1  0.58265500  0.37576800  0.62011200  1
  N  N45  1  0.03990300  0.85859700  0.08678500  1
  N  N46  1  0.08265500  0.62423200  0.37988800  1
  N  N47  1  0.41734500  0.37576800  0.87988800  1
  N  N48  1  0.91734500  0.62423200  0.12011200  1
  N  N49  1  0.41734500  0.62423200  0.37988800  1
  N  N50  1  0.91734500  0.37576800  0.62011200  1
  N  N51  1  0.58265500  0.62423200  0.12011200  1
  N  N52  1  0.08265500  0.37576800  0.87988800  1
  N  N53  1  0.25000000  0.39292600  0.22636800  1
  N  N54  1  0.75000000  0.60707400  0.77363200  1
  N  N55  1  0.75000000  0.39292600  0.27363200  1
  N  N56  1  0.25000000  0.15923400  0.82390500  1
  N  N57  1  0.75000000  0.84076600  0.17609500  1
  N  N58  1  0.75000000  0.15923400  0.67609500  1
  N  N59  1  0.25000000  0.84076600  0.32390500  1
  N  N60  1  0.25000000  0.17901400  0.34716600  1
  N  N61  1  0.75000000  0.82098600  0.65283400  1
  N  N62  1  0.75000000  0.17901400  0.15283400  1
  N  N63  1  0.25000000  0.82098600  0.84716600  1
  N  N64  1  0.25000000  0.15463300  0.14646500  1
  N  N65  1  0.75000000  0.84536700  0.85353500  1
  N  N66  1  0.75000000  0.15463300  0.35353500  1
  N  N67  1  0.25000000  0.84536700  0.64646500  1
  N  N68  1  0.25000000  0.46622700  0.49831600  1
  N  N69  1  0.75000000  0.53377300  0.50168400  1
  N  N70  1  0.75000000  0.46622700  0.00168400  1
  N  N71  1  0.53990300  0.14140300  0.91321500  1
