# generated using pymatgen
data_H2Pb3O4
_symmetry_space_group_name_H-M   'P 1'
_cell_length_a   8.31931400
_cell_length_b   8.31931400
_cell_length_c   9.44910200
_cell_angle_alpha   90.00000000
_cell_angle_beta   90.00000000
_cell_angle_gamma   90.00000000
_symmetry_Int_Tables_number   1
_chemical_formula_structural   H2Pb3O4
_chemical_formula_sum   'H8 Pb12 O16'
_cell_volume   653.98166085
_cell_formula_units_Z   4
loop_
 _symmetry_equiv_pos_site_id
 _symmetry_equiv_pos_as_xyz
  1  'x, y, z'
loop_
 _atom_site_type_symbol
 _atom_site_label
 _atom_site_symmetry_multiplicity
 _atom_site_fract_x
 _atom_site_fract_y
 _atom_site_fract_z
 _atom_site_occupancy
  H  H0  1  0.66173500  0.82306500  0.74016200  1
  H  H1  1  0.33826500  0.17693500  0.74016200  1
  H  H2  1  0.67693500  0.83826500  0.24016200  1
  H  H3  1  0.17693500  0.66173500  0.25983800  1
  H  H4  1  0.82306500  0.33826500  0.25983800  1
  H  H5  1  0.83826500  0.32306500  0.75983800  1
  H  H6  1  0.16173500  0.67693500  0.75983800  1
  H  H7  1  0.32306500  0.16173500  0.24016200  1
  Pb  Pb8  1  0.50000000  0.50000000  0.77811800  1
  Pb  Pb9  1  0.50000000  0.50000000  0.22188200  1
  Pb  Pb10  1  0.00000000  0.00000000  0.72188200  1
  Pb  Pb11  1  0.00000000  0.00000000  0.27811800  1
  Pb  Pb12  1  0.79500200  0.62439200  0.50350100  1
  Pb  Pb13  1  0.20499800  0.37560800  0.50350100  1
  Pb  Pb14  1  0.87560800  0.70499800  0.00350100  1
  Pb  Pb15  1  0.37560800  0.79500200  0.49649900  1
  Pb  Pb16  1  0.62439200  0.20499800  0.49649900  1
  Pb  Pb17  1  0.70499800  0.12439200  0.99649900  1
  Pb  Pb18  1  0.29500200  0.87560800  0.99649900  1
  Pb  Pb19  1  0.12439200  0.29500200  0.00350100  1
  O  O20  1  0.80661500  0.91857300  0.87175900  1
  O  O21  1  0.19338500  0.08142700  0.87175900  1
  O  O22  1  0.58142700  0.69338500  0.37175900  1
  O  O23  1  0.08142700  0.80661500  0.12824100  1
  O  O24  1  0.25096700  0.10757700  0.17114500  1
  O  O25  1  0.10757700  0.74903300  0.82885500  1
  O  O26  1  0.89242300  0.25096700  0.82885500  1
  O  O27  1  0.75096700  0.39242300  0.32885500  1
  O  O28  1  0.24903300  0.60757700  0.32885500  1
  O  O29  1  0.74903300  0.89242300  0.17114500  1
  O  O30  1  0.39242300  0.24903300  0.67114500  1
  O  O31  1  0.60757700  0.75096700  0.67114500  1
  O  O32  1  0.41857300  0.30661500  0.37175900  1
  O  O33  1  0.30661500  0.58142700  0.62824100  1
  O  O34  1  0.69338500  0.41857300  0.62824100  1
  O  O35  1  0.91857300  0.19338500  0.12824100  1
