# generated using pymatgen
data_Ag2PbO2
_symmetry_space_group_name_H-M   'P 1'
_cell_length_a   8.84343600
_cell_length_b   9.03851200
_cell_length_c   6.22081352
_cell_angle_alpha   90.00000000
_cell_angle_beta   131.50922688
_cell_angle_gamma   90.00000000
_symmetry_Int_Tables_number   1
_chemical_formula_structural   Ag2PbO2
_chemical_formula_sum   'Ag8 Pb4 O8'
_cell_volume   372.35690739
_cell_formula_units_Z   4
loop_
 _symmetry_equiv_pos_site_id
 _symmetry_equiv_pos_as_xyz
  1  'x, y, z'
loop_
 _atom_site_type_symbol
 _atom_site_label
 _atom_site_symmetry_multiplicity
 _atom_site_fract_x
 _atom_site_fract_y
 _atom_site_fract_z
 _atom_site_occupancy
  Ag  Ag0  1  0.50000000  0.00000000  0.00000000  1
  Ag  Ag1  1  0.25000000  0.25000000  0.00000000  1
  Ag  Ag2  1  0.50000000  0.00000000  0.50000000  1
  Ag  Ag3  1  0.25000000  0.75000000  0.50000000  1
  Ag  Ag4  1  0.00000000  0.50000000  0.00000000  1
  Ag  Ag5  1  0.75000000  0.75000000  0.00000000  1
  Ag  Ag6  1  0.00000000  0.50000000  0.50000000  1
  Ag  Ag7  1  0.75000000  0.25000000  0.50000000  1
  Pb  Pb8  1  0.50000000  0.61604900  0.25000000  1
  Pb  Pb9  1  0.50000000  0.38395100  0.75000000  1
  Pb  Pb10  1  0.00000000  0.11604900  0.25000000  1
  Pb  Pb11  1  0.00000000  0.88395100  0.75000000  1
  O  O12  1  0.19263900  0.94359700  0.26085100  1
  O  O13  1  0.80736100  0.05640300  0.73914900  1
  O  O14  1  0.80736100  0.94359700  0.23914900  1
  O  O15  1  0.19263900  0.05640300  0.76085100  1
  O  O16  1  0.69263900  0.44359700  0.26085100  1
  O  O17  1  0.30736100  0.55640300  0.73914900  1
  O  O18  1  0.30736100  0.44359700  0.23914900  1
  O  O19  1  0.69263900  0.55640300  0.76085100  1
