# generated using pymatgen
data_Na8Si7O18
_symmetry_space_group_name_H-M   'P 1'
_cell_length_a   10.01065626
_cell_length_b   10.01065626
_cell_length_c   13.17569915
_cell_angle_alpha   90.00000000
_cell_angle_beta   90.00000000
_cell_angle_gamma   120.00000000
_symmetry_Int_Tables_number   1
_chemical_formula_structural   Na8Si7O18
_chemical_formula_sum   'Na24 Si21 O54'
_cell_volume   1143.48217720
_cell_formula_units_Z   3
loop_
 _symmetry_equiv_pos_site_id
 _symmetry_equiv_pos_as_xyz
  1  'x, y, z'
loop_
 _atom_site_type_symbol
 _atom_site_label
 _atom_site_symmetry_multiplicity
 _atom_site_fract_x
 _atom_site_fract_y
 _atom_site_fract_z
 _atom_site_occupancy
  Na  Na0  1  0.33333333  0.66666667  0.90286167  1
  Na  Na1  1  0.33333333  0.66666667  0.43047167  1
  Na  Na2  1  0.16666667  0.83333333  0.33333333  1
  Na  Na3  1  0.00000000  0.50000000  0.00000000  1
  Na  Na4  1  0.50000000  0.00000000  0.00000000  1
  Na  Na5  1  0.16666667  0.83333333  0.83333333  1
  Na  Na6  1  0.33333333  0.16666667  0.16666667  1
  Na  Na7  1  0.83333333  0.66666667  0.16666667  1
  Na  Na8  1  0.00000000  0.00000000  0.23619500  1
  Na  Na9  1  0.00000000  0.00000000  0.76380500  1
  Na  Na10  1  0.83333333  0.16666667  0.66666667  1
  Na  Na11  1  0.66666667  0.83333333  0.33333333  1
  Na  Na12  1  0.16666667  0.33333333  0.33333333  1
  Na  Na13  1  0.83333333  0.16666667  0.16666667  1
  Na  Na14  1  0.00000000  0.50000000  0.50000000  1
  Na  Na15  1  0.50000000  0.00000000  0.50000000  1
  Na  Na16  1  0.66666667  0.33333333  0.56952833  1
  Na  Na17  1  0.66666667  0.33333333  0.09713833  1
  Na  Na18  1  0.50000000  0.50000000  0.00000000  1
  Na  Na19  1  0.33333333  0.16666667  0.66666667  1
  Na  Na20  1  0.83333333  0.66666667  0.66666667  1
  Na  Na21  1  0.50000000  0.50000000  0.50000000  1
  Na  Na22  1  0.66666667  0.83333333  0.83333333  1
  Na  Na23  1  0.16666667  0.33333333  0.83333333  1
  Si  Si24  1  0.00000000  0.00000000  0.00000000  1
  Si  Si25  1  0.64469067  0.82234533  0.09441933  1
  Si  Si26  1  0.17765467  0.35530933  0.09441933  1
  Si  Si27  1  0.17765467  0.82234533  0.09441933  1
  Si  Si28  1  0.02197600  0.51098800  0.23891400  1
  Si  Si29  1  0.48901200  0.97802400  0.23891400  1
  Si  Si30  1  0.48901200  0.51098800  0.23891400  1
  Si  Si31  1  0.66666667  0.33333333  0.33333333  1
  Si  Si32  1  0.31135733  0.15567867  0.42775267  1
  Si  Si33  1  0.84432133  0.68864267  0.42775267  1
  Si  Si34  1  0.84432133  0.15567867  0.42775267  1
  Si  Si35  1  0.68864267  0.84432133  0.57224733  1
  Si  Si36  1  0.15567867  0.31135733  0.57224733  1
  Si  Si37  1  0.15567867  0.84432133  0.57224733  1
  Si  Si38  1  0.33333333  0.66666667  0.66666667  1
  Si  Si39  1  0.97802400  0.48901200  0.76108600  1
  Si  Si40  1  0.51098800  0.02197600  0.76108600  1
  Si  Si41  1  0.51098800  0.48901200  0.76108600  1
  Si  Si42  1  0.35530933  0.17765467  0.90558067  1
  Si  Si43  1  0.82234533  0.64469067  0.90558067  1
  Si  Si44  1  0.82234533  0.17765467  0.90558067  1
  O  O45  1  0.33333333  0.40108467  0.16666667  1
  O  O46  1  0.59891533  0.93224867  0.16666667  1
  O  O47  1  0.06775133  0.66666667  0.16666667  1
  O  O48  1  0.33333333  0.93224867  0.16666667  1
  O  O49  1  0.06775133  0.40108467  0.16666667  1
  O  O50  1  0.59891533  0.66666667  0.16666667  1
  O  O51  1  0.58322000  0.41678000  0.24770500  1
  O  O52  1  0.58322000  0.16644000  0.24770500  1
  O  O53  1  0.83356000  0.41678000  0.24770500  1
  O  O54  1  0.08344667  0.91655333  0.08562833  1
  O  O55  1  0.08344667  0.16689333  0.08562833  1
  O  O56  1  0.83310667  0.91655333  0.08562833  1
  O  O57  1  0.44386833  0.55613167  0.34354367  1
  O  O58  1  0.44386833  0.88773667  0.34354367  1
  O  O59  1  0.11226333  0.55613167  0.34354367  1
  O  O60  1  0.55440333  0.77720167  0.98978967  1
  O  O61  1  0.22279833  0.44559667  0.98978967  1
  O  O62  1  0.22279833  0.77720167  0.98978967  1
  O  O63  1  0.00000000  0.73441800  0.50000000  1
  O  O64  1  0.26558200  0.26558200  0.50000000  1
  O  O65  1  0.73441800  0.00000000  0.50000000  1
  O  O66  1  0.00000000  0.26558200  0.50000000  1
  O  O67  1  0.73441800  0.73441800  0.50000000  1
  O  O68  1  0.26558200  0.00000000  0.50000000  1
  O  O69  1  0.24988667  0.75011333  0.58103833  1
  O  O70  1  0.24988667  0.49977333  0.58103833  1
  O  O71  1  0.50022667  0.75011333  0.58103833  1
  O  O72  1  0.75011333  0.24988667  0.41896167  1
  O  O73  1  0.75011333  0.50022667  0.41896167  1
  O  O74  1  0.49977333  0.24988667  0.41896167  1
  O  O75  1  0.11053500  0.88946500  0.67687700  1
  O  O76  1  0.11053500  0.22107000  0.67687700  1
  O  O77  1  0.77893000  0.88946500  0.67687700  1
  O  O78  1  0.22107000  0.11053500  0.32312300  1
  O  O79  1  0.88946500  0.77893000  0.32312300  1
  O  O80  1  0.88946500  0.11053500  0.32312300  1
  O  O81  1  0.66666667  0.06775133  0.83333333  1
  O  O82  1  0.93224867  0.59891533  0.83333333  1
  O  O83  1  0.40108467  0.33333333  0.83333333  1
  O  O84  1  0.66666667  0.59891533  0.83333333  1
  O  O85  1  0.40108467  0.06775133  0.83333333  1
  O  O86  1  0.93224867  0.33333333  0.83333333  1
  O  O87  1  0.91655333  0.08344667  0.91437167  1
  O  O88  1  0.91655333  0.83310667  0.91437167  1
  O  O89  1  0.16689333  0.08344667  0.91437167  1
  O  O90  1  0.41678000  0.58322000  0.75229500  1
  O  O91  1  0.41678000  0.83356000  0.75229500  1
  O  O92  1  0.16644000  0.58322000  0.75229500  1
  O  O93  1  0.77720167  0.22279833  0.01021033  1
  O  O94  1  0.77720167  0.55440333  0.01021033  1
  O  O95  1  0.44559667  0.22279833  0.01021033  1
  O  O96  1  0.88773667  0.44386833  0.65645633  1
  O  O97  1  0.55613167  0.11226333  0.65645633  1
  O  O98  1  0.55613167  0.44386833  0.65645633  1
