# generated using pymatgen
data_Zr6CI12
_symmetry_space_group_name_H-M   'P 1'
_cell_length_a   15.00200196
_cell_length_b   15.00200196
_cell_length_c   10.52567007
_cell_angle_alpha   90.00000000
_cell_angle_beta   90.00000000
_cell_angle_gamma   120.00000000
_symmetry_Int_Tables_number   1
_chemical_formula_structural   Zr6CI12
_chemical_formula_sum   'Zr18 C3 I36'
_cell_volume   2051.53447924
_cell_formula_units_Z   3
loop_
 _symmetry_equiv_pos_site_id
 _symmetry_equiv_pos_as_xyz
  1  'x, y, z'
loop_
 _atom_site_type_symbol
 _atom_site_label
 _atom_site_symmetry_multiplicity
 _atom_site_fract_x
 _atom_site_fract_y
 _atom_site_fract_z
 _atom_site_occupancy
  Zr  Zr0  1  0.09934267  0.96078233  0.87606733  1
  Zr  Zr1  1  0.03921767  0.13856033  0.87606733  1
  Zr  Zr2  1  0.86143967  0.90065733  0.87606733  1
  Zr  Zr3  1  0.90065733  0.03921767  0.12393267  1
  Zr  Zr4  1  0.96078233  0.86143967  0.12393267  1
  Zr  Zr5  1  0.13856033  0.09934267  0.12393267  1
  Zr  Zr6  1  0.76600933  0.29411567  0.20940067  1
  Zr  Zr7  1  0.70588433  0.47189367  0.20940067  1
  Zr  Zr8  1  0.52810633  0.23399067  0.20940067  1
  Zr  Zr9  1  0.56732400  0.37255100  0.45726600  1
  Zr  Zr10  1  0.62744900  0.19477300  0.45726600  1
  Zr  Zr11  1  0.80522700  0.43267600  0.45726600  1
  Zr  Zr12  1  0.43267600  0.62744900  0.54273400  1
  Zr  Zr13  1  0.37255100  0.80522700  0.54273400  1
  Zr  Zr14  1  0.19477300  0.56732400  0.54273400  1
  Zr  Zr15  1  0.23399067  0.70588433  0.79059933  1
  Zr  Zr16  1  0.29411567  0.52810633  0.79059933  1
  Zr  Zr17  1  0.47189367  0.76600933  0.79059933  1
  C  C18  1  0.00000000  0.00000000  0.00000000  1
  C  C19  1  0.66666667  0.33333333  0.33333333  1
  C  C20  1  0.33333333  0.66666667  0.66666667  1
  I  I21  1  0.82707400  0.87679000  0.31228500  1
  I  I22  1  0.04971600  0.17292600  0.31228500  1
  I  I23  1  0.87679000  0.04971600  0.68771500  1
  I  I24  1  0.17292600  0.12321000  0.68771500  1
  I  I25  1  0.95028400  0.82707400  0.68771500  1
  I  I26  1  0.12321000  0.95028400  0.31228500  1
  I  I27  1  0.25460133  0.89100867  0.66738367  1
  I  I28  1  0.10899133  0.36359267  0.66738367  1
  I  I29  1  0.63640733  0.74539867  0.66738367  1
  I  I30  1  0.74539867  0.10899133  0.33261633  1
  I  I31  1  0.89100867  0.63640733  0.33261633  1
  I  I32  1  0.36359267  0.25460133  0.33261633  1
  I  I33  1  0.49374067  0.21012333  0.64561833  1
  I  I34  1  0.71638267  0.50625933  0.64561833  1
  I  I35  1  0.54345667  0.38304933  0.02104833  1
  I  I36  1  0.83959267  0.45654333  0.02104833  1
  I  I37  1  0.61695067  0.16040733  0.02104833  1
  I  I38  1  0.78987667  0.28361733  0.64561833  1
  I  I39  1  0.92126800  0.22434200  0.00071700  1
  I  I40  1  0.77565800  0.69692600  0.00071700  1
  I  I41  1  0.30307400  0.07873200  0.00071700  1
  I  I42  1  0.41206533  0.44232467  0.66594967  1
  I  I43  1  0.55767533  0.96974067  0.66594967  1
  I  I44  1  0.03025933  0.58793467  0.66594967  1
  I  I45  1  0.16040733  0.54345667  0.97895167  1
  I  I46  1  0.38304933  0.83959267  0.97895167  1
  I  I47  1  0.21012333  0.71638267  0.35438167  1
  I  I48  1  0.50625933  0.78987667  0.35438167  1
  I  I49  1  0.28361733  0.49374067  0.35438167  1
  I  I50  1  0.45654333  0.61695067  0.97895167  1
  I  I51  1  0.58793467  0.55767533  0.33405033  1
  I  I52  1  0.44232467  0.03025933  0.33405033  1
  I  I53  1  0.96974067  0.41206533  0.33405033  1
  I  I54  1  0.07873200  0.77565800  0.99928300  1
  I  I55  1  0.22434200  0.30307400  0.99928300  1
  I  I56  1  0.69692600  0.92126800  0.99928300  1
