# generated using pymatgen
data_RbLiBr2
_symmetry_space_group_name_H-M   'P 1'
_cell_length_a   4.41820200
_cell_length_b   15.35118000
_cell_length_c   7.78822600
_cell_angle_alpha   90.00000000
_cell_angle_beta   90.00000000
_cell_angle_gamma   90.00000000
_symmetry_Int_Tables_number   1
_chemical_formula_structural   RbLiBr2
_chemical_formula_sum   'Rb4 Li4 Br8'
_cell_volume   528.23342358
_cell_formula_units_Z   4
loop_
 _symmetry_equiv_pos_site_id
 _symmetry_equiv_pos_as_xyz
  1  'x, y, z'
loop_
 _atom_site_type_symbol
 _atom_site_label
 _atom_site_symmetry_multiplicity
 _atom_site_fract_x
 _atom_site_fract_y
 _atom_site_fract_z
 _atom_site_occupancy
  Rb  Rb0  1  0.50000000  0.87267200  0.75000000  1
  Rb  Rb1  1  0.00000000  0.62732800  0.25000000  1
  Rb  Rb2  1  0.00000000  0.37267200  0.75000000  1
  Rb  Rb3  1  0.50000000  0.12732800  0.25000000  1
  Li  Li4  1  0.50000000  0.60600800  0.75000000  1
  Li  Li5  1  0.00000000  0.89399200  0.25000000  1
  Li  Li6  1  0.00000000  0.10600800  0.75000000  1
  Li  Li7  1  0.50000000  0.39399200  0.25000000  1
  Br  Br8  1  0.00000000  0.69369800  0.75000000  1
  Br  Br9  1  0.50000000  0.80630200  0.25000000  1
  Br  Br10  1  0.00000000  0.00000000  0.00000000  1
  Br  Br11  1  0.00000000  0.00000000  0.50000000  1
  Br  Br12  1  0.50000000  0.19369800  0.75000000  1
  Br  Br13  1  0.00000000  0.30630200  0.25000000  1
  Br  Br14  1  0.50000000  0.50000000  0.00000000  1
  Br  Br15  1  0.50000000  0.50000000  0.50000000  1
