# generated using pymatgen
data_LiCu(PO3)2
_symmetry_space_group_name_H-M   'P 1'
_cell_length_a   10.55219000
_cell_length_b   10.88176400
_cell_length_c   4.78514510
_cell_angle_alpha   90.00000000
_cell_angle_beta   112.57471313
_cell_angle_gamma   90.00000000
_symmetry_Int_Tables_number   1
_chemical_formula_structural   LiCu(PO3)2
_chemical_formula_sum   'Li4 Cu4 P8 O24'
_cell_volume   507.36131968
_cell_formula_units_Z   4
loop_
 _symmetry_equiv_pos_site_id
 _symmetry_equiv_pos_as_xyz
  1  'x, y, z'
loop_
 _atom_site_type_symbol
 _atom_site_label
 _atom_site_symmetry_multiplicity
 _atom_site_fract_x
 _atom_site_fract_y
 _atom_site_fract_z
 _atom_site_occupancy
  Li  Li0  1  0.50000000  0.72828500  0.25000000  1
  Li  Li1  1  0.50000000  0.27171500  0.75000000  1
  Li  Li2  1  0.00000000  0.22828500  0.25000000  1
  Li  Li3  1  0.00000000  0.77171500  0.75000000  1
  Cu  Cu4  1  0.50000000  0.59890200  0.75000000  1
  Cu  Cu5  1  0.50000000  0.40109800  0.25000000  1
  Cu  Cu6  1  0.00000000  0.09890200  0.75000000  1
  Cu  Cu7  1  0.00000000  0.90109800  0.25000000  1
  P  P8  1  0.28572400  0.91507100  0.76296600  1
  P  P9  1  0.71427600  0.08492900  0.23703400  1
  P  P10  1  0.28572400  0.08492900  0.26296600  1
  P  P11  1  0.71427600  0.91507100  0.73703400  1
  P  P12  1  0.78572400  0.41507100  0.76296600  1
  P  P13  1  0.21427600  0.58492900  0.23703400  1
  P  P14  1  0.78572400  0.58492900  0.26296600  1
  P  P15  1  0.21427600  0.41507100  0.73703400  1
  O  O16  1  0.67602600  0.96813900  0.00868100  1
  O  O17  1  0.62287500  0.80982000  0.59891500  1
  O  O18  1  0.37712500  0.80982000  0.90108500  1
  O  O19  1  0.13079700  0.89414500  0.65021700  1
  O  O20  1  0.86920300  0.89414500  0.84978300  1
  O  O21  1  0.86920300  0.10585500  0.34978300  1
  O  O22  1  0.62287500  0.19018000  0.09891500  1
  O  O23  1  0.32397400  0.96813900  0.49131900  1
  O  O24  1  0.13079700  0.10585500  0.15021700  1
  O  O25  1  0.67602600  0.03186100  0.50868100  1
  O  O26  1  0.32397400  0.03186100  0.99131900  1
  O  O27  1  0.37712500  0.19018000  0.40108500  1
  O  O28  1  0.17602600  0.46813900  0.00868100  1
  O  O29  1  0.12287500  0.30982000  0.59891500  1
  O  O30  1  0.87712500  0.30982000  0.90108500  1
  O  O31  1  0.63079700  0.39414500  0.65021700  1
  O  O32  1  0.36920300  0.39414500  0.84978300  1
  O  O33  1  0.36920300  0.60585500  0.34978300  1
  O  O34  1  0.12287500  0.69018000  0.09891500  1
  O  O35  1  0.82397400  0.46813900  0.49131900  1
  O  O36  1  0.63079700  0.60585500  0.15021700  1
  O  O37  1  0.17602600  0.53186100  0.50868100  1
  O  O38  1  0.82397400  0.53186100  0.99131900  1
  O  O39  1  0.87712500  0.69018000  0.40108500  1
