# generated using pymatgen
data_Ba(BrO3)2
_symmetry_space_group_name_H-M   'P 1'
_cell_length_a   8.08144200
_cell_length_b   12.43574400
_cell_length_c   13.76730800
_cell_angle_alpha   90.00000000
_cell_angle_beta   90.00000000
_cell_angle_gamma   90.00000000
_symmetry_Int_Tables_number   1
_chemical_formula_structural   Ba(BrO3)2
_chemical_formula_sum   'Ba8 Br16 O48'
_cell_volume   1383.59716037
_cell_formula_units_Z   8
loop_
 _symmetry_equiv_pos_site_id
 _symmetry_equiv_pos_as_xyz
  1  'x, y, z'
loop_
 _atom_site_type_symbol
 _atom_site_label
 _atom_site_symmetry_multiplicity
 _atom_site_fract_x
 _atom_site_fract_y
 _atom_site_fract_z
 _atom_site_occupancy
  Ba  Ba0  1  0.75079000  0.00000000  0.50000000  1
  Ba  Ba1  1  0.00079000  0.25000000  0.75000000  1
  Ba  Ba2  1  0.25079000  0.00000000  0.00000000  1
  Ba  Ba3  1  0.50079000  0.25000000  0.25000000  1
  Ba  Ba4  1  0.25079000  0.50000000  0.50000000  1
  Ba  Ba5  1  0.50079000  0.75000000  0.75000000  1
  Ba  Ba6  1  0.75079000  0.50000000  0.00000000  1
  Ba  Ba7  1  0.00079000  0.75000000  0.25000000  1
  Br  Br8  1  0.69007250  0.19447600  0.97871150  1
  Br  Br9  1  0.19007250  0.80552400  0.52128850  1
  Br  Br10  1  0.44007250  0.05552400  0.72871150  1
  Br  Br11  1  0.94007250  0.94447600  0.77128850  1
  Br  Br12  1  0.19007250  0.19447600  0.47871150  1
  Br  Br13  1  0.69007250  0.80552400  0.02128850  1
  Br  Br14  1  0.94007250  0.05552400  0.22871150  1
  Br  Br15  1  0.44007250  0.94447600  0.27128850  1
  Br  Br16  1  0.19007250  0.69447600  0.97871150  1
  Br  Br17  1  0.69007250  0.30552400  0.52128850  1
  Br  Br18  1  0.94007250  0.55552400  0.72871150  1
  Br  Br19  1  0.44007250  0.44447600  0.77128850  1
  Br  Br20  1  0.69007250  0.69447600  0.47871150  1
  Br  Br21  1  0.19007250  0.30552400  0.02128850  1
  Br  Br22  1  0.44007250  0.55552400  0.22871150  1
  Br  Br23  1  0.94007250  0.44447600  0.27128850  1
  O  O24  1  0.52244900  0.12357300  0.94714700  1
  O  O25  1  0.02244900  0.87642700  0.55285300  1
  O  O26  1  0.27244900  0.12642700  0.69714700  1
  O  O27  1  0.27244900  0.37357300  0.80285300  1
  O  O28  1  0.48484750  0.97982700  0.63044350  1
  O  O29  1  0.98484750  0.02017300  0.86955650  1
  O  O30  1  0.87093600  0.03925200  0.69257500  1
  O  O31  1  0.37093600  0.96074800  0.80742500  1
  O  O32  1  0.62093600  0.71074800  0.94257500  1
  O  O33  1  0.12093600  0.28925200  0.55742500  1
  O  O34  1  0.23484750  0.72982700  0.61955650  1
  O  O35  1  0.23484750  0.77017300  0.88044350  1
  O  O36  1  0.02244900  0.12357300  0.44714700  1
  O  O37  1  0.52244900  0.87642700  0.05285300  1
  O  O38  1  0.77244900  0.12642700  0.19714700  1
  O  O39  1  0.77244900  0.37357300  0.30285300  1
  O  O40  1  0.98484750  0.97982700  0.13044350  1
  O  O41  1  0.48484750  0.02017300  0.36955650  1
  O  O42  1  0.37093600  0.03925200  0.19257500  1
  O  O43  1  0.87093600  0.96074800  0.30742500  1
  O  O44  1  0.12093600  0.71074800  0.44257500  1
  O  O45  1  0.62093600  0.28925200  0.05742500  1
  O  O46  1  0.73484750  0.72982700  0.11955650  1
  O  O47  1  0.73484750  0.77017300  0.38044350  1
  O  O48  1  0.02244900  0.62357300  0.94714700  1
  O  O49  1  0.52244900  0.37642700  0.55285300  1
  O  O50  1  0.77244900  0.62642700  0.69714700  1
  O  O51  1  0.77244900  0.87357300  0.80285300  1
  O  O52  1  0.98484750  0.47982700  0.63044350  1
  O  O53  1  0.48484750  0.52017300  0.86955650  1
  O  O54  1  0.37093600  0.53925200  0.69257500  1
  O  O55  1  0.87093600  0.46074800  0.80742500  1
  O  O56  1  0.12093600  0.21074800  0.94257500  1
  O  O57  1  0.62093600  0.78925200  0.55742500  1
  O  O58  1  0.73484750  0.22982700  0.61955650  1
  O  O59  1  0.73484750  0.27017300  0.88044350  1
  O  O60  1  0.52244900  0.62357300  0.44714700  1
  O  O61  1  0.02244900  0.37642700  0.05285300  1
  O  O62  1  0.27244900  0.62642700  0.19714700  1
  O  O63  1  0.27244900  0.87357300  0.30285300  1
  O  O64  1  0.48484750  0.47982700  0.13044350  1
  O  O65  1  0.98484750  0.52017300  0.36955650  1
  O  O66  1  0.87093600  0.53925200  0.19257500  1
  O  O67  1  0.37093600  0.46074800  0.30742500  1
  O  O68  1  0.62093600  0.21074800  0.44257500  1
  O  O69  1  0.12093600  0.78925200  0.05742500  1
  O  O70  1  0.23484750  0.22982700  0.11955650  1
  O  O71  1  0.23484750  0.27017300  0.38044350  1
