# generated using pymatgen
data_Al2PbO4
_symmetry_space_group_name_H-M   'P 1'
_cell_length_a   5.15820400
_cell_length_b   9.32473000
_cell_length_c   8.56974900
_cell_angle_alpha   90.00000000
_cell_angle_beta   90.00000000
_cell_angle_gamma   90.00000000
_symmetry_Int_Tables_number   1
_chemical_formula_structural   Al2PbO4
_chemical_formula_sum   'Al8 Pb4 O16'
_cell_volume   412.19515383
_cell_formula_units_Z   4
loop_
 _symmetry_equiv_pos_site_id
 _symmetry_equiv_pos_as_xyz
  1  'x, y, z'
loop_
 _atom_site_type_symbol
 _atom_site_label
 _atom_site_symmetry_multiplicity
 _atom_site_fract_x
 _atom_site_fract_y
 _atom_site_fract_z
 _atom_site_occupancy
  Al  Al0  1  0.53220000  0.17192200  0.55432200  1
  Al  Al1  1  0.03220000  0.32807800  0.44567800  1
  Al  Al2  1  0.53220000  0.17192200  0.94567800  1
  Al  Al3  1  0.03220000  0.32807800  0.05432200  1
  Al  Al4  1  0.03220000  0.67192200  0.55432200  1
  Al  Al5  1  0.53220000  0.82807800  0.44567800  1
  Al  Al6  1  0.03220000  0.67192200  0.94567800  1
  Al  Al7  1  0.53220000  0.82807800  0.05432200  1
  Pb  Pb8  1  0.00021400  0.03021300  0.75000000  1
  Pb  Pb9  1  0.50021400  0.46978700  0.25000000  1
  Pb  Pb10  1  0.50021400  0.53021300  0.75000000  1
  Pb  Pb11  1  0.00021400  0.96978700  0.25000000  1
  O  O12  1  0.64812400  0.18628500  0.75000000  1
  O  O13  1  0.14812400  0.31371500  0.25000000  1
  O  O14  1  0.64173600  0.00000000  0.50000000  1
  O  O15  1  0.64173600  0.00000000  0.00000000  1
  O  O16  1  0.19026350  0.19125150  0.55430300  1
  O  O17  1  0.69026350  0.30874850  0.44569700  1
  O  O18  1  0.69026350  0.30874850  0.05430300  1
  O  O19  1  0.19026350  0.19125150  0.94569700  1
  O  O20  1  0.14812400  0.68628500  0.75000000  1
  O  O21  1  0.64812400  0.81371500  0.25000000  1
  O  O22  1  0.14173600  0.50000000  0.50000000  1
  O  O23  1  0.14173600  0.50000000  0.00000000  1
  O  O24  1  0.69026350  0.69125150  0.55430300  1
  O  O25  1  0.19026350  0.80874850  0.44569700  1
  O  O26  1  0.19026350  0.80874850  0.05430300  1
  O  O27  1  0.69026350  0.69125150  0.94569700  1
