# generated using pymatgen
data_S2I2O11
_symmetry_space_group_name_H-M   'P 1'
_cell_length_a   9.32091500
_cell_length_b   10.66138400
_cell_length_c   9.35935234
_cell_angle_alpha   90.00000000
_cell_angle_beta   94.54716011
_cell_angle_gamma   90.00000000
_symmetry_Int_Tables_number   1
_chemical_formula_structural   S2I2O11
_chemical_formula_sum   'S8 I8 O44'
_cell_volume   927.14742525
_cell_formula_units_Z   4
loop_
 _symmetry_equiv_pos_site_id
 _symmetry_equiv_pos_as_xyz
  1  'x, y, z'
loop_
 _atom_site_type_symbol
 _atom_site_label
 _atom_site_symmetry_multiplicity
 _atom_site_fract_x
 _atom_site_fract_y
 _atom_site_fract_z
 _atom_site_occupancy
  S  S0  1  0.71968600  0.15373100  0.68643600  1
  S  S1  1  0.78031400  0.65373100  0.31356400  1
  S  S2  1  0.28031400  0.84626900  0.31356400  1
  S  S3  1  0.21968600  0.34626900  0.68643600  1
  S  S4  1  0.72235700  0.40480000  0.80506900  1
  S  S5  1  0.77764300  0.90480000  0.19493100  1
  S  S6  1  0.27764300  0.59520000  0.19493100  1
  S  S7  1  0.22235700  0.09520000  0.80506900  1
  I  I8  1  0.63285700  0.22196000  0.08251700  1
  I  I9  1  0.86714300  0.72196000  0.91748300  1
  I  I10  1  0.36714300  0.77804000  0.91748300  1
  I  I11  1  0.13285700  0.27804000  0.08251700  1
  I  I12  1  0.63281300  0.33288800  0.38840800  1
  I  I13  1  0.86718700  0.83288800  0.61159200  1
  I  I14  1  0.36718700  0.66711200  0.61159200  1
  I  I15  1  0.13281300  0.16711200  0.38840800  1
  O  O16  1  0.82160200  0.33938600  0.41980200  1
  O  O17  1  0.67839800  0.83938600  0.58019800  1
  O  O18  1  0.17839800  0.66061400  0.58019800  1
  O  O19  1  0.32160200  0.16061400  0.41980200  1
  O  O20  1  0.61296200  0.17165800  0.29172300  1
  O  O21  1  0.88703800  0.67165800  0.70827700  1
  O  O22  1  0.38703800  0.82834200  0.70827700  1
  O  O23  1  0.11296200  0.32834200  0.29172300  1
  O  O24  1  0.82259100  0.21293600  0.08332200  1
  O  O25  1  0.67740900  0.71293600  0.91667800  1
  O  O26  1  0.17740900  0.78706400  0.91667800  1
  O  O27  1  0.32259100  0.28706400  0.08332200  1
  O  O28  1  0.61712500  0.38344400  0.17577400  1
  O  O29  1  0.88287500  0.88344400  0.82422600  1
  O  O30  1  0.65521100  0.09580000  0.80449100  1
  O  O31  1  0.38287500  0.61655600  0.82422600  1
  O  O32  1  0.10606700  0.14705300  0.89168500  1
  O  O33  1  0.39393300  0.64705300  0.10831500  1
  O  O34  1  0.89393300  0.85294700  0.10831500  1
  O  O35  1  0.60606700  0.35294700  0.89168500  1
  O  O36  1  0.33638800  0.03189500  0.89136700  1
  O  O37  1  0.16361200  0.53189500  0.10863300  1
  O  O38  1  0.66361200  0.96810500  0.10863300  1
  O  O39  1  0.83638800  0.46810500  0.89136700  1
  O  O40  1  0.10567000  0.29471600  0.57966000  1
  O  O41  1  0.39433000  0.79471600  0.42034000  1
  O  O42  1  0.89433000  0.70528400  0.42034000  1
  O  O43  1  0.60567000  0.20528400  0.57966000  1
  O  O44  1  0.30846700  0.21979300  0.75116800  1
  O  O45  1  0.19153300  0.71979300  0.24883200  1
  O  O46  1  0.69153300  0.78020700  0.24883200  1
  O  O47  1  0.80846700  0.28020700  0.75116800  1
  O  O48  1  0.33340900  0.41281700  0.62154500  1
  O  O49  1  0.16659100  0.91281700  0.37845500  1
  O  O50  1  0.66659100  0.58718300  0.37845500  1
  O  O51  1  0.83340900  0.08718300  0.62154500  1
  O  O52  1  0.15826100  0.03246800  0.67945600  1
  O  O53  1  0.34173900  0.53246800  0.32054400  1
  O  O54  1  0.84173900  0.96753200  0.32054400  1
  O  O55  1  0.65826100  0.46753200  0.67945600  1
  O  O56  1  0.15521100  0.40420000  0.80449100  1
  O  O57  1  0.34478900  0.90420000  0.19550900  1
  O  O58  1  0.84478900  0.59580000  0.19550900  1
  O  O59  1  0.11712500  0.11655600  0.17577400  1
