# generated using pymatgen
data_NaTe
_symmetry_space_group_name_H-M   'P 1'
_cell_length_a   9.22361400
_cell_length_b   10.02884700
_cell_length_c   16.02680400
_cell_angle_alpha   90.00000000
_cell_angle_beta   90.00000000
_cell_angle_gamma   90.00000000
_symmetry_Int_Tables_number   1
_chemical_formula_structural   NaTe
_chemical_formula_sum   'Na24 Te24'
_cell_volume   1482.51484682
_cell_formula_units_Z   24
loop_
 _symmetry_equiv_pos_site_id
 _symmetry_equiv_pos_as_xyz
  1  'x, y, z'
loop_
 _atom_site_type_symbol
 _atom_site_label
 _atom_site_symmetry_multiplicity
 _atom_site_fract_x
 _atom_site_fract_y
 _atom_site_fract_z
 _atom_site_occupancy
  Na  Na0  1  0.44084000  0.31946200  0.97117700  1
  Na  Na1  1  0.27403000  0.48843300  0.18937000  1
  Na  Na2  1  0.22597000  0.98843300  0.68937000  1
  Na  Na3  1  0.24213300  0.83000000  0.11307700  1
  Na  Na4  1  0.94084000  0.18053800  0.52882300  1
  Na  Na5  1  0.77403000  0.01156700  0.31063000  1
  Na  Na6  1  0.74213300  0.67000000  0.38692300  1
  Na  Na7  1  0.55916000  0.68053800  0.02882300  1
  Na  Na8  1  0.05916000  0.31946200  0.02882300  1
  Na  Na9  1  0.25786700  0.33000000  0.61307700  1
  Na  Na10  1  0.75786700  0.67000000  0.61307700  1
  Na  Na11  1  0.77403000  0.51156700  0.18937000  1
  Na  Na12  1  0.22597000  0.48843300  0.81063000  1
  Na  Na13  1  0.25786700  0.83000000  0.88692300  1
  Na  Na14  1  0.24213300  0.33000000  0.38692300  1
  Na  Na15  1  0.55916000  0.18053800  0.47117700  1
  Na  Na16  1  0.75786700  0.17000000  0.88692300  1
  Na  Na17  1  0.72597000  0.01156700  0.68937000  1
  Na  Na18  1  0.72597000  0.51156700  0.81063000  1
  Na  Na19  1  0.05916000  0.81946200  0.47117700  1
  Na  Na20  1  0.74213300  0.17000000  0.11307700  1
  Na  Na21  1  0.44084000  0.81946200  0.52882300  1
  Na  Na22  1  0.27403000  0.98843300  0.31063000  1
  Na  Na23  1  0.94084000  0.68053800  0.97117700  1
  Te  Te24  1  0.51094500  0.74710000  0.24723500  1
  Te  Te25  1  0.98905500  0.74710000  0.75276500  1
  Te  Te26  1  0.98905500  0.24710000  0.74723500  1
  Te  Te27  1  0.50000000  0.50000000  0.50000000  1
  Te  Te28  1  0.69135100  0.35907600  0.63260800  1
  Te  Te29  1  0.25000000  0.57258400  0.00000000  1
  Te  Te30  1  0.25000000  0.07258400  0.50000000  1
  Te  Te31  1  0.75000000  0.92741600  0.50000000  1
  Te  Te32  1  0.48905500  0.75290000  0.74723500  1
  Te  Te33  1  0.80864900  0.35907600  0.36739200  1
  Te  Te34  1  0.01094500  0.25290000  0.24723500  1
  Te  Te35  1  0.19135100  0.14092400  0.86739200  1
  Te  Te36  1  0.51094500  0.24710000  0.25276500  1
  Te  Te37  1  0.00000000  0.50000000  0.50000000  1
  Te  Te38  1  0.80864900  0.85907600  0.13260800  1
  Te  Te39  1  0.69135100  0.85907600  0.86739200  1
  Te  Te40  1  0.19135100  0.64092400  0.63260800  1
  Te  Te41  1  0.48905500  0.25290000  0.75276500  1
  Te  Te42  1  0.00000000  0.00000000  0.00000000  1
  Te  Te43  1  0.75000000  0.42741600  0.00000000  1
  Te  Te44  1  0.30864900  0.14092400  0.13260800  1
  Te  Te45  1  0.01094500  0.75290000  0.25276500  1
  Te  Te46  1  0.50000000  0.00000000  0.00000000  1
  Te  Te47  1  0.30864900  0.64092400  0.36739200  1
