# generated using pymatgen
data_MnInBr3
_symmetry_space_group_name_H-M   'P 1'
_cell_length_a   4.01734300
_cell_length_b   9.58492100
_cell_length_c   15.50029300
_cell_angle_alpha   90.00000000
_cell_angle_beta   90.00000000
_cell_angle_gamma   90.00000000
_symmetry_Int_Tables_number   1
_chemical_formula_structural   MnInBr3
_chemical_formula_sum   'Mn4 In4 Br12'
_cell_volume   596.85296915
_cell_formula_units_Z   4
loop_
 _symmetry_equiv_pos_site_id
 _symmetry_equiv_pos_as_xyz
  1  'x, y, z'
loop_
 _atom_site_type_symbol
 _atom_site_label
 _atom_site_symmetry_multiplicity
 _atom_site_fract_x
 _atom_site_fract_y
 _atom_site_fract_z
 _atom_site_occupancy
  Mn  Mn0  1  0.25000000  0.66268800  0.05472900  1
  Mn  Mn1  1  0.75000000  0.33731200  0.94527100  1
  Mn  Mn2  1  0.25000000  0.16268800  0.44527100  1
  Mn  Mn3  1  0.75000000  0.83731200  0.55472900  1
  In  In4  1  0.25000000  0.95927400  0.82377800  1
  In  In5  1  0.75000000  0.04072600  0.17622200  1
  In  In6  1  0.25000000  0.45927400  0.67622200  1
  In  In7  1  0.75000000  0.54072600  0.32377800  1
  Br  Br8  1  0.75000000  0.98008000  0.39981700  1
  Br  Br9  1  0.25000000  0.01992000  0.60018300  1
  Br  Br10  1  0.75000000  0.48008000  0.10018300  1
  Br  Br11  1  0.25000000  0.51992000  0.89981700  1
  Br  Br12  1  0.75000000  0.32541600  0.50359700  1
  Br  Br13  1  0.25000000  0.67458400  0.49640300  1
  Br  Br14  1  0.75000000  0.82541600  0.99640300  1
  Br  Br15  1  0.25000000  0.17458400  0.00359700  1
  Br  Br16  1  0.75000000  0.72262200  0.70715300  1
  Br  Br17  1  0.25000000  0.27737800  0.29284700  1
  Br  Br18  1  0.75000000  0.22262200  0.79284700  1
  Br  Br19  1  0.25000000  0.77737800  0.20715300  1
