# generated using pymatgen
data_InAgO2
_symmetry_space_group_name_H-M   'P 1'
_cell_length_a   3.33555167
_cell_length_b   3.33555167
_cell_length_c   12.82671200
_cell_angle_alpha   90.00000000
_cell_angle_beta   90.00000000
_cell_angle_gamma   120.00000000
_symmetry_Int_Tables_number   1
_chemical_formula_structural   InAgO2
_chemical_formula_sum   'In2 Ag2 O4'
_cell_volume   123.58942730
_cell_formula_units_Z   2
loop_
 _symmetry_equiv_pos_site_id
 _symmetry_equiv_pos_as_xyz
  1  'x, y, z'
loop_
 _atom_site_type_symbol
 _atom_site_label
 _atom_site_symmetry_multiplicity
 _atom_site_fract_x
 _atom_site_fract_y
 _atom_site_fract_z
 _atom_site_occupancy
  In  In0  1  0.00000000  0.00000000  0.50000000  1
  In  In1  1  0.00000000  0.00000000  0.00000000  1
  Ag  Ag2  1  0.33333333  0.66666667  0.25000000  1
  Ag  Ag3  1  0.66666667  0.33333333  0.75000000  1
  O  O4  1  0.33333333  0.66666667  0.41491100  1
  O  O5  1  0.66666667  0.33333333  0.91491100  1
  O  O6  1  0.66666667  0.33333333  0.58508900  1
  O  O7  1  0.33333333  0.66666667  0.08508900  1
