# generated using pymatgen
data_CdGeO3
_symmetry_space_group_name_H-M   'P 1'
_cell_length_a   10.37870600
_cell_length_b   9.87787400
_cell_length_c   5.48468821
_cell_angle_alpha   90.00000000
_cell_angle_beta   103.00190415
_cell_angle_gamma   90.00000000
_symmetry_Int_Tables_number   1
_chemical_formula_structural   CdGeO3
_chemical_formula_sum   'Cd8 Ge8 O24'
_cell_volume   547.87216497
_cell_formula_units_Z   8
loop_
 _symmetry_equiv_pos_site_id
 _symmetry_equiv_pos_as_xyz
  1  'x, y, z'
loop_
 _atom_site_type_symbol
 _atom_site_label
 _atom_site_symmetry_multiplicity
 _atom_site_fract_x
 _atom_site_fract_y
 _atom_site_fract_z
 _atom_site_occupancy
  Cd  Cd0  1  0.00000000  0.28761500  0.75000000  1
  Cd  Cd1  1  0.00000000  0.71238500  0.25000000  1
  Cd  Cd2  1  0.00000000  0.90237200  0.75000000  1
  Cd  Cd3  1  0.00000000  0.09762800  0.25000000  1
  Cd  Cd4  1  0.50000000  0.78761500  0.75000000  1
  Cd  Cd5  1  0.50000000  0.21238500  0.25000000  1
  Cd  Cd6  1  0.50000000  0.40237200  0.75000000  1
  Cd  Cd7  1  0.50000000  0.59762800  0.25000000  1
  Ge  Ge8  1  0.20500600  0.58829200  0.77303500  1
  Ge  Ge9  1  0.79499400  0.58829200  0.72696500  1
  Ge  Ge10  1  0.79499400  0.41170800  0.22696500  1
  Ge  Ge11  1  0.20500600  0.41170800  0.27303500  1
  Ge  Ge12  1  0.70500600  0.08829200  0.77303500  1
  Ge  Ge13  1  0.29499400  0.08829200  0.72696500  1
  Ge  Ge14  1  0.29499400  0.91170800  0.22696500  1
  Ge  Ge15  1  0.70500600  0.91170800  0.27303500  1
  O  O16  1  0.87540250  0.73148550  0.87018200  1
  O  O17  1  0.12459750  0.73148550  0.62981800  1
  O  O18  1  0.12459750  0.26851450  0.12981800  1
  O  O19  1  0.87540250  0.26851450  0.37018200  1
  O  O20  1  0.85212550  0.44764150  0.94183700  1
  O  O21  1  0.14787450  0.44764150  0.55816300  1
  O  O22  1  0.14787450  0.55235850  0.05816300  1
  O  O23  1  0.85212550  0.55235850  0.44183700  1
  O  O24  1  0.37895700  0.40742500  0.34676300  1
  O  O25  1  0.62104300  0.40742500  0.15323700  1
  O  O26  1  0.62104300  0.59257500  0.65323700  1
  O  O27  1  0.37895700  0.59257500  0.84676300  1
  O  O28  1  0.37540250  0.23148550  0.87018200  1
  O  O29  1  0.62459750  0.23148550  0.62981800  1
  O  O30  1  0.62459750  0.76851450  0.12981800  1
  O  O31  1  0.37540250  0.76851450  0.37018200  1
  O  O32  1  0.35212550  0.94764150  0.94183700  1
  O  O33  1  0.64787450  0.94764150  0.55816300  1
  O  O34  1  0.64787450  0.05235850  0.05816300  1
  O  O35  1  0.35212550  0.05235850  0.44183700  1
  O  O36  1  0.87895700  0.90742500  0.34676300  1
  O  O37  1  0.12104300  0.90742500  0.15323700  1
  O  O38  1  0.12104300  0.09257500  0.65323700  1
  O  O39  1  0.87895700  0.09257500  0.84676300  1
