# generated using pymatgen
data_Cd(InSe2)2
_symmetry_space_group_name_H-M   'P 1'
_cell_length_a   5.99090000
_cell_length_b   5.99090000
_cell_length_c   11.81446000
_cell_angle_alpha   90.00000000
_cell_angle_beta   90.00000000
_cell_angle_gamma   90.00000000
_symmetry_Int_Tables_number   1
_chemical_formula_structural   Cd(InSe2)2
_chemical_formula_sum   'Cd2 In4 Se8'
_cell_volume   424.03139932
_cell_formula_units_Z   2
loop_
 _symmetry_equiv_pos_site_id
 _symmetry_equiv_pos_as_xyz
  1  'x, y, z'
loop_
 _atom_site_type_symbol
 _atom_site_label
 _atom_site_symmetry_multiplicity
 _atom_site_fract_x
 _atom_site_fract_y
 _atom_site_fract_z
 _atom_site_occupancy
  Cd  Cd0  1  0.00000000  0.00000000  0.00000000  1
  Cd  Cd1  1  0.50000000  0.50000000  0.50000000  1
  In  In2  1  0.50000000  0.50000000  0.00000000  1
  In  In3  1  0.50000000  0.00000000  0.25000000  1
  In  In4  1  0.00000000  0.00000000  0.50000000  1
  In  In5  1  0.00000000  0.50000000  0.75000000  1
  Se  Se6  1  0.22666200  0.73515800  0.36338900  1
  Se  Se7  1  0.76484200  0.72666200  0.13661100  1
  Se  Se8  1  0.23515800  0.27333800  0.13661100  1
  Se  Se9  1  0.77333800  0.26484200  0.36338900  1
  Se  Se10  1  0.72666200  0.23515800  0.86338900  1
  Se  Se11  1  0.26484200  0.22666200  0.63661100  1
  Se  Se12  1  0.73515800  0.77333800  0.63661100  1
  Se  Se13  1  0.27333800  0.76484200  0.86338900  1
