# generated using pymatgen
data_Hg3(TeI)2
_symmetry_space_group_name_H-M   'P 1'
_cell_length_a   14.70465200
_cell_length_b   10.27345400
_cell_length_c   14.72484262
_cell_angle_alpha   90.00000000
_cell_angle_beta   98.78264665
_cell_angle_gamma   90.00000000
_symmetry_Int_Tables_number   1
_chemical_formula_structural   Hg3(TeI)2
_chemical_formula_sum   'Hg24 Te16 I16'
_cell_volume   2198.36377086
_cell_formula_units_Z   8
loop_
 _symmetry_equiv_pos_site_id
 _symmetry_equiv_pos_as_xyz
  1  'x, y, z'
loop_
 _atom_site_type_symbol
 _atom_site_label
 _atom_site_symmetry_multiplicity
 _atom_site_fract_x
 _atom_site_fract_y
 _atom_site_fract_z
 _atom_site_occupancy
  Hg  Hg0  1  0.88386300  0.99284600  0.82871600  1
  Hg  Hg1  1  0.11613700  0.99284600  0.67128400  1
  Hg  Hg2  1  0.11613700  0.00715400  0.17128400  1
  Hg  Hg3  1  0.88386300  0.00715400  0.32871600  1
  Hg  Hg4  1  0.47064750  0.22583350  0.52143600  1
  Hg  Hg5  1  0.52935250  0.22583350  0.97856400  1
  Hg  Hg6  1  0.52935250  0.77416650  0.47856400  1
  Hg  Hg7  1  0.47064750  0.77416650  0.02143600  1
  Hg  Hg8  1  0.75000000  0.25000000  0.50000000  1
  Hg  Hg9  1  0.75000000  0.75000000  0.00000000  1
  Hg  Hg10  1  0.50000000  0.82984000  0.75000000  1
  Hg  Hg11  1  0.50000000  0.17016000  0.25000000  1
  Hg  Hg12  1  0.38386300  0.49284600  0.82871600  1
  Hg  Hg13  1  0.61613700  0.49284600  0.67128400  1
  Hg  Hg14  1  0.61613700  0.50715400  0.17128400  1
  Hg  Hg15  1  0.38386300  0.50715400  0.32871600  1
  Hg  Hg16  1  0.97064750  0.72583350  0.52143600  1
  Hg  Hg17  1  0.02935250  0.72583350  0.97856400  1
  Hg  Hg18  1  0.02935250  0.27416650  0.47856400  1
  Hg  Hg19  1  0.97064750  0.27416650  0.02143600  1
  Hg  Hg20  1  0.25000000  0.75000000  0.50000000  1
  Hg  Hg21  1  0.25000000  0.25000000  0.00000000  1
  Hg  Hg22  1  0.00000000  0.32984000  0.75000000  1
  Hg  Hg23  1  0.00000000  0.67016000  0.25000000  1
  Te  Te24  1  0.36299150  0.75663650  0.85049600  1
  Te  Te25  1  0.63700850  0.75663650  0.64950400  1
  Te  Te26  1  0.63700850  0.24336350  0.14950400  1
  Te  Te27  1  0.36299150  0.24336350  0.35049600  1
  Te  Te28  1  0.35880150  0.23237350  0.86616300  1
  Te  Te29  1  0.64119850  0.23237350  0.63383700  1
  Te  Te30  1  0.64119850  0.76762650  0.13383700  1
  Te  Te31  1  0.35880150  0.76762650  0.36616300  1
  Te  Te32  1  0.86299150  0.25663650  0.85049600  1
  Te  Te33  1  0.13700850  0.25663650  0.64950400  1
  Te  Te34  1  0.13700850  0.74336350  0.14950400  1
  Te  Te35  1  0.86299150  0.74336350  0.35049600  1
  Te  Te36  1  0.85880150  0.73237350  0.86616300  1
  Te  Te37  1  0.14119850  0.73237350  0.63383700  1
  Te  Te38  1  0.14119850  0.26762650  0.13383700  1
  Te  Te39  1  0.85880150  0.26762650  0.36616300  1
  I  I40  1  0.37588400  0.01477200  0.61769900  1
  I  I41  1  0.62411600  0.01477200  0.88230100  1
  I  I42  1  0.62411600  0.98522800  0.38230100  1
  I  I43  1  0.37588400  0.98522800  0.11769900  1
  I  I44  1  0.88994750  0.02445950  0.11841100  1
  I  I45  1  0.11005250  0.02445950  0.38158900  1
  I  I46  1  0.11005250  0.97554050  0.88158900  1
  I  I47  1  0.88994750  0.97554050  0.61841100  1
  I  I48  1  0.87588400  0.51477200  0.61769900  1
  I  I49  1  0.12411600  0.51477200  0.88230100  1
  I  I50  1  0.12411600  0.48522800  0.38230100  1
  I  I51  1  0.87588400  0.48522800  0.11769900  1
  I  I52  1  0.38994750  0.52445950  0.11841100  1
  I  I53  1  0.61005250  0.52445950  0.38158900  1
  I  I54  1  0.61005250  0.47554050  0.88158900  1
  I  I55  1  0.38994750  0.47554050  0.61841100  1
