# generated using pymatgen
data_P2SeO3
_symmetry_space_group_name_H-M   'P 1'
_cell_length_a   11.94377100
_cell_length_b   6.83256100
_cell_length_c   12.36609619
_cell_angle_alpha   90.00000000
_cell_angle_beta   90.33643480
_cell_angle_gamma   90.00000000
_symmetry_Int_Tables_number   1
_chemical_formula_structural   P2SeO3
_chemical_formula_sum   'P16 Se8 O24'
_cell_volume   1009.13697424
_cell_formula_units_Z   8
loop_
 _symmetry_equiv_pos_site_id
 _symmetry_equiv_pos_as_xyz
  1  'x, y, z'
loop_
 _atom_site_type_symbol
 _atom_site_label
 _atom_site_symmetry_multiplicity
 _atom_site_fract_x
 _atom_site_fract_y
 _atom_site_fract_z
 _atom_site_occupancy
  P  P0  1  0.86831600  0.25384100  0.92449000  1
  P  P1  1  0.34619800  0.64086800  0.47915600  1
  P  P2  1  0.34619800  0.85913200  0.97915600  1
  P  P3  1  0.65380200  0.35913200  0.52084400  1
  P  P4  1  0.78935000  0.46674600  0.11531200  1
  P  P5  1  0.21065000  0.96674600  0.38468800  1
  P  P6  1  0.21065000  0.53325400  0.88468800  1
  P  P7  1  0.78935000  0.03325400  0.61531200  1
  P  P8  1  0.67785200  0.51215200  0.90438200  1
  P  P9  1  0.32214800  0.01215200  0.59561800  1
  P  P10  1  0.32214800  0.48784800  0.09561800  1
  P  P11  1  0.67785200  0.98784800  0.40438200  1
  P  P12  1  0.86831600  0.24615900  0.42449000  1
  P  P13  1  0.13168400  0.75384100  0.57551000  1
  P  P14  1  0.13168400  0.74615900  0.07551000  1
  P  P15  1  0.65380200  0.14086800  0.02084400  1
  Se  Se16  1  0.00486200  0.15242400  0.84257800  1
  Se  Se17  1  0.99513800  0.65242400  0.65742200  1
  Se  Se18  1  0.99513800  0.84757600  0.15742200  1
  Se  Se19  1  0.00486200  0.34757600  0.34257800  1
  Se  Se20  1  0.59708400  0.70407900  0.80256100  1
  Se  Se21  1  0.40291600  0.20407900  0.69743900  1
  Se  Se22  1  0.40291600  0.29592100  0.19743900  1
  Se  Se23  1  0.59708400  0.79592100  0.30256100  1
  O  O24  1  0.70360500  0.27533400  0.12153300  1
  O  O25  1  0.29639500  0.77533400  0.37846700  1
  O  O26  1  0.29639500  0.72466600  0.87846700  1
  O  O27  1  0.70360500  0.22466600  0.62153300  1
  O  O28  1  0.77496500  0.09226600  0.95637500  1
  O  O29  1  0.22503500  0.59226600  0.54362500  1
  O  O30  1  0.22503500  0.90773400  0.04362500  1
  O  O31  1  0.77496500  0.40773400  0.45637500  1
  O  O32  1  0.72051800  0.59836900  0.01919600  1
  O  O33  1  0.27948200  0.09836900  0.48080400  1
  O  O34  1  0.27948200  0.40163100  0.98080400  1
  O  O35  1  0.72051800  0.90163100  0.51919600  1
  O  O36  1  0.60611800  0.32084500  0.93850300  1
  O  O37  1  0.39388200  0.82084500  0.56149700  1
  O  O38  1  0.39388200  0.67915500  0.06149700  1
  O  O39  1  0.60611800  0.17915500  0.43850300  1
  O  O40  1  0.79264400  0.41441200  0.85618900  1
  O  O41  1  0.20735600  0.91441200  0.64381100  1
  O  O42  1  0.20735600  0.58558800  0.14381100  1
  O  O43  1  0.89019800  0.13137000  0.53697100  1
  O  O44  1  0.89019800  0.36863000  0.03697100  1
  O  O45  1  0.10980200  0.86863000  0.46302900  1
  O  O46  1  0.10980200  0.63137000  0.96302900  1
  O  O47  1  0.79264400  0.08558800  0.35618900  1
