# generated using pymatgen
data_Sb5PO10
_symmetry_space_group_name_H-M   'P 1'
_cell_length_a   6.89831400
_cell_length_b   7.28101800
_cell_length_c   20.34541100
_cell_angle_alpha   90.00000000
_cell_angle_beta   90.00000000
_cell_angle_gamma   90.00000000
_symmetry_Int_Tables_number   1
_chemical_formula_structural   Sb5PO10
_chemical_formula_sum   'Sb20 P4 O40'
_cell_volume   1021.88383947
_cell_formula_units_Z   4
loop_
 _symmetry_equiv_pos_site_id
 _symmetry_equiv_pos_as_xyz
  1  'x, y, z'
loop_
 _atom_site_type_symbol
 _atom_site_label
 _atom_site_symmetry_multiplicity
 _atom_site_fract_x
 _atom_site_fract_y
 _atom_site_fract_z
 _atom_site_occupancy
  Sb  Sb0  1  0.10842300  0.53177100  0.49966400  1
  Sb  Sb1  1  0.60842300  0.96822900  0.50033600  1
  Sb  Sb2  1  0.89157700  0.03177100  0.00033600  1
  Sb  Sb3  1  0.39157700  0.46822900  0.99966400  1
  Sb  Sb4  1  0.91202700  0.73650400  0.35513000  1
  Sb  Sb5  1  0.41202700  0.76349600  0.64487000  1
  Sb  Sb6  1  0.08797300  0.23650400  0.14487000  1
  Sb  Sb7  1  0.58797300  0.26349600  0.85513000  1
  Sb  Sb8  1  0.35139700  0.02829200  0.33912000  1
  Sb  Sb9  1  0.85139700  0.47170800  0.66088000  1
  Sb  Sb10  1  0.64860300  0.52829200  0.16088000  1
  Sb  Sb11  1  0.14860300  0.97170800  0.83912000  1
  Sb  Sb12  1  0.59518700  0.01013400  0.19602600  1
  Sb  Sb13  1  0.09518700  0.48986600  0.80397400  1
  Sb  Sb14  1  0.40481300  0.51013400  0.30397400  1
  Sb  Sb15  1  0.90481300  0.98986600  0.69602600  1
  Sb  Sb16  1  0.87597300  0.22978000  0.31061000  1
  Sb  Sb17  1  0.37597300  0.27022000  0.68939000  1
  Sb  Sb18  1  0.12402700  0.72978000  0.18939000  1
  Sb  Sb19  1  0.62402700  0.77022000  0.81061000  1
  P  P20  1  0.09728800  0.09372400  0.52726700  1
  P  P21  1  0.59728800  0.40627600  0.47273300  1
  P  P22  1  0.90271200  0.59372400  0.97273300  1
  P  P23  1  0.40271200  0.90627600  0.02726700  1
  O  O24  1  0.28280100  0.97492200  0.52150700  1
  O  O25  1  0.78280100  0.52507800  0.47849300  1
  O  O26  1  0.71719900  0.47492200  0.97849300  1
  O  O27  1  0.21719900  0.02507800  0.02150700  1
  O  O28  1  0.42358100  0.52970200  0.49406800  1
  O  O29  1  0.92358100  0.97029800  0.50593200  1
  O  O30  1  0.57641900  0.02970200  0.00593200  1
  O  O31  1  0.07641900  0.47029800  0.99406800  1
  O  O32  1  0.03421900  0.98656000  0.34444400  1
  O  O33  1  0.53421900  0.51344000  0.65555600  1
  O  O34  1  0.96578100  0.48656000  0.15555600  1
  O  O35  1  0.46578100  0.01344000  0.84444400  1
  O  O36  1  0.65393300  0.41439500  0.25320700  1
  O  O37  1  0.15393300  0.08560500  0.74679300  1
  O  O38  1  0.34606700  0.91439500  0.24679300  1
  O  O39  1  0.11264100  0.25840000  0.47585300  1
  O  O40  1  0.84606700  0.58560500  0.75320700  1
  O  O41  1  0.57084400  0.32611000  0.40275100  1
  O  O42  1  0.92915600  0.67389000  0.90275100  1
  O  O43  1  0.42915600  0.82611000  0.09724900  1
  O  O44  1  0.12407100  0.62748400  0.40916500  1
  O  O45  1  0.62407100  0.87251600  0.59083500  1
  O  O46  1  0.87592900  0.12748400  0.09083500  1
  O  O47  1  0.37592900  0.37251600  0.90916500  1
  O  O48  1  0.76901400  0.23124300  0.70018600  1
  O  O49  1  0.26901400  0.26875700  0.29981400  1
  O  O50  1  0.23098600  0.73124300  0.79981400  1
  O  O51  1  0.73098600  0.76875700  0.20018600  1
  O  O52  1  0.84828600  0.95078200  0.79756200  1
  O  O53  1  0.34828600  0.54921800  0.20243800  1
  O  O54  1  0.15171400  0.45078200  0.70243800  1
  O  O55  1  0.65171400  0.04921800  0.29756200  1
  O  O56  1  0.56937900  0.86612200  0.71897400  1
  O  O57  1  0.06937900  0.63387800  0.28102600  1
  O  O58  1  0.43062100  0.36612200  0.78102600  1
  O  O59  1  0.93062100  0.13387800  0.21897400  1
  O  O60  1  0.38735900  0.74160000  0.97585300  1
  O  O61  1  0.88735900  0.75840000  0.02414700  1
  O  O62  1  0.61264100  0.24160000  0.52414700  1
  O  O63  1  0.07084400  0.17389000  0.59724900  1
