# generated using pymatgen
data_KH2N
_symmetry_space_group_name_H-M   'P 1'
_cell_length_a   4.62500700
_cell_length_b   3.82406100
_cell_length_c   6.28316708
_cell_angle_alpha   90.00000000
_cell_angle_beta   95.46110433
_cell_angle_gamma   90.00000000
_symmetry_Int_Tables_number   1
_chemical_formula_structural   KH2N
_chemical_formula_sum   'K2 H4 N2'
_cell_volume   110.62163655
_cell_formula_units_Z   2
loop_
 _symmetry_equiv_pos_site_id
 _symmetry_equiv_pos_as_xyz
  1  'x, y, z'
loop_
 _atom_site_type_symbol
 _atom_site_label
 _atom_site_symmetry_multiplicity
 _atom_site_fract_x
 _atom_site_fract_y
 _atom_site_fract_z
 _atom_site_occupancy
  K  K0  1  0.77615200  0.25000000  0.18662350  1
  K  K1  1  0.22384800  0.75000000  0.81337650  1
  H  H2  1  0.29694200  0.95724800  0.36862650  1
  H  H3  1  0.70305800  0.45724800  0.63137350  1
  H  H4  1  0.29694200  0.54275200  0.36862650  1
  H  H5  1  0.70305800  0.04275200  0.63137350  1
  N  N6  1  0.27251300  0.75000000  0.26306750  1
  N  N7  1  0.72748700  0.25000000  0.73693250  1
