# generated using pymatgen
data_K2In3CuSe6
_symmetry_space_group_name_H-M   'P 1'
_cell_length_a   11.66519400
_cell_length_b   11.66912000
_cell_length_c   21.72278683
_cell_angle_alpha   90.00000000
_cell_angle_beta   97.64999080
_cell_angle_gamma   90.00000000
_symmetry_Int_Tables_number   1
_chemical_formula_structural   K2In3CuSe6
_chemical_formula_sum   'K16 In24 Cu8 Se48'
_cell_volume   2930.64346803
_cell_formula_units_Z   8
loop_
 _symmetry_equiv_pos_site_id
 _symmetry_equiv_pos_as_xyz
  1  'x, y, z'
loop_
 _atom_site_type_symbol
 _atom_site_label
 _atom_site_symmetry_multiplicity
 _atom_site_fract_x
 _atom_site_fract_y
 _atom_site_fract_z
 _atom_site_occupancy
  K  K0  1  0.57863150  0.81615450  0.58323400  1
  K  K1  1  0.42136850  0.81615450  0.91676600  1
  K  K2  1  0.42136850  0.18384550  0.41676600  1
  K  K3  1  0.57863150  0.18384550  0.08323400  1
  K  K4  1  0.83805650  0.05803650  0.58312700  1
  K  K5  1  0.16194350  0.05803650  0.91687300  1
  K  K6  1  0.16194350  0.94196350  0.41687300  1
  K  K7  1  0.83805650  0.94196350  0.08312700  1
  K  K8  1  0.07863150  0.31615450  0.58323400  1
  K  K9  1  0.92136850  0.31615450  0.91676600  1
  K  K10  1  0.92136850  0.68384550  0.41676600  1
  K  K11  1  0.07863150  0.68384550  0.08323400  1
  K  K12  1  0.33805650  0.55803650  0.58312700  1
  K  K13  1  0.66194350  0.55803650  0.91687300  1
  K  K14  1  0.66194350  0.44196350  0.41687300  1
  K  K15  1  0.33805650  0.44196350  0.08312700  1
  In  In16  1  0.21659600  0.93743600  0.61499500  1
  In  In17  1  0.78340400  0.93743600  0.88500500  1
  In  In18  1  0.78340400  0.06256400  0.38500500  1
  In  In19  1  0.21659600  0.06256400  0.11499500  1
  In  In20  1  0.53393800  0.18773700  0.88477200  1
  In  In21  1  0.46606200  0.18773700  0.61522800  1
  In  In22  1  0.46606200  0.81226300  0.11522800  1
  In  In23  1  0.53393800  0.81226300  0.38477200  1
  In  In24  1  0.50000000  0.93885900  0.75000000  1
  In  In25  1  0.50000000  0.06114100  0.25000000  1
  In  In26  1  0.50000000  0.43651500  0.75000000  1
  In  In27  1  0.50000000  0.56348500  0.25000000  1
  In  In28  1  0.71659600  0.43743600  0.61499500  1
  In  In29  1  0.28340400  0.43743600  0.88500500  1
  In  In30  1  0.28340400  0.56256400  0.38500500  1
  In  In31  1  0.71659600  0.56256400  0.11499500  1
  In  In32  1  0.03393800  0.68773700  0.88477200  1
  In  In33  1  0.96606200  0.68773700  0.61522800  1
  In  In34  1  0.96606200  0.31226300  0.11522800  1
  In  In35  1  0.03393800  0.31226300  0.38477200  1
  In  In36  1  0.00000000  0.43885900  0.75000000  1
  In  In37  1  0.00000000  0.56114100  0.25000000  1
  In  In38  1  0.00000000  0.93651500  0.75000000  1
  In  In39  1  0.00000000  0.06348500  0.25000000  1
  Cu  Cu40  1  0.25068950  0.18752650  0.75004300  1
  Cu  Cu41  1  0.74931050  0.18752650  0.74995700  1
  Cu  Cu42  1  0.74931050  0.81247350  0.24995700  1
  Cu  Cu43  1  0.25068950  0.81247350  0.25004300  1
  Cu  Cu44  1  0.75068950  0.68752650  0.75004300  1
  Cu  Cu45  1  0.24931050  0.68752650  0.74995700  1
  Cu  Cu46  1  0.24931050  0.31247350  0.24995700  1
  Cu  Cu47  1  0.75068950  0.31247350  0.25004300  1
  Se  Se48  1  0.10482350  0.92215550  0.18031400  1
  Se  Se49  1  0.89517650  0.92215550  0.31968600  1
  Se  Se50  1  0.89517650  0.07784450  0.81968600  1
  Se  Se51  1  0.10482350  0.07784450  0.68031400  1
  Se  Se52  1  0.36075150  0.20292750  0.18031300  1
  Se  Se53  1  0.63924850  0.20292750  0.31968700  1
  Se  Se54  1  0.63924850  0.79707250  0.81968700  1
  Se  Se55  1  0.36075150  0.79707250  0.68031300  1
  Se  Se56  1  0.65848150  0.68456950  0.31927400  1
  Se  Se57  1  0.34151850  0.68456950  0.18072600  1
  Se  Se58  1  0.34151850  0.31543050  0.68072600  1
  Se  Se59  1  0.65848150  0.31543050  0.81927400  1
  Se  Se60  1  0.57548400  0.69050300  0.04020500  1
  Se  Se61  1  0.42451600  0.69050300  0.45979500  1
  Se  Se62  1  0.42451600  0.30949700  0.95979500  1
  Se  Se63  1  0.57548400  0.30949700  0.54020500  1
  Se  Se64  1  0.37638500  0.93992200  0.31942900  1
  Se  Se65  1  0.62361500  0.93992200  0.18057100  1
  Se  Se66  1  0.62361500  0.06007800  0.68057100  1
  Se  Se67  1  0.37638500  0.06007800  0.81942900  1
  Se  Se68  1  0.31953750  0.93402750  0.04003100  1
  Se  Se69  1  0.68046250  0.93402750  0.45996900  1
  Se  Se70  1  0.68046250  0.06597250  0.95996900  1
  Se  Se71  1  0.31953750  0.06597250  0.54003100  1
  Se  Se72  1  0.60482350  0.42215550  0.18031400  1
  Se  Se73  1  0.39517650  0.42215550  0.31968600  1
  Se  Se74  1  0.39517650  0.57784450  0.81968600  1
  Se  Se75  1  0.60482350  0.57784450  0.68031400  1
  Se  Se76  1  0.86075150  0.70292750  0.18031300  1
  Se  Se77  1  0.13924850  0.70292750  0.31968700  1
  Se  Se78  1  0.13924850  0.29707250  0.81968700  1
  Se  Se79  1  0.86075150  0.29707250  0.68031300  1
  Se  Se80  1  0.15848150  0.18456950  0.31927400  1
  Se  Se81  1  0.84151850  0.18456950  0.18072600  1
  Se  Se82  1  0.84151850  0.81543050  0.68072600  1
  Se  Se83  1  0.15848150  0.81543050  0.81927400  1
  Se  Se84  1  0.07548400  0.19050300  0.04020500  1
  Se  Se85  1  0.92451600  0.19050300  0.45979500  1
  Se  Se86  1  0.92451600  0.80949700  0.95979500  1
  Se  Se87  1  0.07548400  0.80949700  0.54020500  1
  Se  Se88  1  0.87638500  0.43992200  0.31942900  1
  Se  Se89  1  0.12361500  0.43992200  0.18057100  1
  Se  Se90  1  0.12361500  0.56007800  0.68057100  1
  Se  Se91  1  0.87638500  0.56007800  0.81942900  1
  Se  Se92  1  0.81953750  0.43402750  0.04003100  1
  Se  Se93  1  0.18046250  0.43402750  0.45996900  1
  Se  Se94  1  0.18046250  0.56597250  0.95996900  1
  Se  Se95  1  0.81953750  0.56597250  0.54003100  1
