# generated using pymatgen
data_Ba3Si5O13
_symmetry_space_group_name_H-M   'P 1'
_cell_length_a   14.03799100
_cell_length_b   4.78093600
_cell_length_c   20.51382891
_cell_angle_alpha   90.00000000
_cell_angle_beta   98.68637099
_cell_angle_gamma   90.00000000
_symmetry_Int_Tables_number   1
_chemical_formula_structural   Ba3Si5O13
_chemical_formula_sum   'Ba12 Si20 O52'
_cell_volume   1360.98833259
_cell_formula_units_Z   4
loop_
 _symmetry_equiv_pos_site_id
 _symmetry_equiv_pos_as_xyz
  1  'x, y, z'
loop_
 _atom_site_type_symbol
 _atom_site_label
 _atom_site_symmetry_multiplicity
 _atom_site_fract_x
 _atom_site_fract_y
 _atom_site_fract_z
 _atom_site_occupancy
  Ba  Ba0  1  0.56491800  0.24787100  0.59241300  1
  Ba  Ba1  1  0.93508200  0.74787100  0.40758700  1
  Ba  Ba2  1  0.43508200  0.75212900  0.40758700  1
  Ba  Ba3  1  0.06491800  0.25212900  0.59241300  1
  Ba  Ba4  1  0.70661300  0.70490400  0.77406200  1
  Ba  Ba5  1  0.79338700  0.20490400  0.22593800  1
  Ba  Ba6  1  0.29338700  0.29509600  0.22593800  1
  Ba  Ba7  1  0.20661300  0.79509600  0.77406200  1
  Ba  Ba8  1  0.84367800  0.27494700  0.94896100  1
  Ba  Ba9  1  0.65632200  0.77494700  0.05103900  1
  Ba  Ba10  1  0.15632200  0.72505300  0.05103900  1
  Ba  Ba11  1  0.34367800  0.22505300  0.94896100  1
  Si  Si12  1  0.81754200  0.17783500  0.51684700  1
  Si  Si13  1  0.68245800  0.67783500  0.48315300  1
  Si  Si14  1  0.18245800  0.82216500  0.48315300  1
  Si  Si15  1  0.31754200  0.32216500  0.51684700  1
  Si  Si16  1  0.83437600  0.17712000  0.67412700  1
  Si  Si17  1  0.66562400  0.67712000  0.32587300  1
  Si  Si18  1  0.16562400  0.82288000  0.32587300  1
  Si  Si19  1  0.33437600  0.32288000  0.67412700  1
  Si  Si20  1  0.96141900  0.68162300  0.71394800  1
  Si  Si21  1  0.53858100  0.18162300  0.28605200  1
  Si  Si22  1  0.03858100  0.31837700  0.28605200  1
  Si  Si23  1  0.46141900  0.81837700  0.71394800  1
  Si  Si24  1  0.97949400  0.79118200  0.86347400  1
  Si  Si25  1  0.52050600  0.29118200  0.13652600  1
  Si  Si26  1  0.02050600  0.20881800  0.13652600  1
  Si  Si27  1  0.47949400  0.70881800  0.86347400  1
  Si  Si28  1  0.10737500  0.29248200  0.90680200  1
  Si  Si29  1  0.39262500  0.79248200  0.09319800  1
  Si  Si30  1  0.89262500  0.70751800  0.09319800  1
  Si  Si31  1  0.60737500  0.20751800  0.90680200  1
  O  O32  1  0.78542600  0.85135400  0.49719800  1
  O  O33  1  0.71457400  0.35135400  0.50280200  1
  O  O34  1  0.21457400  0.14864600  0.50280200  1
  O  O35  1  0.28542600  0.64864600  0.49719800  1
  O  O36  1  0.90482500  0.26591200  0.47964000  1
  O  O37  1  0.59517500  0.76591200  0.52036000  1
  O  O38  1  0.09517500  0.73408800  0.52036000  1
  O  O39  1  0.40482500  0.23408800  0.47964000  1
  O  O40  1  0.85444800  0.19024600  0.59696600  1
  O  O41  1  0.64555200  0.69024600  0.40303400  1
  O  O42  1  0.14555200  0.80975400  0.40303400  1
  O  O43  1  0.35444800  0.30975400  0.59696600  1
  O  O44  1  0.72911500  0.26365000  0.68728800  1
  O  O45  1  0.77088500  0.76365000  0.31271200  1
  O  O46  1  0.27088500  0.73635000  0.31271200  1
  O  O47  1  0.22911500  0.23635000  0.68728800  1
  O  O48  1  0.85699600  0.85133300  0.69997100  1
  O  O49  1  0.64300400  0.35133300  0.30002900  1
  O  O50  1  0.14300400  0.14866700  0.30002900  1
  O  O51  1  0.35699600  0.64866700  0.69997100  1
  O  O52  1  0.01316600  0.74995800  0.79022700  1
  O  O53  1  0.92674200  0.35231700  0.71382700  1
  O  O54  1  0.07325800  0.64768300  0.28617300  1
  O  O55  1  0.42674200  0.14768300  0.71382700  1
  O  O56  1  0.03876200  0.74399500  0.66621900  1
  O  O57  1  0.46123800  0.24399500  0.33378100  1
  O  O58  1  0.96123800  0.25600500  0.33378100  1
  O  O59  1  0.53876200  0.75600500  0.66621900  1
  O  O60  1  0.86893800  0.72101200  0.86601000  1
  O  O61  1  0.63106200  0.22101200  0.13399000  1
  O  O62  1  0.13106200  0.27898800  0.13399000  1
  O  O63  1  0.36893800  0.77898800  0.86601000  1
  O  O64  1  0.66137800  0.28388400  0.98012900  1
  O  O65  1  0.83862200  0.78388400  0.01987100  1
  O  O66  1  0.33862200  0.71611600  0.01987100  1
  O  O67  1  0.16137800  0.21611600  0.98012900  1
  O  O68  1  0.67863500  0.22584100  0.85180400  1
  O  O69  1  0.82136500  0.72584100  0.14819600  1
  O  O70  1  0.32136500  0.77415900  0.14819600  1
  O  O71  1  0.17863500  0.27415900  0.85180400  1
  O  O72  1  0.56067300  0.88618300  0.91477100  1
  O  O73  1  0.93932700  0.38618300  0.08522900  1
  O  O74  1  0.43932700  0.11381700  0.08522900  1
  O  O75  1  0.06067300  0.61381700  0.91477100  1
  O  O76  1  0.50342900  0.38279800  0.88668700  1
  O  O77  1  0.99657100  0.88279800  0.11331300  1
  O  O78  1  0.49657100  0.61720200  0.11331300  1
  O  O79  1  0.00342900  0.11720200  0.88668700  1
  O  O80  1  0.51316600  0.75004200  0.79022700  1
  O  O81  1  0.98683400  0.25004200  0.20977300  1
  O  O82  1  0.48683400  0.24995800  0.20977300  1
  O  O83  1  0.57325800  0.85231700  0.28617300  1
