# generated using pymatgen
data_Zn(H2N)2
_symmetry_space_group_name_H-M   'P 1'
_cell_length_a   10.12823800
_cell_length_b   10.12823800
_cell_length_c   20.27216400
_cell_angle_alpha   90.00000000
_cell_angle_beta   90.00000000
_cell_angle_gamma   90.00000000
_symmetry_Int_Tables_number   1
_chemical_formula_structural   Zn(H2N)2
_chemical_formula_sum   'Zn32 H128 N64'
_cell_volume   2079.54301077
_cell_formula_units_Z   32
loop_
 _symmetry_equiv_pos_site_id
 _symmetry_equiv_pos_as_xyz
  1  'x, y, z'
loop_
 _atom_site_type_symbol
 _atom_site_label
 _atom_site_symmetry_multiplicity
 _atom_site_fract_x
 _atom_site_fract_y
 _atom_site_fract_z
 _atom_site_occupancy
  Zn  Zn0  1  0.11140400  0.37245100  0.31028500  1
  Zn  Zn1  1  0.37245100  0.11140400  0.18971500  1
  Zn  Zn2  1  0.62754900  0.88859600  0.18971500  1
  Zn  Zn3  1  0.11140400  0.12754900  0.43971500  1
  Zn  Zn4  1  0.88859600  0.87245100  0.43971500  1
  Zn  Zn5  1  0.12754900  0.11140400  0.06028500  1
  Zn  Zn6  1  0.87245100  0.88859600  0.06028500  1
  Zn  Zn7  1  0.88859600  0.62754900  0.31028500  1
  Zn  Zn8  1  0.38859600  0.62754900  0.43971500  1
  Zn  Zn9  1  0.62754900  0.38859600  0.06028500  1
  Zn  Zn10  1  0.37245100  0.61140400  0.06028500  1
  Zn  Zn11  1  0.38859600  0.87245100  0.31028500  1
  Zn  Zn12  1  0.61140400  0.12754900  0.31028500  1
  Zn  Zn13  1  0.87245100  0.38859600  0.18971500  1
  Zn  Zn14  1  0.12754900  0.61140400  0.18971500  1
  Zn  Zn15  1  0.61140400  0.37245100  0.43971500  1
  Zn  Zn16  1  0.61140400  0.87245100  0.81028500  1
  Zn  Zn17  1  0.87245100  0.61140400  0.68971500  1
  Zn  Zn18  1  0.12754900  0.38859600  0.68971500  1
  Zn  Zn19  1  0.61140400  0.62754900  0.93971500  1
  Zn  Zn20  1  0.38859600  0.37245100  0.93971500  1
  Zn  Zn21  1  0.62754900  0.61140400  0.56028500  1
  Zn  Zn22  1  0.37245100  0.38859600  0.56028500  1
  Zn  Zn23  1  0.38859600  0.12754900  0.81028500  1
  Zn  Zn24  1  0.88859600  0.12754900  0.93971500  1
  Zn  Zn25  1  0.12754900  0.88859600  0.56028500  1
  Zn  Zn26  1  0.87245100  0.11140400  0.56028500  1
  Zn  Zn27  1  0.88859600  0.37245100  0.81028500  1
  Zn  Zn28  1  0.11140400  0.62754900  0.81028500  1
  Zn  Zn29  1  0.37245100  0.88859600  0.68971500  1
  Zn  Zn30  1  0.62754900  0.11140400  0.68971500  1
  Zn  Zn31  1  0.11140400  0.87245100  0.93971500  1
  H  H32  1  0.71379800  0.07556300  0.02862800  1
  H  H33  1  0.07556300  0.71379800  0.47137200  1
  H  H34  1  0.92443700  0.28620200  0.47137200  1
  H  H35  1  0.21379800  0.92443700  0.22137200  1
  H  H36  1  0.78620200  0.07556300  0.22137200  1
  H  H37  1  0.92443700  0.21379800  0.27862800  1
  H  H38  1  0.07556300  0.78620200  0.27862800  1
  H  H39  1  0.28620200  0.92443700  0.02862800  1
  H  H40  1  0.28620200  0.42443700  0.22137200  1
  H  H41  1  0.42443700  0.28620200  0.27862800  1
  H  H42  1  0.57556300  0.71379800  0.27862800  1
  H  H43  1  0.78620200  0.57556300  0.02862800  1
  H  H44  1  0.21379800  0.42443700  0.02862800  1
  H  H45  1  0.57556300  0.78620200  0.47137200  1
  H  H46  1  0.42443700  0.21379800  0.47137200  1
  H  H47  1  0.71379800  0.57556300  0.22137200  1
  H  H48  1  0.53774400  0.79857200  0.02687600  1
  H  H49  1  0.79857200  0.53774400  0.47312400  1
  H  H50  1  0.20142800  0.46225600  0.47312400  1
  H  H51  1  0.03774400  0.20142800  0.22312400  1
  H  H52  1  0.96225600  0.79857200  0.22312400  1
  H  H53  1  0.20142800  0.03774400  0.27687600  1
  H  H54  1  0.79857200  0.96225600  0.27687600  1
  H  H55  1  0.46225600  0.20142800  0.02687600  1
  H  H56  1  0.46225600  0.70142800  0.22312400  1
  H  H57  1  0.70142800  0.46225600  0.27687600  1
  H  H58  1  0.29857200  0.53774400  0.27687600  1
  H  H59  1  0.55292450  0.05952150  0.10426250  1
  H  H60  1  0.96225600  0.29857200  0.02687600  1
  H  H61  1  0.29857200  0.96225600  0.47312400  1
  H  H62  1  0.70142800  0.03774400  0.47312400  1
  H  H63  1  0.53774400  0.29857200  0.22312400  1
  H  H64  1  0.27587300  0.30931400  0.40151000  1
  H  H65  1  0.30931400  0.27587300  0.09849000  1
  H  H66  1  0.69068600  0.72412700  0.09849000  1
  H  H67  1  0.27587300  0.19068600  0.34849000  1
  H  H68  1  0.72412700  0.80931400  0.34849000  1
  H  H69  1  0.19068600  0.27587300  0.15151000  1
  H  H70  1  0.80931400  0.72412700  0.15151000  1
  H  H71  1  0.72412700  0.69068600  0.40151000  1
  H  H72  1  0.22412700  0.69068600  0.34849000  1
  H  H73  1  0.69068600  0.22412700  0.15151000  1
  H  H74  1  0.30931400  0.77587300  0.15151000  1
  H  H75  1  0.22412700  0.80931400  0.40151000  1
  H  H76  1  0.77587300  0.19068600  0.40151000  1
  H  H77  1  0.80931400  0.22412700  0.09849000  1
  H  H78  1  0.19068600  0.77587300  0.09849000  1
  H  H79  1  0.77587300  0.30931400  0.34849000  1
  H  H80  1  0.55292450  0.55952150  0.14573750  1
  H  H81  1  0.44047850  0.05292450  0.39573750  1
  H  H82  1  0.55952150  0.94707550  0.39573750  1
  H  H83  1  0.05292450  0.44047850  0.10426250  1
  H  H84  1  0.94707550  0.55952150  0.10426250  1
  H  H85  1  0.55952150  0.55292450  0.35426250  1
  H  H86  1  0.44047850  0.44707550  0.35426250  1
  H  H87  1  0.44707550  0.44047850  0.14573750  1
  H  H88  1  0.44707550  0.94047850  0.10426250  1
  H  H89  1  0.05952150  0.94707550  0.35426250  1
  H  H90  1  0.94047850  0.05292450  0.35426250  1
  H  H91  1  0.94707550  0.05952150  0.14573750  1
  H  H92  1  0.05292450  0.94047850  0.14573750  1
  H  H93  1  0.94047850  0.44707550  0.39573750  1
  H  H94  1  0.05952150  0.55292450  0.39573750  1
  H  H95  1  0.03774400  0.70142800  0.02687600  1
  H  H96  1  0.21379800  0.57556300  0.52862800  1
  H  H97  1  0.57556300  0.21379800  0.97137200  1
  H  H98  1  0.42443700  0.78620200  0.97137200  1
  H  H99  1  0.71379800  0.42443700  0.72137200  1
  H  H100  1  0.28620200  0.57556300  0.72137200  1
  H  H101  1  0.42443700  0.71379800  0.77862800  1
  H  H102  1  0.57556300  0.28620200  0.77862800  1
  H  H103  1  0.78620200  0.42443700  0.52862800  1
  H  H104  1  0.78620200  0.92443700  0.72137200  1
  H  H105  1  0.92443700  0.78620200  0.77862800  1
  H  H106  1  0.07556300  0.21379800  0.77862800  1
  H  H107  1  0.28620200  0.07556300  0.52862800  1
  H  H108  1  0.71379800  0.92443700  0.52862800  1
  H  H109  1  0.07556300  0.28620200  0.97137200  1
  H  H110  1  0.92443700  0.71379800  0.97137200  1
  H  H111  1  0.21379800  0.07556300  0.72137200  1
  H  H112  1  0.03774400  0.29857200  0.52687600  1
  H  H113  1  0.29857200  0.03774400  0.97312400  1
  H  H114  1  0.70142800  0.96225600  0.97312400  1
  H  H115  1  0.53774400  0.70142800  0.72312400  1
  H  H116  1  0.46225600  0.29857200  0.72312400  1
  H  H117  1  0.70142800  0.53774400  0.77687600  1
  H  H118  1  0.29857200  0.46225600  0.77687600  1
  H  H119  1  0.96225600  0.70142800  0.52687600  1
  H  H120  1  0.96225600  0.20142800  0.72312400  1
  H  H121  1  0.20142800  0.96225600  0.77687600  1
  H  H122  1  0.79857200  0.03774400  0.77687600  1
  H  H123  1  0.05292450  0.55952150  0.60426250  1
  H  H124  1  0.46225600  0.79857200  0.52687600  1
  H  H125  1  0.79857200  0.46225600  0.97312400  1
  H  H126  1  0.20142800  0.53774400  0.97312400  1
  H  H127  1  0.03774400  0.79857200  0.72312400  1
  H  H128  1  0.77587300  0.80931400  0.90151000  1
  H  H129  1  0.80931400  0.77587300  0.59849000  1
  H  H130  1  0.19068600  0.22412700  0.59849000  1
  H  H131  1  0.77587300  0.69068600  0.84849000  1
  H  H132  1  0.22412700  0.30931400  0.84849000  1
  H  H133  1  0.69068600  0.77587300  0.65151000  1
  H  H134  1  0.30931400  0.22412700  0.65151000  1
  H  H135  1  0.22412700  0.19068600  0.90151000  1
  H  H136  1  0.72412700  0.19068600  0.84849000  1
  H  H137  1  0.19068600  0.72412700  0.65151000  1
  H  H138  1  0.80931400  0.27587300  0.65151000  1
  H  H139  1  0.72412700  0.30931400  0.90151000  1
  H  H140  1  0.27587300  0.69068600  0.90151000  1
  H  H141  1  0.30931400  0.72412700  0.59849000  1
  H  H142  1  0.69068600  0.27587300  0.59849000  1
  H  H143  1  0.27587300  0.80931400  0.84849000  1
  H  H144  1  0.05292450  0.05952150  0.64573750  1
  H  H145  1  0.94047850  0.55292450  0.89573750  1
  H  H146  1  0.05952150  0.44707550  0.89573750  1
  H  H147  1  0.55292450  0.94047850  0.60426250  1
  H  H148  1  0.44707550  0.05952150  0.60426250  1
  H  H149  1  0.05952150  0.05292450  0.85426250  1
  H  H150  1  0.94047850  0.94707550  0.85426250  1
  H  H151  1  0.94707550  0.94047850  0.64573750  1
  H  H152  1  0.94707550  0.44047850  0.60426250  1
  H  H153  1  0.55952150  0.44707550  0.85426250  1
  H  H154  1  0.44047850  0.55292450  0.85426250  1
  H  H155  1  0.44707550  0.55952150  0.64573750  1
  H  H156  1  0.55292450  0.44047850  0.64573750  1
  H  H157  1  0.44047850  0.94707550  0.89573750  1
  H  H158  1  0.55952150  0.05292450  0.89573750  1
  H  H159  1  0.53774400  0.20142800  0.52687600  1
  N  N160  1  0.26983850  0.51423850  0.49980950  1
  N  N161  1  0.51423850  0.26983850  0.00019050  1
  N  N162  1  0.48576150  0.73016150  0.00019050  1
  N  N163  1  0.26983850  0.98576150  0.25019050  1
  N  N164  1  0.73016150  0.01423850  0.25019050  1
  N  N165  1  0.98576150  0.26983850  0.24980950  1
  N  N166  1  0.01423850  0.73016150  0.24980950  1
  N  N167  1  0.73016150  0.48576150  0.49980950  1
  N  N168  1  0.23016150  0.48576150  0.25019050  1
  N  N169  1  0.48576150  0.23016150  0.24980950  1
  N  N170  1  0.51423850  0.76983850  0.24980950  1
  N  N171  1  0.23016150  0.01423850  0.49980950  1
  N  N172  1  0.76983850  0.98576150  0.49980950  1
  N  N173  1  0.01423850  0.23016150  0.00019050  1
  N  N174  1  0.98576150  0.76983850  0.00019050  1
  N  N175  1  0.76983850  0.51423850  0.25019050  1
  N  N176  1  0.21335750  0.25000000  0.37500000  1
  N  N177  1  0.25000000  0.21335750  0.12500000  1
  N  N178  1  0.75000000  0.78664250  0.12500000  1
  N  N179  1  0.78664250  0.75000000  0.37500000  1
  N  N180  1  0.28664250  0.75000000  0.37500000  1
  N  N181  1  0.75000000  0.28664250  0.12500000  1
  N  N182  1  0.25000000  0.71335750  0.12500000  1
  N  N183  1  0.71335750  0.25000000  0.37500000  1
  N  N184  1  0.50000000  0.00000000  0.13536050  1
  N  N185  1  0.00000000  0.00000000  0.38536050  1
  N  N186  1  0.00000000  0.00000000  0.11463950  1
  N  N187  1  0.00000000  0.50000000  0.36463950  1
  N  N188  1  0.50000000  0.50000000  0.11463950  1
  N  N189  1  0.50000000  0.00000000  0.36463950  1
  N  N190  1  0.00000000  0.50000000  0.13536050  1
  N  N191  1  0.50000000  0.50000000  0.38536050  1
  N  N192  1  0.76983850  0.01423850  0.99980950  1
  N  N193  1  0.01423850  0.76983850  0.50019050  1
  N  N194  1  0.98576150  0.23016150  0.50019050  1
  N  N195  1  0.76983850  0.48576150  0.75019050  1
  N  N196  1  0.23016150  0.51423850  0.75019050  1
  N  N197  1  0.48576150  0.76983850  0.74980950  1
  N  N198  1  0.51423850  0.23016150  0.74980950  1
  N  N199  1  0.23016150  0.98576150  0.99980950  1
  N  N200  1  0.73016150  0.98576150  0.75019050  1
  N  N201  1  0.98576150  0.73016150  0.74980950  1
  N  N202  1  0.01423850  0.26983850  0.74980950  1
  N  N203  1  0.73016150  0.51423850  0.99980950  1
  N  N204  1  0.26983850  0.48576150  0.99980950  1
  N  N205  1  0.51423850  0.73016150  0.50019050  1
  N  N206  1  0.48576150  0.26983850  0.50019050  1
  N  N207  1  0.26983850  0.01423850  0.75019050  1
  N  N208  1  0.71335750  0.75000000  0.87500000  1
  N  N209  1  0.75000000  0.71335750  0.62500000  1
  N  N210  1  0.25000000  0.28664250  0.62500000  1
  N  N211  1  0.28664250  0.25000000  0.87500000  1
  N  N212  1  0.78664250  0.25000000  0.87500000  1
  N  N213  1  0.25000000  0.78664250  0.62500000  1
  N  N214  1  0.75000000  0.21335750  0.62500000  1
  N  N215  1  0.21335750  0.75000000  0.87500000  1
  N  N216  1  0.00000000  0.50000000  0.63536050  1
  N  N217  1  0.50000000  0.50000000  0.88536050  1
  N  N218  1  0.50000000  0.50000000  0.61463950  1
  N  N219  1  0.50000000  0.00000000  0.86463950  1
  N  N220  1  0.00000000  0.00000000  0.61463950  1
  N  N221  1  0.00000000  0.50000000  0.86463950  1
  N  N222  1  0.50000000  0.00000000  0.63536050  1
  N  N223  1  0.00000000  0.00000000  0.88536050  1
