# generated using pymatgen
data_CsAuI3
_symmetry_space_group_name_H-M   'P 1'
_cell_length_a   8.45466400
_cell_length_b   8.45466400
_cell_length_c   12.52251600
_cell_angle_alpha   90.00000000
_cell_angle_beta   90.00000000
_cell_angle_gamma   90.00000000
_symmetry_Int_Tables_number   1
_chemical_formula_structural   CsAuI3
_chemical_formula_sum   'Cs4 Au4 I12'
_cell_volume   895.12626584
_cell_formula_units_Z   4
loop_
 _symmetry_equiv_pos_site_id
 _symmetry_equiv_pos_as_xyz
  1  'x, y, z'
loop_
 _atom_site_type_symbol
 _atom_site_label
 _atom_site_symmetry_multiplicity
 _atom_site_fract_x
 _atom_site_fract_y
 _atom_site_fract_z
 _atom_site_occupancy
  Cs  Cs0  1  0.00000000  0.50000000  0.25000000  1
  Cs  Cs1  1  0.50000000  0.00000000  0.25000000  1
  Cs  Cs2  1  0.50000000  0.00000000  0.75000000  1
  Cs  Cs3  1  0.00000000  0.50000000  0.75000000  1
  Au  Au4  1  0.50000000  0.50000000  0.00000000  1
  Au  Au5  1  0.00000000  0.00000000  0.00000000  1
  Au  Au6  1  0.00000000  0.00000000  0.50000000  1
  Au  Au7  1  0.50000000  0.50000000  0.50000000  1
  I  I8  1  0.77340400  0.77340400  0.00000000  1
  I  I9  1  0.50000000  0.50000000  0.20998300  1
  I  I10  1  0.22659600  0.22659600  0.00000000  1
  I  I11  1  0.00000000  0.00000000  0.29001700  1
  I  I12  1  0.22659600  0.77340400  0.00000000  1
  I  I13  1  0.77340400  0.22659600  0.00000000  1
  I  I14  1  0.27340400  0.27340400  0.50000000  1
  I  I15  1  0.00000000  0.00000000  0.70998300  1
  I  I16  1  0.72659600  0.72659600  0.50000000  1
  I  I17  1  0.50000000  0.50000000  0.79001700  1
  I  I18  1  0.72659600  0.27340400  0.50000000  1
  I  I19  1  0.27340400  0.72659600  0.50000000  1
