# generated using pymatgen
data_TlAuCl4
_symmetry_space_group_name_H-M   'P 1'
_cell_length_a   12.52088000
_cell_length_b   5.93938800
_cell_length_c   10.22052062
_cell_angle_alpha   90.00000000
_cell_angle_beta   101.33982236
_cell_angle_gamma   90.00000000
_symmetry_Int_Tables_number   1
_chemical_formula_structural   TlAuCl4
_chemical_formula_sum   'Tl4 Au4 Cl16'
_cell_volume   745.22518913
_cell_formula_units_Z   4
loop_
 _symmetry_equiv_pos_site_id
 _symmetry_equiv_pos_as_xyz
  1  'x, y, z'
loop_
 _atom_site_type_symbol
 _atom_site_label
 _atom_site_symmetry_multiplicity
 _atom_site_fract_x
 _atom_site_fract_y
 _atom_site_fract_z
 _atom_site_occupancy
  Tl  Tl0  1  0.00000000  0.77296900  0.25000000  1
  Tl  Tl1  1  0.00000000  0.22703100  0.75000000  1
  Tl  Tl2  1  0.50000000  0.27296900  0.25000000  1
  Tl  Tl3  1  0.50000000  0.72703100  0.75000000  1
  Au  Au4  1  0.75000000  0.25000000  0.00000000  1
  Au  Au5  1  0.75000000  0.75000000  0.50000000  1
  Au  Au6  1  0.25000000  0.75000000  0.00000000  1
  Au  Au7  1  0.25000000  0.25000000  0.50000000  1
  Cl  Cl8  1  0.73319900  0.53901100  0.14809900  1
  Cl  Cl9  1  0.76680100  0.03901100  0.35190100  1
  Cl  Cl10  1  0.76680100  0.96098900  0.85190100  1
  Cl  Cl11  1  0.73319900  0.46098900  0.64809900  1
  Cl  Cl12  1  0.93787100  0.74049600  0.56790700  1
  Cl  Cl13  1  0.56212900  0.24049600  0.93209300  1
  Cl  Cl14  1  0.56212900  0.75950400  0.43209300  1
  Cl  Cl15  1  0.93787100  0.25950400  0.06790700  1
  Cl  Cl16  1  0.23319900  0.03901100  0.14809900  1
  Cl  Cl17  1  0.26680100  0.53901100  0.35190100  1
  Cl  Cl18  1  0.26680100  0.46098900  0.85190100  1
  Cl  Cl19  1  0.23319900  0.96098900  0.64809900  1
  Cl  Cl20  1  0.43787100  0.24049600  0.56790700  1
  Cl  Cl21  1  0.06212900  0.74049600  0.93209300  1
  Cl  Cl22  1  0.06212900  0.25950400  0.43209300  1
  Cl  Cl23  1  0.43787100  0.75950400  0.06790700  1
