# generated using pymatgen
data_CrCl3
_symmetry_space_group_name_H-M   'P 1'
_cell_length_a   6.06090600
_cell_length_b   10.49594800
_cell_length_c   6.58075245
_cell_angle_alpha   90.00000000
_cell_angle_beta   107.38163024
_cell_angle_gamma   90.00000000
_symmetry_Int_Tables_number   1
_chemical_formula_structural   CrCl3
_chemical_formula_sum   'Cr4 Cl12'
_cell_volume   399.51781617
_cell_formula_units_Z   4
loop_
 _symmetry_equiv_pos_site_id
 _symmetry_equiv_pos_as_xyz
  1  'x, y, z'
loop_
 _atom_site_type_symbol
 _atom_site_label
 _atom_site_symmetry_multiplicity
 _atom_site_fract_x
 _atom_site_fract_y
 _atom_site_fract_z
 _atom_site_occupancy
  Cr  Cr0  1  0.50000000  0.33331900  0.00000000  1
  Cr  Cr1  1  0.50000000  0.66668100  0.00000000  1
  Cr  Cr2  1  0.00000000  0.83331900  0.00000000  1
  Cr  Cr3  1  0.00000000  0.16668100  0.00000000  1
  Cl  Cl4  1  0.25141550  0.17973450  0.78755800  1
  Cl  Cl5  1  0.74858450  0.17973450  0.21244200  1
  Cl  Cl6  1  0.79087800  0.00000000  0.78687400  1
  Cl  Cl7  1  0.20912200  0.00000000  0.21312600  1
  Cl  Cl8  1  0.25141550  0.82026550  0.78755800  1
  Cl  Cl9  1  0.74858450  0.82026550  0.21244200  1
  Cl  Cl10  1  0.75141550  0.67973450  0.78755800  1
  Cl  Cl11  1  0.24858450  0.67973450  0.21244200  1
  Cl  Cl12  1  0.29087800  0.50000000  0.78687400  1
  Cl  Cl13  1  0.70912200  0.50000000  0.21312600  1
  Cl  Cl14  1  0.75141550  0.32026550  0.78755800  1
  Cl  Cl15  1  0.24858450  0.32026550  0.21244200  1
