# generated using pymatgen
data_SrH2Br2O7
_symmetry_space_group_name_H-M   'P 1'
_cell_length_a   13.07614800
_cell_length_b   7.79252000
_cell_length_c   9.00518380
_cell_angle_alpha   90.00000000
_cell_angle_beta   133.03221824
_cell_angle_gamma   90.00000000
_symmetry_Int_Tables_number   1
_chemical_formula_structural   SrH2Br2O7
_chemical_formula_sum   'Sr4 H8 Br8 O28'
_cell_volume   670.73341115
_cell_formula_units_Z   4
loop_
 _symmetry_equiv_pos_site_id
 _symmetry_equiv_pos_as_xyz
  1  'x, y, z'
loop_
 _atom_site_type_symbol
 _atom_site_label
 _atom_site_symmetry_multiplicity
 _atom_site_fract_x
 _atom_site_fract_y
 _atom_site_fract_z
 _atom_site_occupancy
  Sr  Sr0  1  0.50000000  0.85143400  0.75000000  1
  Sr  Sr1  1  0.00000000  0.64856600  0.25000000  1
  Sr  Sr2  1  0.00000000  0.35143400  0.75000000  1
  Sr  Sr3  1  0.50000000  0.14856600  0.25000000  1
  H  H4  1  0.96610900  0.74868500  0.63473300  1
  H  H5  1  0.53389100  0.24868500  0.86526700  1
  H  H6  1  0.53389100  0.75131500  0.36526700  1
  H  H7  1  0.96610900  0.25131500  0.13473300  1
  H  H8  1  0.46610900  0.24868500  0.63473300  1
  H  H9  1  0.03389100  0.74868500  0.86526700  1
  H  H10  1  0.03389100  0.25131500  0.36526700  1
  H  H11  1  0.46610900  0.75131500  0.13473300  1
  Br  Br12  1  0.80795550  0.97814750  0.80453600  1
  Br  Br13  1  0.19204450  0.97814750  0.69546400  1
  Br  Br14  1  0.69204450  0.52185250  0.19546400  1
  Br  Br15  1  0.30795550  0.52185250  0.30453600  1
  Br  Br16  1  0.30795550  0.47814750  0.80453600  1
  Br  Br17  1  0.69204450  0.47814750  0.69546400  1
  Br  Br18  1  0.19204450  0.02185250  0.19546400  1
  Br  Br19  1  0.80795550  0.02185250  0.30453600  1
  O  O20  1  0.50000000  0.17588400  0.75000000  1
  O  O21  1  0.00000000  0.32411600  0.25000000  1
  O  O22  1  0.31198550  0.58888650  0.48705800  1
  O  O23  1  0.68801450  0.58888650  0.01294200  1
  O  O24  1  0.18801450  0.91111350  0.51294200  1
  O  O25  1  0.81198550  0.91111350  0.98705800  1
  O  O26  1  0.90582400  0.83898300  0.39976800  1
  O  O27  1  0.09417600  0.83898300  0.10023200  1
  O  O28  1  0.59417600  0.66101700  0.60023200  1
  O  O29  1  0.40582400  0.66101700  0.89976800  1
  O  O30  1  0.14279450  0.45319350  0.12191800  1
  O  O31  1  0.35720550  0.95319350  0.37808200  1
  O  O32  1  0.35720550  0.04680650  0.87808200  1
  O  O33  1  0.14279450  0.54680650  0.62191800  1
  O  O34  1  0.00000000  0.67588400  0.75000000  1
  O  O35  1  0.50000000  0.82411600  0.25000000  1
  O  O36  1  0.81198550  0.08888650  0.48705800  1
  O  O37  1  0.18801450  0.08888650  0.01294200  1
  O  O38  1  0.68801450  0.41111350  0.51294200  1
  O  O39  1  0.31198550  0.41111350  0.98705800  1
  O  O40  1  0.40582400  0.33898300  0.39976800  1
  O  O41  1  0.59417600  0.33898300  0.10023200  1
  O  O42  1  0.09417600  0.16101700  0.60023200  1
  O  O43  1  0.90582400  0.16101700  0.89976800  1
  O  O44  1  0.64279450  0.95319350  0.12191800  1
  O  O45  1  0.85720550  0.45319350  0.37808200  1
  O  O46  1  0.85720550  0.54680650  0.87808200  1
  O  O47  1  0.64279450  0.04680650  0.62191800  1
