# generated using pymatgen
data_InPS4
_symmetry_space_group_name_H-M   'P 1'
_cell_length_a   5.77213000
_cell_length_b   5.77213000
_cell_length_c   9.26821800
_cell_angle_alpha   90.00000000
_cell_angle_beta   90.00000000
_cell_angle_gamma   90.00000000
_symmetry_Int_Tables_number   1
_chemical_formula_structural   InPS4
_chemical_formula_sum   'In2 P2 S8'
_cell_volume   308.79371175
_cell_formula_units_Z   2
loop_
 _symmetry_equiv_pos_site_id
 _symmetry_equiv_pos_as_xyz
  1  'x, y, z'
loop_
 _atom_site_type_symbol
 _atom_site_label
 _atom_site_symmetry_multiplicity
 _atom_site_fract_x
 _atom_site_fract_y
 _atom_site_fract_z
 _atom_site_occupancy
  In  In0  1  0.00000000  0.00000000  0.00000000  1
  In  In1  1  0.50000000  0.50000000  0.50000000  1
  P  P2  1  0.00000000  0.50000000  0.25000000  1
  P  P3  1  0.50000000  0.00000000  0.75000000  1
  S  S4  1  0.80530050  0.26856850  0.36819950  1
  S  S5  1  0.19469950  0.73143150  0.36819950  1
  S  S6  1  0.23143150  0.30530050  0.13180050  1
  S  S7  1  0.76856850  0.69469950  0.13180050  1
  S  S8  1  0.30530050  0.76856850  0.86819950  1
  S  S9  1  0.69469950  0.23143150  0.86819950  1
  S  S10  1  0.73143150  0.80530050  0.63180050  1
  S  S11  1  0.26856850  0.19469950  0.63180050  1
