# generated using pymatgen
data_Na3AsH18Se4O9
_symmetry_space_group_name_H-M   'P 1'
_cell_length_a   12.22436300
_cell_length_b   12.22436300
_cell_length_c   12.22436300
_cell_angle_alpha   90.00000000
_cell_angle_beta   90.00000000
_cell_angle_gamma   90.00000000
_symmetry_Int_Tables_number   1
_chemical_formula_structural   Na3AsH18Se4O9
_chemical_formula_sum   'Na12 As4 H72 Se16 O36'
_cell_volume   1826.74830536
_cell_formula_units_Z   4
loop_
 _symmetry_equiv_pos_site_id
 _symmetry_equiv_pos_as_xyz
  1  'x, y, z'
loop_
 _atom_site_type_symbol
 _atom_site_label
 _atom_site_symmetry_multiplicity
 _atom_site_fract_x
 _atom_site_fract_y
 _atom_site_fract_z
 _atom_site_occupancy
  Na  Na0  1  0.39980700  0.10019300  0.89980700  1
  Na  Na1  1  0.10019300  0.89980700  0.39980700  1
  Na  Na2  1  0.89980700  0.39980700  0.10019300  1
  Na  Na3  1  0.60019300  0.60019300  0.60019300  1
  Na  Na4  1  0.55061200  0.94938800  0.05061200  1
  Na  Na5  1  0.94938800  0.05061200  0.55061200  1
  Na  Na6  1  0.05061200  0.55061200  0.94938800  1
  Na  Na7  1  0.29177400  0.29177400  0.29177400  1
  Na  Na8  1  0.44938800  0.44938800  0.44938800  1
  Na  Na9  1  0.79177400  0.20822600  0.70822600  1
  Na  Na10  1  0.20822600  0.70822600  0.79177400  1
  Na  Na11  1  0.70822600  0.79177400  0.20822600  1
  As  As12  1  0.46072300  0.96072300  0.53927700  1
  As  As13  1  0.53927700  0.46072300  0.96072300  1
  As  As14  1  0.96072300  0.53927700  0.46072300  1
  As  As15  1  0.03927700  0.03927700  0.03927700  1
  H  H16  1  0.43578400  0.69324100  0.87769300  1
  H  H17  1  0.93578400  0.80675900  0.12230700  1
  H  H18  1  0.56421600  0.19324100  0.62230700  1
  H  H19  1  0.80675900  0.12230700  0.93578400  1
  H  H20  1  0.62230700  0.56421600  0.19324100  1
  H  H21  1  0.12230700  0.93578400  0.80675900  1
  H  H22  1  0.69324100  0.87769300  0.43578400  1
  H  H23  1  0.87769300  0.43578400  0.69324100  1
  H  H24  1  0.19324100  0.62230700  0.56421600  1
  H  H25  1  0.30675900  0.37769300  0.06421600  1
  H  H26  1  0.37769300  0.06421600  0.30675900  1
  H  H27  1  0.06421600  0.30675900  0.37769300  1
  H  H28  1  0.44874100  0.77327500  0.77750900  1
  H  H29  1  0.94874100  0.72672500  0.22249100  1
  H  H30  1  0.55125900  0.27327500  0.72249100  1
  H  H31  1  0.72672500  0.22249100  0.94874100  1
  H  H32  1  0.72249100  0.55125900  0.27327500  1
  H  H33  1  0.22249100  0.94874100  0.72672500  1
  H  H34  1  0.77327500  0.77750900  0.44874100  1
  H  H35  1  0.77750900  0.44874100  0.77327500  1
  H  H36  1  0.27327500  0.72249100  0.55125900  1
  H  H37  1  0.22672500  0.27750900  0.05125900  1
  H  H38  1  0.27750900  0.05125900  0.22672500  1
  H  H39  1  0.05125900  0.22672500  0.27750900  1
  H  H40  1  0.32877900  0.24026100  0.53596800  1
  H  H41  1  0.82877900  0.25973900  0.46403200  1
  H  H42  1  0.67122100  0.74026100  0.96403200  1
  H  H43  1  0.25973900  0.46403200  0.82877900  1
  H  H44  1  0.96403200  0.67122100  0.74026100  1
  H  H45  1  0.46403200  0.82877900  0.25973900  1
  H  H46  1  0.24026100  0.53596800  0.32877900  1
  H  H47  1  0.53596800  0.32877900  0.24026100  1
  H  H48  1  0.74026100  0.96403200  0.67122100  1
  H  H49  1  0.75973900  0.03596800  0.17122100  1
  H  H50  1  0.19456200  0.08262500  0.51675600  1
  H  H51  1  0.03596800  0.17122100  0.75973900  1
  H  H52  1  0.24839300  0.33942600  0.51699900  1
  H  H53  1  0.74839300  0.16057400  0.48300100  1
  H  H54  1  0.75160700  0.83942600  0.98300100  1
  H  H55  1  0.16057400  0.48300100  0.74839300  1
  H  H56  1  0.98300100  0.75160700  0.83942600  1
  H  H57  1  0.48300100  0.74839300  0.16057400  1
  H  H58  1  0.33942600  0.51699900  0.24839300  1
  H  H59  1  0.51699900  0.24839300  0.33942600  1
  H  H60  1  0.83942600  0.98300100  0.75160700  1
  H  H61  1  0.66057400  0.01699900  0.25160700  1
  H  H62  1  0.01699900  0.25160700  0.66057400  1
  H  H63  1  0.25160700  0.66057400  0.01699900  1
  H  H64  1  0.57810000  0.62777200  0.35801600  1
  H  H65  1  0.07810000  0.87222800  0.64198400  1
  H  H66  1  0.42190000  0.12777200  0.14198400  1
  H  H67  1  0.87222800  0.64198400  0.07810000  1
  H  H68  1  0.14198400  0.42190000  0.12777200  1
  H  H69  1  0.64198400  0.07810000  0.87222800  1
  H  H70  1  0.62777200  0.35801600  0.57810000  1
  H  H71  1  0.35801600  0.57810000  0.62777200  1
  H  H72  1  0.12777200  0.14198400  0.42190000  1
  H  H73  1  0.37222800  0.85801600  0.92190000  1
  H  H74  1  0.85801600  0.92190000  0.37222800  1
  H  H75  1  0.92190000  0.37222800  0.85801600  1
  H  H76  1  0.48324400  0.69456200  0.41737500  1
  H  H77  1  0.98324400  0.80543800  0.58262500  1
  H  H78  1  0.51675600  0.19456200  0.08262500  1
  H  H79  1  0.80543800  0.58262500  0.98324400  1
  H  H80  1  0.08262500  0.51675600  0.19456200  1
  H  H81  1  0.58262500  0.98324400  0.80543800  1
  H  H82  1  0.69456200  0.41737500  0.48324400  1
  H  H83  1  0.41737500  0.48324400  0.69456200  1
  H  H84  1  0.01675600  0.30543800  0.91737500  1
  H  H85  1  0.91737500  0.01675600  0.30543800  1
  H  H86  1  0.30543800  0.91737500  0.01675600  1
  H  H87  1  0.17122100  0.75973900  0.03596800  1
  Se  Se88  1  0.65320000  0.57481800  0.85463000  1
  Se  Se89  1  0.57481800  0.85463000  0.65320000  1
  Se  Se90  1  0.84680000  0.42518200  0.35463000  1
  Se  Se91  1  0.42518200  0.35463000  0.84680000  1
  Se  Se92  1  0.34680000  0.07481800  0.64537000  1
  Se  Se93  1  0.15320000  0.92518200  0.14537000  1
  Se  Se94  1  0.92518200  0.14537000  0.15320000  1
  Se  Se95  1  0.14537000  0.15320000  0.92518200  1
  Se  Se96  1  0.07224800  0.42775200  0.57224800  1
  Se  Se97  1  0.42775200  0.57224800  0.07224800  1
  Se  Se98  1  0.57224800  0.07224800  0.42775200  1
  Se  Se99  1  0.92775200  0.92775200  0.92775200  1
  Se  Se100  1  0.64537000  0.34680000  0.07481800  1
  Se  Se101  1  0.85463000  0.65320000  0.57481800  1
  Se  Se102  1  0.35463000  0.84680000  0.42518200  1
  Se  Se103  1  0.07481800  0.64537000  0.34680000  1
  O  O104  1  0.39596500  0.74742500  0.83371800  1
  O  O105  1  0.89596500  0.75257500  0.16628200  1
  O  O106  1  0.60403500  0.24742500  0.66628200  1
  O  O107  1  0.75257500  0.16628200  0.89596500  1
  O  O108  1  0.66628200  0.60403500  0.24742500  1
  O  O109  1  0.16628200  0.89596500  0.75257500  1
  O  O110  1  0.74742500  0.83371800  0.39596500  1
  O  O111  1  0.83371800  0.39596500  0.74742500  1
  O  O112  1  0.24742500  0.66628200  0.60403500  1
  O  O113  1  0.25257500  0.33371800  0.10403500  1
  O  O114  1  0.33371800  0.10403500  0.25257500  1
  O  O115  1  0.10403500  0.25257500  0.33371800  1
  O  O116  1  0.31651000  0.30576900  0.49004000  1
  O  O117  1  0.81651000  0.19423100  0.50996000  1
  O  O118  1  0.68349000  0.80576900  0.00996000  1
  O  O119  1  0.19423100  0.50996000  0.81651000  1
  O  O120  1  0.00996000  0.68349000  0.80576900  1
  O  O121  1  0.50996000  0.81651000  0.19423100  1
  O  O122  1  0.30576900  0.49004000  0.31651000  1
  O  O123  1  0.49004000  0.31651000  0.30576900  1
  O  O124  1  0.80576900  0.00996000  0.68349000  1
  O  O125  1  0.69423100  0.99004000  0.18349000  1
  O  O126  1  0.99004000  0.18349000  0.69423100  1
  O  O127  1  0.18349000  0.69423100  0.99004000  1
  O  O128  1  0.52921500  0.62846600  0.42300400  1
  O  O129  1  0.02921500  0.87153400  0.57699600  1
  O  O130  1  0.47078500  0.12846600  0.07699600  1
  O  O131  1  0.87153400  0.57699600  0.02921500  1
  O  O132  1  0.07699600  0.47078500  0.12846600  1
  O  O133  1  0.57699600  0.02921500  0.87153400  1
  O  O134  1  0.62846600  0.42300400  0.52921500  1
  O  O135  1  0.42300400  0.52921500  0.62846600  1
  O  O136  1  0.12846600  0.07699600  0.47078500  1
  O  O137  1  0.37153400  0.92300400  0.97078500  1
  O  O138  1  0.92300400  0.97078500  0.37153400  1
  O  O139  1  0.97078500  0.37153400  0.92300400  1
