# generated using pymatgen
data_Tl4HgBr6
_symmetry_space_group_name_H-M   'P 1'
_cell_length_a   9.11194400
_cell_length_b   9.11194400
_cell_length_c   9.13436900
_cell_angle_alpha   90.00000000
_cell_angle_beta   90.00000000
_cell_angle_gamma   90.00000000
_symmetry_Int_Tables_number   1
_chemical_formula_structural   Tl4HgBr6
_chemical_formula_sum   'Tl8 Hg2 Br12'
_cell_volume   758.40403643
_cell_formula_units_Z   2
loop_
 _symmetry_equiv_pos_site_id
 _symmetry_equiv_pos_as_xyz
  1  'x, y, z'
loop_
 _atom_site_type_symbol
 _atom_site_label
 _atom_site_symmetry_multiplicity
 _atom_site_fract_x
 _atom_site_fract_y
 _atom_site_fract_z
 _atom_site_occupancy
  Tl  Tl0  1  0.34698300  0.84698300  0.75000000  1
  Tl  Tl1  1  0.84698300  0.65301700  0.75000000  1
  Tl  Tl2  1  0.84698300  0.65301700  0.25000000  1
  Tl  Tl3  1  0.34698300  0.84698300  0.25000000  1
  Tl  Tl4  1  0.65301700  0.15301700  0.25000000  1
  Tl  Tl5  1  0.15301700  0.34698300  0.25000000  1
  Tl  Tl6  1  0.65301700  0.15301700  0.75000000  1
  Tl  Tl7  1  0.15301700  0.34698300  0.75000000  1
  Hg  Hg8  1  0.00000000  0.00000000  0.00000000  1
  Hg  Hg9  1  0.50000000  0.50000000  0.50000000  1
  Br  Br10  1  0.36304900  0.18593800  0.50000000  1
  Br  Br11  1  0.63695100  0.81406200  0.50000000  1
  Br  Br12  1  0.18593800  0.63695100  0.50000000  1
  Br  Br13  1  0.81406200  0.36304900  0.50000000  1
  Br  Br14  1  0.68593800  0.86304900  0.00000000  1
  Br  Br15  1  0.13695100  0.68593800  0.00000000  1
  Br  Br16  1  0.86304900  0.31406200  0.00000000  1
  Br  Br17  1  0.31406200  0.13695100  0.00000000  1
  Br  Br18  1  0.50000000  0.50000000  0.78422100  1
  Br  Br19  1  0.00000000  0.00000000  0.71577900  1
  Br  Br20  1  0.00000000  0.00000000  0.28422100  1
  Br  Br21  1  0.50000000  0.50000000  0.21577900  1
