# generated using pymatgen
data_MgP2(H8O5)2
_symmetry_space_group_name_H-M   'P 1'
_cell_length_a   10.44692200
_cell_length_b   10.44692200
_cell_length_c   20.46539600
_cell_angle_alpha   90.00000000
_cell_angle_beta   90.00000000
_cell_angle_gamma   90.00000000
_symmetry_Int_Tables_number   1
_chemical_formula_structural   MgP2(H8O5)2
_chemical_formula_sum   'Mg8 P16 H128 O80'
_cell_volume   2233.55605756
_cell_formula_units_Z   8
loop_
 _symmetry_equiv_pos_site_id
 _symmetry_equiv_pos_as_xyz
  1  'x, y, z'
loop_
 _atom_site_type_symbol
 _atom_site_label
 _atom_site_symmetry_multiplicity
 _atom_site_fract_x
 _atom_site_fract_y
 _atom_site_fract_z
 _atom_site_occupancy
  Mg  Mg0  1  0.50000000  0.00000000  0.00000000  1
  Mg  Mg1  1  0.00000000  0.00000000  0.25000000  1
  Mg  Mg2  1  0.50000000  0.50000000  0.25000000  1
  Mg  Mg3  1  0.00000000  0.50000000  0.00000000  1
  Mg  Mg4  1  0.00000000  0.50000000  0.50000000  1
  Mg  Mg5  1  0.50000000  0.50000000  0.75000000  1
  Mg  Mg6  1  0.00000000  0.00000000  0.75000000  1
  Mg  Mg7  1  0.50000000  0.00000000  0.50000000  1
  P  P8  1  0.26308500  0.75000000  0.37500000  1
  P  P9  1  0.75000000  0.26308500  0.12500000  1
  P  P10  1  0.25000000  0.73691500  0.12500000  1
  P  P11  1  0.73691500  0.25000000  0.37500000  1
  P  P12  1  0.76308500  0.75000000  0.37500000  1
  P  P13  1  0.75000000  0.76308500  0.12500000  1
  P  P14  1  0.25000000  0.23691500  0.12500000  1
  P  P15  1  0.23691500  0.25000000  0.37500000  1
  P  P16  1  0.76308500  0.25000000  0.87500000  1
  P  P17  1  0.25000000  0.76308500  0.62500000  1
  P  P18  1  0.75000000  0.23691500  0.62500000  1
  P  P19  1  0.23691500  0.75000000  0.87500000  1
  P  P20  1  0.26308500  0.25000000  0.87500000  1
  P  P21  1  0.25000000  0.26308500  0.62500000  1
  P  P22  1  0.75000000  0.73691500  0.62500000  1
  P  P23  1  0.73691500  0.75000000  0.87500000  1
  H  H24  1  0.31989550  0.17391050  0.33669550  1
  H  H25  1  0.17391050  0.31989550  0.16330450  1
  H  H26  1  0.82608950  0.68010450  0.16330450  1
  H  H27  1  0.31989550  0.32608950  0.41330450  1
  H  H28  1  0.68010450  0.67391050  0.41330450  1
  H  H29  1  0.32608950  0.31989550  0.08669550  1
  H  H30  1  0.67391050  0.68010450  0.08669550  1
  H  H31  1  0.68010450  0.82608950  0.33669550  1
  H  H32  1  0.18010450  0.82608950  0.41330450  1
  H  H33  1  0.82608950  0.18010450  0.08669550  1
  H  H34  1  0.17391050  0.81989550  0.08669550  1
  H  H35  1  0.18010450  0.67391050  0.33669550  1
  H  H36  1  0.81989550  0.32608950  0.33669550  1
  H  H37  1  0.67391050  0.18010450  0.16330450  1
  H  H38  1  0.32608950  0.81989550  0.16330450  1
  H  H39  1  0.81989550  0.17391050  0.41330450  1
  H  H40  1  0.74475850  0.44391650  0.02573250  1
  H  H41  1  0.44391650  0.74475850  0.47426750  1
  H  H42  1  0.55608350  0.25524150  0.47426750  1
  H  H43  1  0.24475850  0.55608350  0.22426750  1
  H  H44  1  0.75524150  0.44391650  0.22426750  1
  H  H45  1  0.55608350  0.24475850  0.27573250  1
  H  H46  1  0.44391650  0.75524150  0.27573250  1
  H  H47  1  0.25524150  0.55608350  0.02573250  1
  H  H48  1  0.25524150  0.05608350  0.22426750  1
  H  H49  1  0.05608350  0.25524150  0.27573250  1
  H  H50  1  0.94391650  0.74475850  0.27573250  1
  H  H51  1  0.75524150  0.94391650  0.02573250  1
  H  H52  1  0.94455700  0.55466300  0.36975900  1
  H  H53  1  0.24475850  0.05608350  0.02573250  1
  H  H54  1  0.05608350  0.24475850  0.47426750  1
  H  H55  1  0.74475850  0.94391650  0.22426750  1
  H  H56  1  0.24652850  0.05608550  0.47082550  1
  H  H57  1  0.05608550  0.24652850  0.02917450  1
  H  H58  1  0.94391450  0.75347150  0.02917450  1
  H  H59  1  0.24652850  0.44391450  0.27917450  1
  H  H60  1  0.75347150  0.55608550  0.27917450  1
  H  H61  1  0.44391450  0.24652850  0.22082550  1
  H  H62  1  0.55608550  0.75347150  0.22082550  1
  H  H63  1  0.75347150  0.94391450  0.47082550  1
  H  H64  1  0.25347150  0.94391450  0.27917450  1
  H  H65  1  0.94391450  0.25347150  0.22082550  1
  H  H66  1  0.05608550  0.74652850  0.22082550  1
  H  H67  1  0.25347150  0.55608550  0.47082550  1
  H  H68  1  0.74652850  0.44391450  0.47082550  1
  H  H69  1  0.55608550  0.25347150  0.02917450  1
  H  H70  1  0.44391450  0.74652850  0.02917450  1
  H  H71  1  0.74652850  0.05608550  0.27917450  1
  H  H72  1  0.05544300  0.05466300  0.38024100  1
  H  H73  1  0.05466300  0.05544300  0.11975900  1
  H  H74  1  0.94533700  0.94455700  0.11975900  1
  H  H75  1  0.05544300  0.44533700  0.36975900  1
  H  H76  1  0.55544300  0.05466300  0.36975900  1
  H  H77  1  0.44533700  0.55544300  0.11975900  1
  H  H78  1  0.55466300  0.44455700  0.11975900  1
  H  H79  1  0.55544300  0.44533700  0.38024100  1
  H  H80  1  0.44455700  0.55466300  0.38024100  1
  H  H81  1  0.05466300  0.55544300  0.13024100  1
  H  H82  1  0.94533700  0.44455700  0.13024100  1
  H  H83  1  0.44455700  0.94533700  0.36975900  1
  H  H84  1  0.94455700  0.94533700  0.38024100  1
  H  H85  1  0.55466300  0.94455700  0.13024100  1
  H  H86  1  0.44533700  0.05544300  0.13024100  1
  H  H87  1  0.94391650  0.75524150  0.47426750  1
  H  H88  1  0.81989550  0.67391050  0.83669550  1
  H  H89  1  0.67391050  0.81989550  0.66330450  1
  H  H90  1  0.32608950  0.18010450  0.66330450  1
  H  H91  1  0.81989550  0.82608950  0.91330450  1
  H  H92  1  0.18010450  0.17391050  0.91330450  1
  H  H93  1  0.82608950  0.81989550  0.58669550  1
  H  H94  1  0.17391050  0.18010450  0.58669550  1
  H  H95  1  0.18010450  0.32608950  0.83669550  1
  H  H96  1  0.68010450  0.32608950  0.91330450  1
  H  H97  1  0.32608950  0.68010450  0.58669550  1
  H  H98  1  0.67391050  0.31989550  0.58669550  1
  H  H99  1  0.68010450  0.17391050  0.83669550  1
  H  H100  1  0.31989550  0.82608950  0.83669550  1
  H  H101  1  0.17391050  0.68010450  0.66330450  1
  H  H102  1  0.82608950  0.31989550  0.66330450  1
  H  H103  1  0.31989550  0.67391050  0.91330450  1
  H  H104  1  0.24475850  0.94391650  0.52573250  1
  H  H105  1  0.94391650  0.24475850  0.97426750  1
  H  H106  1  0.05608350  0.75524150  0.97426750  1
  H  H107  1  0.74475850  0.05608350  0.72426750  1
  H  H108  1  0.25524150  0.94391650  0.72426750  1
  H  H109  1  0.05608350  0.74475850  0.77573250  1
  H  H110  1  0.94391650  0.25524150  0.77573250  1
  H  H111  1  0.75524150  0.05608350  0.52573250  1
  H  H112  1  0.75524150  0.55608350  0.72426750  1
  H  H113  1  0.55608350  0.75524150  0.77573250  1
  H  H114  1  0.44391650  0.24475850  0.77573250  1
  H  H115  1  0.25524150  0.44391650  0.52573250  1
  H  H116  1  0.44455700  0.05466300  0.86975900  1
  H  H117  1  0.74475850  0.55608350  0.52573250  1
  H  H118  1  0.55608350  0.74475850  0.97426750  1
  H  H119  1  0.24475850  0.44391650  0.72426750  1
  H  H120  1  0.74652850  0.55608550  0.97082550  1
  H  H121  1  0.55608550  0.74652850  0.52917450  1
  H  H122  1  0.44391450  0.25347150  0.52917450  1
  H  H123  1  0.74652850  0.94391450  0.77917450  1
  H  H124  1  0.25347150  0.05608550  0.77917450  1
  H  H125  1  0.94391450  0.74652850  0.72082550  1
  H  H126  1  0.05608550  0.25347150  0.72082550  1
  H  H127  1  0.25347150  0.44391450  0.97082550  1
  H  H128  1  0.75347150  0.44391450  0.77917450  1
  H  H129  1  0.44391450  0.75347150  0.72082550  1
  H  H130  1  0.55608550  0.24652850  0.72082550  1
  H  H131  1  0.75347150  0.05608550  0.97082550  1
  H  H132  1  0.24652850  0.94391450  0.97082550  1
  H  H133  1  0.05608550  0.75347150  0.52917450  1
  H  H134  1  0.94391450  0.24652850  0.52917450  1
  H  H135  1  0.24652850  0.55608550  0.77917450  1
  H  H136  1  0.55544300  0.55466300  0.88024100  1
  H  H137  1  0.55466300  0.55544300  0.61975900  1
  H  H138  1  0.44533700  0.44455700  0.61975900  1
  H  H139  1  0.55544300  0.94533700  0.86975900  1
  H  H140  1  0.05544300  0.55466300  0.86975900  1
  H  H141  1  0.94533700  0.05544300  0.61975900  1
  H  H142  1  0.05466300  0.94455700  0.61975900  1
  H  H143  1  0.05544300  0.94533700  0.88024100  1
  H  H144  1  0.94455700  0.05466300  0.88024100  1
  H  H145  1  0.55466300  0.05544300  0.63024100  1
  H  H146  1  0.44533700  0.94455700  0.63024100  1
  H  H147  1  0.94455700  0.44533700  0.86975900  1
  H  H148  1  0.44455700  0.44533700  0.88024100  1
  H  H149  1  0.05466300  0.44455700  0.63024100  1
  H  H150  1  0.94533700  0.55544300  0.63024100  1
  H  H151  1  0.44391650  0.25524150  0.97426750  1
  O  O152  1  0.15914450  0.16253650  0.42042750  1
  O  O153  1  0.16253650  0.15914450  0.07957250  1
  O  O154  1  0.83746350  0.84085550  0.07957250  1
  O  O155  1  0.15914450  0.33746350  0.32957250  1
  O  O156  1  0.84085550  0.66253650  0.32957250  1
  O  O157  1  0.33746350  0.15914450  0.17042750  1
  O  O158  1  0.66253650  0.84085550  0.17042750  1
  O  O159  1  0.84085550  0.83746350  0.42042750  1
  O  O160  1  0.34085550  0.83746350  0.32957250  1
  O  O161  1  0.83746350  0.34085550  0.17042750  1
  O  O162  1  0.16253650  0.65914450  0.17042750  1
  O  O163  1  0.34085550  0.66253650  0.42042750  1
  O  O164  1  0.65914450  0.33746350  0.42042750  1
  O  O165  1  0.66253650  0.34085550  0.07957250  1
  O  O166  1  0.33746350  0.65914450  0.07957250  1
  O  O167  1  0.65914450  0.16253650  0.32957250  1
  O  O168  1  0.69997300  0.49664500  0.25300700  1
  O  O169  1  0.49664500  0.69997300  0.24699300  1
  O  O170  1  0.50335500  0.30002700  0.24699300  1
  O  O171  1  0.69997300  0.00335500  0.49699300  1
  O  O172  1  0.30002700  0.99664500  0.49699300  1
  O  O173  1  0.00335500  0.69997300  0.00300700  1
  O  O174  1  0.99664500  0.30002700  0.00300700  1
  O  O175  1  0.30002700  0.50335500  0.25300700  1
  O  O176  1  0.80002700  0.50335500  0.49699300  1
  O  O177  1  0.50335500  0.80002700  0.00300700  1
  O  O178  1  0.49664500  0.19997300  0.00300700  1
  O  O179  1  0.80002700  0.99664500  0.25300700  1
  O  O180  1  0.19997300  0.00335500  0.25300700  1
  O  O181  1  0.99664500  0.80002700  0.24699300  1
  O  O182  1  0.00335500  0.19997300  0.24699300  1
  O  O183  1  0.19997300  0.49664500  0.49699300  1
  O  O184  1  0.50000000  0.50000000  0.14748200  1
  O  O185  1  0.50000000  0.00000000  0.39748200  1
  O  O186  1  0.00000000  0.50000000  0.10251800  1
  O  O187  1  0.50000000  0.50000000  0.35251800  1
  O  O188  1  0.50000000  0.00000000  0.10251800  1
  O  O189  1  0.00000000  0.00000000  0.35251800  1
  O  O190  1  0.00000000  0.00000000  0.14748200  1
  O  O191  1  0.00000000  0.50000000  0.39748200  1
  O  O192  1  0.65914450  0.66253650  0.92042750  1
  O  O193  1  0.66253650  0.65914450  0.57957250  1
  O  O194  1  0.33746350  0.34085550  0.57957250  1
  O  O195  1  0.65914450  0.83746350  0.82957250  1
  O  O196  1  0.34085550  0.16253650  0.82957250  1
  O  O197  1  0.83746350  0.65914450  0.67042750  1
  O  O198  1  0.16253650  0.34085550  0.67042750  1
  O  O199  1  0.34085550  0.33746350  0.92042750  1
  O  O200  1  0.84085550  0.33746350  0.82957250  1
  O  O201  1  0.33746350  0.84085550  0.67042750  1
  O  O202  1  0.66253650  0.15914450  0.67042750  1
  O  O203  1  0.84085550  0.16253650  0.92042750  1
  O  O204  1  0.15914450  0.83746350  0.92042750  1
  O  O205  1  0.16253650  0.84085550  0.57957250  1
  O  O206  1  0.83746350  0.15914450  0.57957250  1
  O  O207  1  0.15914450  0.66253650  0.82957250  1
  O  O208  1  0.19997300  0.99664500  0.75300700  1
  O  O209  1  0.99664500  0.19997300  0.74699300  1
  O  O210  1  0.00335500  0.80002700  0.74699300  1
  O  O211  1  0.19997300  0.50335500  0.99699300  1
  O  O212  1  0.80002700  0.49664500  0.99699300  1
  O  O213  1  0.50335500  0.19997300  0.50300700  1
  O  O214  1  0.49664500  0.80002700  0.50300700  1
  O  O215  1  0.80002700  0.00335500  0.75300700  1
  O  O216  1  0.30002700  0.00335500  0.99699300  1
  O  O217  1  0.00335500  0.30002700  0.50300700  1
  O  O218  1  0.99664500  0.69997300  0.50300700  1
  O  O219  1  0.30002700  0.49664500  0.75300700  1
  O  O220  1  0.69997300  0.50335500  0.75300700  1
  O  O221  1  0.49664500  0.30002700  0.74699300  1
  O  O222  1  0.50335500  0.69997300  0.74699300  1
  O  O223  1  0.69997300  0.99664500  0.99699300  1
  O  O224  1  0.00000000  0.00000000  0.64748200  1
  O  O225  1  0.00000000  0.50000000  0.89748200  1
  O  O226  1  0.50000000  0.00000000  0.60251800  1
  O  O227  1  0.00000000  0.00000000  0.85251800  1
  O  O228  1  0.00000000  0.50000000  0.60251800  1
  O  O229  1  0.50000000  0.50000000  0.85251800  1
  O  O230  1  0.50000000  0.50000000  0.64748200  1
  O  O231  1  0.50000000  0.00000000  0.89748200  1
