# generated using pymatgen
data_BaNb8O14
_symmetry_space_group_name_H-M   'P 1'
_cell_length_a   6.02479200
_cell_length_b   9.50860300
_cell_length_c   10.40682600
_cell_angle_alpha   90.00000000
_cell_angle_beta   90.00000000
_cell_angle_gamma   90.00000000
_symmetry_Int_Tables_number   1
_chemical_formula_structural   BaNb8O14
_chemical_formula_sum   'Ba2 Nb16 O28'
_cell_volume   596.17953846
_cell_formula_units_Z   2
loop_
 _symmetry_equiv_pos_site_id
 _symmetry_equiv_pos_as_xyz
  1  'x, y, z'
loop_
 _atom_site_type_symbol
 _atom_site_label
 _atom_site_symmetry_multiplicity
 _atom_site_fract_x
 _atom_site_fract_y
 _atom_site_fract_z
 _atom_site_occupancy
  Ba  Ba0  1  0.50000000  0.50000000  0.00000000  1
  Ba  Ba1  1  0.50000000  0.00000000  0.50000000  1
  Nb  Nb2  1  0.00000000  0.38245900  0.16406200  1
  Nb  Nb3  1  0.00000000  0.61754100  0.83593800  1
  Nb  Nb4  1  0.00000000  0.88245900  0.33593800  1
  Nb  Nb5  1  0.00000000  0.11754100  0.66406200  1
  Nb  Nb6  1  0.50000000  0.38048700  0.66435600  1
  Nb  Nb7  1  0.50000000  0.61951300  0.33564400  1
  Nb  Nb8  1  0.50000000  0.88048700  0.83564400  1
  Nb  Nb9  1  0.50000000  0.11951300  0.16435600  1
  Nb  Nb10  1  0.73149200  0.62370300  0.57642200  1
  Nb  Nb11  1  0.73149200  0.37629700  0.42357800  1
  Nb  Nb12  1  0.26850800  0.12370300  0.92357800  1
  Nb  Nb13  1  0.26850800  0.87629700  0.07642200  1
  Nb  Nb14  1  0.26850800  0.37629700  0.42357800  1
  Nb  Nb15  1  0.26850800  0.62370300  0.57642200  1
  Nb  Nb16  1  0.73149200  0.87629700  0.07642200  1
  Nb  Nb17  1  0.73149200  0.12370300  0.92357800  1
  O  O18  1  0.74696200  0.50528200  0.75292800  1
  O  O19  1  0.74696200  0.49471800  0.24707200  1
  O  O20  1  0.25303800  0.00528200  0.74707200  1
  O  O21  1  0.25303800  0.99471800  0.25292800  1
  O  O22  1  0.25303800  0.49471800  0.24707200  1
  O  O23  1  0.25303800  0.50528200  0.75292800  1
  O  O24  1  0.74696200  0.99471800  0.25292800  1
  O  O25  1  0.74696200  0.00528200  0.74707200  1
  O  O26  1  0.25021700  0.74356700  0.91282700  1
  O  O27  1  0.25021700  0.25643300  0.08717300  1
  O  O28  1  0.74978300  0.24356700  0.58717300  1
  O  O29  1  0.74978300  0.75643300  0.41282700  1
  O  O30  1  0.74978300  0.25643300  0.08717300  1
  O  O31  1  0.74978300  0.74356700  0.91282700  1
  O  O32  1  0.25021700  0.75643300  0.41282700  1
  O  O33  1  0.25021700  0.24356700  0.58717300  1
  O  O34  1  0.00000000  0.50000000  0.00000000  1
  O  O35  1  0.00000000  0.00000000  0.50000000  1
  O  O36  1  0.00000000  0.23184300  0.82221500  1
  O  O37  1  0.00000000  0.76815700  0.17778500  1
  O  O38  1  0.00000000  0.73184300  0.67778500  1
  O  O39  1  0.00000000  0.26815700  0.32221500  1
  O  O40  1  0.50000000  0.24374500  0.34418200  1
  O  O41  1  0.50000000  0.75625500  0.65581800  1
  O  O42  1  0.50000000  0.74374500  0.15581800  1
  O  O43  1  0.50000000  0.25625500  0.84418200  1
  O  O44  1  0.00000000  0.00000000  0.00000000  1
  O  O45  1  0.00000000  0.50000000  0.50000000  1
