# generated using pymatgen
data_Sn(SbTe2)2
_symmetry_space_group_name_H-M   'P 1'
_cell_length_a   4.38490796
_cell_length_b   4.38490796
_cell_length_c   42.47599571
_cell_angle_alpha   90.00000000
_cell_angle_beta   90.00000000
_cell_angle_gamma   120.00000000
_symmetry_Int_Tables_number   1
_chemical_formula_structural   Sn(SbTe2)2
_chemical_formula_sum   'Sn3 Sb6 Te12'
_cell_volume   707.28616766
_cell_formula_units_Z   3
loop_
 _symmetry_equiv_pos_site_id
 _symmetry_equiv_pos_as_xyz
  1  'x, y, z'
loop_
 _atom_site_type_symbol
 _atom_site_label
 _atom_site_symmetry_multiplicity
 _atom_site_fract_x
 _atom_site_fract_y
 _atom_site_fract_z
 _atom_site_occupancy
  Sn  Sn0  1  0.00000000  0.00000000  0.00000000  1
  Sn  Sn1  1  0.66666667  0.33333333  0.33333333  1
  Sn  Sn2  1  0.33333333  0.66666667  0.66666667  1
  Sb  Sb3  1  0.33333333  0.66666667  0.09171667  1
  Sb  Sb4  1  0.33333333  0.66666667  0.24161667  1
  Sb  Sb5  1  0.00000000  0.00000000  0.42505000  1
  Sb  Sb6  1  0.00000000  0.00000000  0.57495000  1
  Sb  Sb7  1  0.66666667  0.33333333  0.75838333  1
  Sb  Sb8  1  0.66666667  0.33333333  0.90828333  1
  Te  Te9  1  0.00000000  0.00000000  0.13095200  1
  Te  Te10  1  0.66666667  0.33333333  0.20238133  1
  Te  Te11  1  0.00000000  0.00000000  0.28832500  1
  Te  Te12  1  0.66666667  0.33333333  0.04500833  1
  Te  Te13  1  0.66666667  0.33333333  0.46428533  1
  Te  Te14  1  0.33333333  0.66666667  0.53571467  1
  Te  Te15  1  0.66666667  0.33333333  0.62165833  1
  Te  Te16  1  0.33333333  0.66666667  0.37834167  1
  Te  Te17  1  0.33333333  0.66666667  0.79761867  1
  Te  Te18  1  0.00000000  0.00000000  0.86904800  1
  Te  Te19  1  0.33333333  0.66666667  0.95499167  1
  Te  Te20  1  0.00000000  0.00000000  0.71167500  1
