# generated using pymatgen
data_SbXe2F9
_symmetry_space_group_name_H-M   'P 1'
_cell_length_a   15.07870400
_cell_length_b   8.36288800
_cell_length_c   10.34177645
_cell_angle_alpha   90.00000000
_cell_angle_beta   130.43579452
_cell_angle_gamma   90.00000000
_symmetry_Int_Tables_number   1
_chemical_formula_structural   SbXe2F9
_chemical_formula_sum   'Sb4 Xe8 F36'
_cell_volume   992.60427447
_cell_formula_units_Z   4
loop_
 _symmetry_equiv_pos_site_id
 _symmetry_equiv_pos_as_xyz
  1  'x, y, z'
loop_
 _atom_site_type_symbol
 _atom_site_label
 _atom_site_symmetry_multiplicity
 _atom_site_fract_x
 _atom_site_fract_y
 _atom_site_fract_z
 _atom_site_occupancy
  Sb  Sb0  1  0.40445900  0.62795300  0.80640200  1
  Sb  Sb1  1  0.40445900  0.37204700  0.30640200  1
  Sb  Sb2  1  0.90445900  0.12795300  0.80640200  1
  Sb  Sb3  1  0.90445900  0.87204700  0.30640200  1
  Xe  Xe4  1  0.57847400  0.90894900  0.33561700  1
  Xe  Xe5  1  0.57847400  0.09105100  0.83561700  1
  Xe  Xe6  1  0.70562850  0.59838850  0.75317200  1
  Xe  Xe7  1  0.20562850  0.90161150  0.25317200  1
  Xe  Xe8  1  0.07847400  0.40894900  0.33561700  1
  Xe  Xe9  1  0.07847400  0.59105100  0.83561700  1
  Xe  Xe10  1  0.20562850  0.09838850  0.75317200  1
  Xe  Xe11  1  0.70562850  0.40161150  0.25317200  1
  F  F12  1  0.55393500  0.65594000  0.86616000  1
  F  F13  1  0.55393500  0.34406000  0.36616000  1
  F  F14  1  0.87954550  0.35553850  0.77173800  1
  F  F15  1  0.37954550  0.14446150  0.27173800  1
  F  F16  1  0.33162000  0.60197900  0.57197200  1
  F  F17  1  0.33162000  0.39802100  0.07197200  1
  F  F18  1  0.23811650  0.06965350  0.41749800  1
  F  F19  1  0.73811650  0.43034650  0.91749800  1
  F  F20  1  0.18438500  0.71039300  0.08698500  1
  F  F21  1  0.68438500  0.78960700  0.58698500  1
  F  F22  1  0.49881800  0.96610000  0.62003200  1
  F  F23  1  0.49881800  0.03390000  0.12003200  1
  F  F24  1  0.25535950  0.39678050  0.24675700  1
  F  F25  1  0.75535950  0.10321950  0.74675700  1
  F  F26  1  0.47828350  0.34391750  0.54160600  1
  F  F27  1  0.47828350  0.65608250  0.04160600  1
  F  F28  1  0.43477550  0.59842950  0.34626200  1
  F  F29  1  0.43477550  0.40157050  0.84626200  1
  F  F30  1  0.05393500  0.15594000  0.86616000  1
  F  F31  1  0.05393500  0.84406000  0.36616000  1
  F  F32  1  0.37954550  0.85553850  0.77173800  1
  F  F33  1  0.87954550  0.64446150  0.27173800  1
  F  F34  1  0.83162000  0.10197900  0.57197200  1
  F  F35  1  0.83162000  0.89802100  0.07197200  1
  F  F36  1  0.73811650  0.56965350  0.41749800  1
  F  F37  1  0.23811650  0.93034650  0.91749800  1
  F  F38  1  0.68438500  0.21039300  0.08698500  1
  F  F39  1  0.18438500  0.28960700  0.58698500  1
  F  F40  1  0.99881800  0.46610000  0.62003200  1
  F  F41  1  0.99881800  0.53390000  0.12003200  1
  F  F42  1  0.75535950  0.89678050  0.24675700  1
  F  F43  1  0.25535950  0.60321950  0.74675700  1
  F  F44  1  0.97828350  0.84391750  0.54160600  1
  F  F45  1  0.97828350  0.15608250  0.04160600  1
  F  F46  1  0.93477550  0.09842950  0.34626200  1
  F  F47  1  0.93477550  0.90157050  0.84626200  1
