# generated using pymatgen
data_Re(TeCl6)2
_symmetry_space_group_name_H-M   'P 1'
_cell_length_a   6.76787707
_cell_length_b   7.23238182
_cell_length_c   11.30611822
_cell_angle_alpha   108.08222773
_cell_angle_beta   88.41772901
_cell_angle_gamma   116.87240265
_symmetry_Int_Tables_number   1
_chemical_formula_structural   Re(TeCl6)2
_chemical_formula_sum   'Re1 Te2 Cl12'
_cell_volume   465.10841975
_cell_formula_units_Z   1
loop_
 _symmetry_equiv_pos_site_id
 _symmetry_equiv_pos_as_xyz
  1  'x, y, z'
loop_
 _atom_site_type_symbol
 _atom_site_label
 _atom_site_symmetry_multiplicity
 _atom_site_fract_x
 _atom_site_fract_y
 _atom_site_fract_z
 _atom_site_occupancy
  Re  Re0  1  0.00000000  0.00000000  0.00000000  1
  Te  Te1  1  0.74021479  0.25572665  0.24242498  1
  Te  Te2  1  0.25978521  0.74427335  0.75757502  1
  Cl  Cl3  1  0.02765709  0.31080685  0.41329010  1
  Cl  Cl4  1  0.97234291  0.68919315  0.58670990  1
  Cl  Cl5  1  0.57047257  0.43106326  0.29720090  1
  Cl  Cl6  1  0.39395504  0.19646699  0.01960048  1
  Cl  Cl7  1  0.60604496  0.80353301  0.98039952  1
  Cl  Cl8  1  0.01107297  0.96302358  0.80249087  1
  Cl  Cl9  1  0.98892703  0.03697642  0.19750913  1
  Cl  Cl10  1  0.05456537  0.68009541  0.10174114  1
  Cl  Cl11  1  0.94543463  0.31990459  0.89825886  1
  Cl  Cl12  1  0.48163300  0.08683410  0.64883717  1
  Cl  Cl13  1  0.51836700  0.91316590  0.35116283  1
  Cl  Cl14  1  0.42952743  0.56893674  0.70279910  1
