# generated using pymatgen
data_Na2MgCl4
_symmetry_space_group_name_H-M   'P 1'
_cell_length_a   3.84902400
_cell_length_b   6.98189100
_cell_length_c   12.00174300
_cell_angle_alpha   90.00000000
_cell_angle_beta   90.00000000
_cell_angle_gamma   90.00000000
_symmetry_Int_Tables_number   1
_chemical_formula_structural   Na2MgCl4
_chemical_formula_sum   'Na4 Mg2 Cl8'
_cell_volume   322.52843274
_cell_formula_units_Z   2
loop_
 _symmetry_equiv_pos_site_id
 _symmetry_equiv_pos_as_xyz
  1  'x, y, z'
loop_
 _atom_site_type_symbol
 _atom_site_label
 _atom_site_symmetry_multiplicity
 _atom_site_fract_x
 _atom_site_fract_y
 _atom_site_fract_z
 _atom_site_occupancy
  Na  Na0  1  0.50000000  0.08728100  0.68200700  1
  Na  Na1  1  0.50000000  0.91271900  0.31799300  1
  Na  Na2  1  0.50000000  0.41271900  0.18200700  1
  Na  Na3  1  0.50000000  0.58728100  0.81799300  1
  Mg  Mg4  1  0.00000000  0.50000000  0.50000000  1
  Mg  Mg5  1  0.00000000  0.00000000  0.00000000  1
  Cl  Cl6  1  0.00000000  0.11888400  0.19538100  1
  Cl  Cl7  1  0.00000000  0.88111600  0.80461900  1
  Cl  Cl8  1  0.00000000  0.61888400  0.30461900  1
  Cl  Cl9  1  0.00000000  0.38111600  0.69538100  1
  Cl  Cl10  1  0.50000000  0.23525500  0.95706700  1
  Cl  Cl11  1  0.50000000  0.76474500  0.04293300  1
  Cl  Cl12  1  0.50000000  0.73525500  0.54293300  1
  Cl  Cl13  1  0.50000000  0.26474500  0.45706700  1
