# generated using pymatgen
data_CsSr2Nb3O10
_symmetry_space_group_name_H-M   'P 1'
_cell_length_a   3.99915500
_cell_length_b   3.99915500
_cell_length_c   15.67115000
_cell_angle_alpha   90.00000000
_cell_angle_beta   90.00000000
_cell_angle_gamma   90.00000000
_symmetry_Int_Tables_number   1
_chemical_formula_structural   CsSr2Nb3O10
_chemical_formula_sum   'Cs1 Sr2 Nb3 O10'
_cell_volume   250.63247422
_cell_formula_units_Z   1
loop_
 _symmetry_equiv_pos_site_id
 _symmetry_equiv_pos_as_xyz
  1  'x, y, z'
loop_
 _atom_site_type_symbol
 _atom_site_label
 _atom_site_symmetry_multiplicity
 _atom_site_fract_x
 _atom_site_fract_y
 _atom_site_fract_z
 _atom_site_occupancy
  Cs  Cs0  1  0.50000000  0.50000000  0.50000000  1
  Sr  Sr1  1  0.50000000  0.50000000  0.85500400  1
  Sr  Sr2  1  0.50000000  0.50000000  0.14499600  1
  Nb  Nb3  1  0.00000000  0.00000000  0.71812200  1
  Nb  Nb4  1  0.00000000  0.00000000  0.28187800  1
  Nb  Nb5  1  0.00000000  0.00000000  0.00000000  1
  O  O6  1  0.00000000  0.00000000  0.60362300  1
  O  O7  1  0.00000000  0.00000000  0.39637700  1
  O  O8  1  0.50000000  0.00000000  0.74402900  1
  O  O9  1  0.00000000  0.50000000  0.74402900  1
  O  O10  1  0.50000000  0.00000000  0.25597100  1
  O  O11  1  0.00000000  0.50000000  0.25597100  1
  O  O12  1  0.00000000  0.50000000  0.00000000  1
  O  O13  1  0.50000000  0.00000000  0.00000000  1
  O  O14  1  0.00000000  0.00000000  0.12669800  1
  O  O15  1  0.00000000  0.00000000  0.87330200  1
