# generated using pymatgen
data_Tl6Si2O7
_symmetry_space_group_name_H-M   'P 1'
_cell_length_a   9.93271430
_cell_length_b   9.93271430
_cell_length_c   8.11057800
_cell_angle_alpha   90.00000000
_cell_angle_beta   90.00000000
_cell_angle_gamma   120.00000000
_symmetry_Int_Tables_number   1
_chemical_formula_structural   Tl6Si2O7
_chemical_formula_sum   'Tl12 Si4 O14'
_cell_volume   692.97620876
_cell_formula_units_Z   2
loop_
 _symmetry_equiv_pos_site_id
 _symmetry_equiv_pos_as_xyz
  1  'x, y, z'
loop_
 _atom_site_type_symbol
 _atom_site_label
 _atom_site_symmetry_multiplicity
 _atom_site_fract_x
 _atom_site_fract_y
 _atom_site_fract_z
 _atom_site_occupancy
  Tl  Tl0  1  0.03665133  0.35453467  0.36976400  1
  Tl  Tl1  1  0.31788333  0.96334867  0.36976400  1
  Tl  Tl2  1  0.64546533  0.68211667  0.36976400  1
  Tl  Tl3  1  0.96334867  0.64546533  0.63023600  1
  Tl  Tl4  1  0.68211667  0.03665133  0.63023600  1
  Tl  Tl5  1  0.35453467  0.31788333  0.63023600  1
  Tl  Tl6  1  0.05156033  0.36357867  0.87812000  1
  Tl  Tl7  1  0.31201833  0.94843967  0.87812000  1
  Tl  Tl8  1  0.63642133  0.68798167  0.87812000  1
  Tl  Tl9  1  0.94843967  0.63642133  0.12188000  1
  Tl  Tl10  1  0.68798167  0.05156033  0.12188000  1
  Tl  Tl11  1  0.36357867  0.31201833  0.12188000  1
  Si  Si12  1  0.33333333  0.66666667  0.17045900  1
  Si  Si13  1  0.66666667  0.33333333  0.41699000  1
  Si  Si14  1  0.33333333  0.66666667  0.58301000  1
  Si  Si15  1  0.66666667  0.33333333  0.82954100  1
  O  O16  1  0.84893533  0.44786667  0.88440700  1
  O  O17  1  0.55213333  0.40106867  0.88440700  1
  O  O18  1  0.59893133  0.15106467  0.88440700  1
  O  O19  1  0.40106867  0.84893533  0.11559300  1
  O  O20  1  0.66666667  0.33333333  0.62309700  1
  O  O21  1  0.33333333  0.66666667  0.37690300  1
  O  O22  1  0.59836433  0.15131467  0.36109300  1
  O  O23  1  0.55295033  0.40163567  0.36109300  1
  O  O24  1  0.84868533  0.44704967  0.36109300  1
  O  O25  1  0.40163567  0.84868533  0.63890700  1
  O  O26  1  0.44704967  0.59836433  0.63890700  1
  O  O27  1  0.15131467  0.55295033  0.63890700  1
  O  O28  1  0.15106467  0.55213333  0.11559300  1
  O  O29  1  0.44786667  0.59893133  0.11559300  1
