# generated using pymatgen
data_CsIn5S8
_symmetry_space_group_name_H-M   'P 1'
_cell_length_a   19.35312200
_cell_length_b   3.93348000
_cell_length_c   9.46527776
_cell_angle_alpha   90.00000000
_cell_angle_beta   101.86514364
_cell_angle_gamma   90.00000000
_symmetry_Int_Tables_number   1
_chemical_formula_structural   CsIn5S8
_chemical_formula_sum   'Cs2 In10 S16'
_cell_volume   705.15039667
_cell_formula_units_Z   2
loop_
 _symmetry_equiv_pos_site_id
 _symmetry_equiv_pos_as_xyz
  1  'x, y, z'
loop_
 _atom_site_type_symbol
 _atom_site_label
 _atom_site_symmetry_multiplicity
 _atom_site_fract_x
 _atom_site_fract_y
 _atom_site_fract_z
 _atom_site_occupancy
  Cs  Cs0  1  0.00000000  0.50000000  0.50000000  1
  Cs  Cs1  1  0.50000000  0.00000000  0.50000000  1
  In  In2  1  0.00000000  0.00000000  0.00000000  1
  In  In3  1  0.84975300  0.50000000  0.06915200  1
  In  In4  1  0.65024700  0.00000000  0.93084800  1
  In  In5  1  0.78970600  0.50000000  0.66008900  1
  In  In6  1  0.71029400  0.00000000  0.33991100  1
  In  In7  1  0.50000000  0.50000000  0.00000000  1
  In  In8  1  0.34975300  0.00000000  0.06915200  1
  In  In9  1  0.15024700  0.50000000  0.93084800  1
  In  In10  1  0.28970600  0.00000000  0.66008900  1
  In  In11  1  0.21029400  0.50000000  0.33991100  1
  S  S12  1  0.83285300  0.00000000  0.51765200  1
  S  S13  1  0.92175400  0.00000000  0.19622100  1
  S  S14  1  0.57824600  0.50000000  0.80377900  1
  S  S15  1  0.58213900  0.00000000  0.13527800  1
  S  S16  1  0.91786100  0.50000000  0.86472200  1
  S  S17  1  0.76459900  0.00000000  0.84764600  1
  S  S18  1  0.73540100  0.50000000  0.15235400  1
  S  S19  1  0.66714700  0.50000000  0.48234800  1
  S  S20  1  0.33285300  0.50000000  0.51765200  1
  S  S21  1  0.42175400  0.50000000  0.19622100  1
  S  S22  1  0.07824600  0.00000000  0.80377900  1
  S  S23  1  0.08213900  0.50000000  0.13527800  1
  S  S24  1  0.41786100  0.00000000  0.86472200  1
  S  S25  1  0.26459900  0.50000000  0.84764600  1
  S  S26  1  0.23540100  0.00000000  0.15235400  1
  S  S27  1  0.16714700  0.00000000  0.48234800  1
