# generated using pymatgen
data_KLi6BiO6
_symmetry_space_group_name_H-M   'P 1'
_cell_length_a   8.56880857
_cell_length_b   8.56880857
_cell_length_c   7.41041512
_cell_angle_alpha   90.00000000
_cell_angle_beta   90.00000000
_cell_angle_gamma   120.00000000
_symmetry_Int_Tables_number   1
_chemical_formula_structural   KLi6BiO6
_chemical_formula_sum   'K3 Li18 Bi3 O18'
_cell_volume   471.20951342
_cell_formula_units_Z   3
loop_
 _symmetry_equiv_pos_site_id
 _symmetry_equiv_pos_as_xyz
  1  'x, y, z'
loop_
 _atom_site_type_symbol
 _atom_site_label
 _atom_site_symmetry_multiplicity
 _atom_site_fract_x
 _atom_site_fract_y
 _atom_site_fract_z
 _atom_site_occupancy
  K  K0  1  0.00000000  0.00000000  0.50000000  1
  K  K1  1  0.66666667  0.33333333  0.83333333  1
  K  K2  1  0.33333333  0.66666667  0.16666667  1
  Li  Li3  1  0.01020467  0.33333333  0.33333333  1
  Li  Li4  1  0.66666667  0.67687133  0.33333333  1
  Li  Li5  1  0.01020467  0.67687133  0.33333333  1
  Li  Li6  1  0.66666667  0.98979533  0.33333333  1
  Li  Li7  1  0.32312867  0.33333333  0.33333333  1
  Li  Li8  1  0.32312867  0.98979533  0.33333333  1
  Li  Li9  1  0.67687133  0.66666667  0.66666667  1
  Li  Li10  1  0.33333333  0.01020467  0.66666667  1
  Li  Li11  1  0.67687133  0.01020467  0.66666667  1
  Li  Li12  1  0.33333333  0.32312867  0.66666667  1
  Li  Li13  1  0.98979533  0.66666667  0.66666667  1
  Li  Li14  1  0.98979533  0.32312867  0.66666667  1
  Li  Li15  1  0.34353800  0.00000000  0.00000000  1
  Li  Li16  1  0.00000000  0.34353800  0.00000000  1
  Li  Li17  1  0.34353800  0.34353800  0.00000000  1
  Li  Li18  1  0.00000000  0.65646200  0.00000000  1
  Li  Li19  1  0.65646200  0.00000000  0.00000000  1
  Li  Li20  1  0.65646200  0.65646200  0.00000000  1
  Bi  Bi21  1  0.00000000  0.00000000  0.00000000  1
  Bi  Bi22  1  0.66666667  0.33333333  0.33333333  1
  Bi  Bi23  1  0.33333333  0.66666667  0.66666667  1
  O  O24  1  0.41901067  0.20950533  0.48959433  1
  O  O25  1  0.79049467  0.58098933  0.48959433  1
  O  O26  1  0.20950533  0.79049467  0.51040567  1
  O  O27  1  0.58098933  0.79049467  0.51040567  1
  O  O28  1  0.20950533  0.41901067  0.51040567  1
  O  O29  1  0.79049467  0.20950533  0.48959433  1
  O  O30  1  0.08567733  0.54283867  0.82292767  1
  O  O31  1  0.45716133  0.91432267  0.82292767  1
  O  O32  1  0.87617200  0.12382800  0.84373900  1
  O  O33  1  0.24765600  0.12382800  0.84373900  1
  O  O34  1  0.87617200  0.75234400  0.84373900  1
  O  O35  1  0.45716133  0.54283867  0.82292767  1
  O  O36  1  0.75234400  0.87617200  0.15626100  1
  O  O37  1  0.12382800  0.24765600  0.15626100  1
  O  O38  1  0.54283867  0.45716133  0.17707233  1
  O  O39  1  0.91432267  0.45716133  0.17707233  1
  O  O40  1  0.54283867  0.08567733  0.17707233  1
  O  O41  1  0.12382800  0.87617200  0.15626100  1
