# generated using pymatgen
data_NaBiF6
_symmetry_space_group_name_H-M   'P 1'
_cell_length_a   5.50607015
_cell_length_b   5.50607015
_cell_length_c   15.62602437
_cell_angle_alpha   90.00000000
_cell_angle_beta   90.00000000
_cell_angle_gamma   120.00000000
_symmetry_Int_Tables_number   1
_chemical_formula_structural   NaBiF6
_chemical_formula_sum   'Na3 Bi3 F18'
_cell_volume   410.26324437
_cell_formula_units_Z   3
loop_
 _symmetry_equiv_pos_site_id
 _symmetry_equiv_pos_as_xyz
  1  'x, y, z'
loop_
 _atom_site_type_symbol
 _atom_site_label
 _atom_site_symmetry_multiplicity
 _atom_site_fract_x
 _atom_site_fract_y
 _atom_site_fract_z
 _atom_site_occupancy
  Na  Na0  1  0.33333333  0.66666667  0.16666667  1
  Na  Na1  1  1.00000000  0.00000000  0.50000000  1
  Na  Na2  1  0.66666667  0.33333333  0.83333333  1
  Bi  Bi3  1  0.00000000  0.00000000  0.00000000  1
  Bi  Bi4  1  0.66666667  0.33333333  0.33333333  1
  Bi  Bi5  1  0.33333333  0.66666667  0.66666667  1
  F  F6  1  0.65131400  0.62769600  0.25694400  1
  F  F7  1  0.37230400  0.02361800  0.25694400  1
  F  F8  1  0.69028467  0.98464733  0.07638933  1
  F  F9  1  0.29436267  0.30971533  0.07638933  1
  F  F10  1  0.01535267  0.70563733  0.07638933  1
  F  F11  1  0.97638200  0.34868600  0.25694400  1
  F  F12  1  0.31798067  0.96102933  0.59027733  1
  F  F13  1  0.03897067  0.35695133  0.59027733  1
  F  F14  1  0.35695133  0.31798067  0.40972267  1
  F  F15  1  0.96102933  0.64304867  0.40972267  1
  F  F16  1  0.68201933  0.03897067  0.40972267  1
  F  F17  1  0.64304867  0.68201933  0.59027733  1
  F  F18  1  0.98464733  0.29436267  0.92361067  1
  F  F19  1  0.70563733  0.69028467  0.92361067  1
  F  F20  1  0.02361800  0.65131400  0.74305600  1
  F  F21  1  0.62769600  0.97638200  0.74305600  1
  F  F22  1  0.34868600  0.37230400  0.74305600  1
  F  F23  1  0.30971533  0.01535267  0.92361067  1
