# generated using pymatgen
data_RbInI4
_symmetry_space_group_name_H-M   'P 1'
_cell_length_a   25.53530533
_cell_length_b   25.53530533
_cell_length_c   10.11129015
_cell_angle_alpha   90.00000000
_cell_angle_beta   90.00000000
_cell_angle_gamma   120.00000000
_symmetry_Int_Tables_number   1
_chemical_formula_structural   RbInI4
_chemical_formula_sum   'Rb18 In18 I72'
_cell_volume   5709.77921054
_cell_formula_units_Z   18
loop_
 _symmetry_equiv_pos_site_id
 _symmetry_equiv_pos_as_xyz
  1  'x, y, z'
loop_
 _atom_site_type_symbol
 _atom_site_label
 _atom_site_symmetry_multiplicity
 _atom_site_fract_x
 _atom_site_fract_y
 _atom_site_fract_z
 _atom_site_occupancy
  Rb  Rb0  1  0.80265867  0.00953533  0.88595733  1
  Rb  Rb1  1  0.65713133  0.12645667  0.21929067  1
  Rb  Rb2  1  0.54021000  0.86400800  0.55262400  1
  Rb  Rb3  1  0.99046467  0.19734133  0.38595733  1
  Rb  Rb4  1  0.13599200  0.45979000  0.05262400  1
  Rb  Rb5  1  0.87354333  0.34286867  0.71929067  1
  Rb  Rb6  1  0.46932533  0.34286867  0.21929067  1
  Rb  Rb7  1  0.32379800  0.45979000  0.55262400  1
  Rb  Rb8  1  0.20687667  0.19734133  0.88595733  1
  Rb  Rb9  1  0.65713133  0.53067467  0.71929067  1
  Rb  Rb10  1  0.80265867  0.79312333  0.38595733  1
  Rb  Rb11  1  0.54021000  0.67620200  0.05262400  1
  Rb  Rb12  1  0.13599200  0.67620200  0.55262400  1
  Rb  Rb13  1  0.99046467  0.79312333  0.88595733  1
  Rb  Rb14  1  0.87354333  0.53067467  0.21929067  1
  Rb  Rb15  1  0.32379800  0.86400800  0.05262400  1
  Rb  Rb16  1  0.46932533  0.12645667  0.71929067  1
  Rb  Rb17  1  0.20687667  0.00953533  0.38595733  1
  In  In18  1  0.86858267  0.34325233  0.20658033  1
  In  In19  1  0.99008100  0.19199700  0.87324700  1
  In  In20  1  0.14133633  0.46475067  0.53991367  1
  In  In21  1  0.65674767  0.13141733  0.70658033  1
  In  In22  1  0.53524933  0.85866367  0.03991367  1
  In  In23  1  0.80800300  0.00991900  0.37324700  1
  In  In24  1  0.53524933  0.67658567  0.53991367  1
  In  In25  1  0.65674767  0.52533033  0.20658033  1
  In  In26  1  0.80800300  0.79808400  0.87324700  1
  In  In27  1  0.32341433  0.46475067  0.03991367  1
  In  In28  1  0.20191600  0.19199700  0.37324700  1
  In  In29  1  0.47466967  0.34325233  0.70658033  1
  In  In30  1  0.20191600  0.00991900  0.87324700  1
  In  In31  1  0.32341433  0.85866367  0.53991367  1
  In  In32  1  0.47466967  0.13141733  0.20658033  1
  In  In33  1  0.99008100  0.79808400  0.37324700  1
  In  In34  1  0.86858267  0.52533033  0.70658033  1
  In  In35  1  0.14133633  0.67658567  0.03991367  1
  I  I36  1  0.78572933  0.36612767  0.32925467  1
  I  I37  1  0.96720567  0.08626833  0.99592133  1
  I  I38  1  0.24706500  0.54760400  0.66258800  1
  I  I39  1  0.63387233  0.21427067  0.82925467  1
  I  I40  1  0.45239600  0.75293500  0.16258800  1
  I  I41  1  0.91373167  0.03279433  0.49592133  1
  I  I42  1  0.93425533  0.32135067  0.39509767  1
  I  I43  1  0.01198267  0.27957133  0.06176433  1
  I  I44  1  0.05376200  0.39907800  0.72843100  1
  I  I45  1  0.67864933  0.06574467  0.89509767  1
  I  I46  1  0.60092200  0.94623800  0.22843100  1
  I  I47  1  0.72042867  0.98801733  0.56176433  1
  I  I48  1  0.94967933  0.44194867  0.05842067  1
  I  I49  1  0.89138467  0.17439733  0.72508733  1
  I  I50  1  0.15893600  0.38365400  0.39175400  1
  I  I51  1  0.55805133  0.05032067  0.55842067  1
  I  I52  1  0.61634600  0.84106400  0.89175400  1
  I  I53  1  0.82560267  0.10861533  0.22508733  1
  I  I54  1  0.80800433  0.24559167  0.03815567  1
  I  I55  1  0.08774167  0.22907933  0.70482233  1
  I  I56  1  0.10425400  0.52532900  0.37148900  1
  I  I57  1  0.75440833  0.19199567  0.53815567  1
  I  I58  1  0.47467100  0.89574600  0.87148900  1
  I  I59  1  0.77092067  0.91225833  0.20482233  1
  I  I60  1  0.45239600  0.69946100  0.66258800  1
  I  I61  1  0.63387233  0.41960167  0.32925467  1
  I  I62  1  0.91373167  0.88093733  0.99592133  1
  I  I63  1  0.30053900  0.54760400  0.16258800  1
  I  I64  1  0.11906267  0.08626833  0.49592133  1
  I  I65  1  0.58039833  0.36612767  0.82925467  1
  I  I66  1  0.60092200  0.65468400  0.72843100  1
  I  I67  1  0.67864933  0.61290467  0.39509767  1
  I  I68  1  0.72042867  0.73241133  0.06176433  1
  I  I69  1  0.34531600  0.39907800  0.22843100  1
  I  I70  1  0.26758867  0.27957133  0.56176433  1
  I  I71  1  0.38709533  0.32135067  0.89509767  1
  I  I72  1  0.61634600  0.77528200  0.39175400  1
  I  I73  1  0.55805133  0.50773067  0.05842067  1
  I  I74  1  0.82560267  0.71698733  0.72508733  1
  I  I75  1  0.22471800  0.38365400  0.89175400  1
  I  I76  1  0.28301267  0.17439733  0.22508733  1
  I  I77  1  0.49226933  0.44194867  0.55842067  1
  I  I78  1  0.47467100  0.57892500  0.37148900  1
  I  I79  1  0.75440833  0.56241267  0.03815567  1
  I  I80  1  0.77092067  0.85866233  0.70482233  1
  I  I81  1  0.42107500  0.52532900  0.87148900  1
  I  I82  1  0.14133767  0.22907933  0.20482233  1
  I  I83  1  0.43758733  0.24559167  0.53815567  1
  I  I84  1  0.11906267  0.03279433  0.99592133  1
  I  I85  1  0.30053900  0.75293500  0.66258800  1
  I  I86  1  0.58039833  0.21427067  0.32925467  1
  I  I87  1  0.96720567  0.88093733  0.49592133  1
  I  I88  1  0.78572933  0.41960167  0.82925467  1
  I  I89  1  0.24706500  0.69946100  0.16258800  1
  I  I90  1  0.26758867  0.98801733  0.06176433  1
  I  I91  1  0.34531600  0.94623800  0.72843100  1
  I  I92  1  0.38709533  0.06574467  0.39509767  1
  I  I93  1  0.01198267  0.73241133  0.56176433  1
  I  I94  1  0.93425533  0.61290467  0.89509767  1
  I  I95  1  0.05376200  0.65468400  0.22843100  1
  I  I96  1  0.28301267  0.10861533  0.72508733  1
  I  I97  1  0.22471800  0.84106400  0.39175400  1
  I  I98  1  0.49226933  0.05032067  0.05842067  1
  I  I99  1  0.89138467  0.71698733  0.22508733  1
  I  I100  1  0.94967933  0.50773067  0.55842067  1
  I  I101  1  0.15893600  0.77528200  0.89175400  1
  I  I102  1  0.14133767  0.91225833  0.70482233  1
  I  I103  1  0.42107500  0.89574600  0.37148900  1
  I  I104  1  0.43758733  0.19199567  0.03815567  1
  I  I105  1  0.08774167  0.85866233  0.20482233  1
  I  I106  1  0.80800433  0.56241267  0.53815567  1
  I  I107  1  0.10425400  0.57892500  0.87148900  1
