# generated using pymatgen
data_BiI3
_symmetry_space_group_name_H-M   'P 1'
_cell_length_a   7.83496125
_cell_length_b   7.83496125
_cell_length_c   23.08583622
_cell_angle_alpha   90.00000000
_cell_angle_beta   90.00000000
_cell_angle_gamma   120.00000000
_symmetry_Int_Tables_number   1
_chemical_formula_structural   BiI3
_chemical_formula_sum   'Bi6 I18'
_cell_volume   1227.29777891
_cell_formula_units_Z   6
loop_
 _symmetry_equiv_pos_site_id
 _symmetry_equiv_pos_as_xyz
  1  'x, y, z'
loop_
 _atom_site_type_symbol
 _atom_site_label
 _atom_site_symmetry_multiplicity
 _atom_site_fract_x
 _atom_site_fract_y
 _atom_site_fract_z
 _atom_site_occupancy
  Bi  Bi0  1  0.00000000  0.00000000  0.33324100  1
  Bi  Bi1  1  0.66666667  0.33333333  0.00009233  1
  Bi  Bi2  1  0.66666667  0.33333333  0.66657433  1
  Bi  Bi3  1  0.33333333  0.66666667  0.33342567  1
  Bi  Bi4  1  0.33333333  0.66666667  0.99990767  1
  Bi  Bi5  1  0.00000000  0.00000000  0.66675900  1
  I  I6  1  0.35658933  0.35394067  0.07897567  1
  I  I7  1  0.99735133  0.64341067  0.07897567  1
  I  I8  1  0.02060733  0.33068467  0.25435767  1
  I  I9  1  0.66931533  0.68992267  0.25435767  1
  I  I10  1  0.31007733  0.97939267  0.25435767  1
  I  I11  1  0.64605933  0.00264867  0.07897567  1
  I  I12  1  0.02325600  0.68727400  0.41230900  1
  I  I13  1  0.66401800  0.97674400  0.41230900  1
  I  I14  1  0.68727400  0.66401800  0.58769100  1
  I  I15  1  0.33598200  0.02325600  0.58769100  1
  I  I16  1  0.97674400  0.31272600  0.58769100  1
  I  I17  1  0.31272600  0.33598200  0.41230900  1
  I  I18  1  0.68992267  0.02060733  0.74564233  1
  I  I19  1  0.33068467  0.31007733  0.74564233  1
  I  I20  1  0.35394067  0.99735133  0.92102433  1
  I  I21  1  0.00264867  0.35658933  0.92102433  1
  I  I22  1  0.64341067  0.64605933  0.92102433  1
  I  I23  1  0.97939267  0.66931533  0.74564233  1
