# generated using pymatgen
data_Bi2Se3
_symmetry_space_group_name_H-M   'P 1'
_cell_length_a   4.16011500
_cell_length_b   11.62226900
_cell_length_c   12.53561900
_cell_angle_alpha   90.00000000
_cell_angle_beta   90.00000000
_cell_angle_gamma   90.00000000
_symmetry_Int_Tables_number   1
_chemical_formula_structural   Bi2Se3
_chemical_formula_sum   'Bi8 Se12'
_cell_volume   606.09687279
_cell_formula_units_Z   4
loop_
 _symmetry_equiv_pos_site_id
 _symmetry_equiv_pos_as_xyz
  1  'x, y, z'
loop_
 _atom_site_type_symbol
 _atom_site_label
 _atom_site_symmetry_multiplicity
 _atom_site_fract_x
 _atom_site_fract_y
 _atom_site_fract_z
 _atom_site_occupancy
  Bi  Bi0  1  0.25000000  0.96191500  0.85129200  1
  Bi  Bi1  1  0.75000000  0.03808500  0.14870800  1
  Bi  Bi2  1  0.75000000  0.46191500  0.64870800  1
  Bi  Bi3  1  0.25000000  0.53808500  0.35129200  1
  Bi  Bi4  1  0.25000000  0.16955300  0.52169100  1
  Bi  Bi5  1  0.75000000  0.83044700  0.47830900  1
  Bi  Bi6  1  0.75000000  0.66955300  0.97830900  1
  Bi  Bi7  1  0.25000000  0.33044700  0.02169100  1
  Se  Se8  1  0.25000000  0.30509500  0.71195200  1
  Se  Se9  1  0.75000000  0.69490500  0.28804800  1
  Se  Se10  1  0.75000000  0.80509500  0.78804800  1
  Se  Se11  1  0.25000000  0.19490500  0.21195200  1
  Se  Se12  1  0.25000000  0.95159300  0.37397900  1
  Se  Se13  1  0.75000000  0.04840700  0.62602100  1
  Se  Se14  1  0.75000000  0.45159300  0.12602100  1
  Se  Se15  1  0.25000000  0.54840700  0.87397900  1
  Se  Se16  1  0.25000000  0.86479400  0.05107800  1
  Se  Se17  1  0.75000000  0.13520600  0.94892200  1
  Se  Se18  1  0.75000000  0.36479400  0.44892200  1
  Se  Se19  1  0.25000000  0.63520600  0.55107800  1
