# generated using pymatgen
data_K4CdP2
_symmetry_space_group_name_H-M   'P 1'
_cell_length_a   5.72506015
_cell_length_b   5.72506015
_cell_length_c   27.34204788
_cell_angle_alpha   90.00000000
_cell_angle_beta   90.00000000
_cell_angle_gamma   120.00000000
_symmetry_Int_Tables_number   1
_chemical_formula_structural   K4CdP2
_chemical_formula_sum   'K12 Cd3 P6'
_cell_volume   776.10732037
_cell_formula_units_Z   3
loop_
 _symmetry_equiv_pos_site_id
 _symmetry_equiv_pos_as_xyz
  1  'x, y, z'
loop_
 _atom_site_type_symbol
 _atom_site_label
 _atom_site_symmetry_multiplicity
 _atom_site_fract_x
 _atom_site_fract_y
 _atom_site_fract_z
 _atom_site_occupancy
  K  K0  1  0.00000000  0.00000000  0.10736400  1
  K  K1  1  0.00000000  0.00000000  0.29211600  1
  K  K2  1  0.66666667  0.33333333  0.04121733  1
  K  K3  1  0.66666667  0.33333333  0.22596933  1
  K  K4  1  0.66666667  0.33333333  0.44069733  1
  K  K5  1  0.66666667  0.33333333  0.62544933  1
  K  K6  1  0.33333333  0.66666667  0.37455067  1
  K  K7  1  0.33333333  0.66666667  0.55930267  1
  K  K8  1  0.33333333  0.66666667  0.77403067  1
  K  K9  1  0.33333333  0.66666667  0.95878267  1
  K  K10  1  0.00000000  0.00000000  0.70788400  1
  K  K11  1  0.00000000  0.00000000  0.89263600  1
  Cd  Cd12  1  0.33333333  0.66666667  0.16666667  1
  Cd  Cd13  1  1.00000000  1.00000000  0.50000000  1
  Cd  Cd14  1  0.66666667  0.33333333  0.83333333  1
  P  P15  1  0.33333333  0.66666667  0.25528567  1
  P  P16  1  0.33333333  0.66666667  0.07804767  1
  P  P17  1  0.00000000  0.00000000  0.58861900  1
  P  P18  1  0.00000000  0.00000000  0.41138100  1
  P  P19  1  0.66666667  0.33333333  0.92195233  1
  P  P20  1  0.66666667  0.33333333  0.74471433  1
