# generated using pymatgen
data_AlZnH4O2F5
_symmetry_space_group_name_H-M   'P 1'
_cell_length_a   6.49435200
_cell_length_b   7.28646800
_cell_length_c   10.60724400
_cell_angle_alpha   90.00000000
_cell_angle_beta   90.00000000
_cell_angle_gamma   90.00000000
_symmetry_Int_Tables_number   1
_chemical_formula_structural   AlZnH4O2F5
_chemical_formula_sum   'Al4 Zn4 H16 O8 F20'
_cell_volume   501.94420562
_cell_formula_units_Z   4
loop_
 _symmetry_equiv_pos_site_id
 _symmetry_equiv_pos_as_xyz
  1  'x, y, z'
loop_
 _atom_site_type_symbol
 _atom_site_label
 _atom_site_symmetry_multiplicity
 _atom_site_fract_x
 _atom_site_fract_y
 _atom_site_fract_z
 _atom_site_occupancy
  Al  Al0  1  0.25000000  0.25000000  0.25000000  1
  Al  Al1  1  0.75000000  0.25000000  0.75000000  1
  Al  Al2  1  0.75000000  0.75000000  0.75000000  1
  Al  Al3  1  0.25000000  0.75000000  0.25000000  1
  Zn  Zn4  1  0.00000000  0.50000000  0.00000000  1
  Zn  Zn5  1  0.50000000  0.00000000  0.00000000  1
  Zn  Zn6  1  0.50000000  0.00000000  0.50000000  1
  Zn  Zn7  1  0.00000000  0.50000000  0.50000000  1
  H  H8  1  0.12468900  0.89161500  0.90956300  1
  H  H9  1  0.62468900  0.60838500  0.09043700  1
  H  H10  1  0.87531100  0.89161500  0.09043700  1
  H  H11  1  0.37531100  0.60838500  0.90956300  1
  H  H12  1  0.12468900  0.10838500  0.90956300  1
  H  H13  1  0.37531100  0.39161500  0.90956300  1
  H  H14  1  0.87531100  0.10838500  0.09043700  1
  H  H15  1  0.62468900  0.39161500  0.09043700  1
  H  H16  1  0.62468900  0.39161500  0.40956300  1
  H  H17  1  0.12468900  0.10838500  0.59043700  1
  H  H18  1  0.37531100  0.39161500  0.59043700  1
  H  H19  1  0.87531100  0.10838500  0.40956300  1
  H  H20  1  0.62468900  0.60838500  0.40956300  1
  H  H21  1  0.87531100  0.89161500  0.40956300  1
  H  H22  1  0.37531100  0.60838500  0.59043700  1
  H  H23  1  0.12468900  0.89161500  0.59043700  1
  O  O24  1  0.70851200  0.50000000  0.43035400  1
  O  O25  1  0.29148800  0.50000000  0.93035400  1
  O  O26  1  0.70851200  0.50000000  0.06964600  1
  O  O27  1  0.29148800  0.50000000  0.56964600  1
  O  O28  1  0.20851200  0.00000000  0.93035400  1
  O  O29  1  0.79148800  0.00000000  0.43035400  1
  O  O30  1  0.20851200  0.00000000  0.56964600  1
  O  O31  1  0.79148800  0.00000000  0.06964600  1
  F  F32  1  0.05548300  0.28326400  0.12825100  1
  F  F33  1  0.30785700  0.50000000  0.25000000  1
  F  F34  1  0.69214300  0.50000000  0.75000000  1
  F  F35  1  0.44451700  0.21673600  0.12825100  1
  F  F36  1  0.55548300  0.78326400  0.87174900  1
  F  F37  1  0.55548300  0.21673600  0.87174900  1
  F  F38  1  0.44451700  0.78326400  0.12825100  1
  F  F39  1  0.94451700  0.71673600  0.87174900  1
  F  F40  1  0.94451700  0.28326400  0.87174900  1
  F  F41  1  0.05548300  0.71673600  0.12825100  1
  F  F42  1  0.55548300  0.78326400  0.62825100  1
  F  F43  1  0.80785700  0.00000000  0.75000000  1
  F  F44  1  0.19214300  0.00000000  0.25000000  1
  F  F45  1  0.94451700  0.71673600  0.62825100  1
  F  F46  1  0.05548300  0.28326400  0.37174900  1
  F  F47  1  0.05548300  0.71673600  0.37174900  1
  F  F48  1  0.94451700  0.28326400  0.62825100  1
  F  F49  1  0.44451700  0.21673600  0.37174900  1
  F  F50  1  0.44451700  0.78326400  0.37174900  1
  F  F51  1  0.55548300  0.21673600  0.62825100  1
