# generated using pymatgen
data_Tl2Sn2S3
_symmetry_space_group_name_H-M   'P 1'
_cell_length_a   14.43320600
_cell_length_b   8.30940600
_cell_length_c   7.19098170
_cell_angle_alpha   90.00000000
_cell_angle_beta   106.01624524
_cell_angle_gamma   90.00000000
_symmetry_Int_Tables_number   1
_chemical_formula_structural   Tl2Sn2S3
_chemical_formula_sum   'Tl8 Sn8 S12'
_cell_volume   828.94798941
_cell_formula_units_Z   4
loop_
 _symmetry_equiv_pos_site_id
 _symmetry_equiv_pos_as_xyz
  1  'x, y, z'
loop_
 _atom_site_type_symbol
 _atom_site_label
 _atom_site_symmetry_multiplicity
 _atom_site_fract_x
 _atom_site_fract_y
 _atom_site_fract_z
 _atom_site_occupancy
  Tl  Tl0  1  0.37755800  0.38581100  0.47651200  1
  Tl  Tl1  1  0.12244200  0.88581100  0.02348800  1
  Tl  Tl2  1  0.12244200  0.11418900  0.52348800  1
  Tl  Tl3  1  0.37755800  0.61418900  0.97651200  1
  Tl  Tl4  1  0.87755800  0.88581100  0.47651200  1
  Tl  Tl5  1  0.62244200  0.38581100  0.02348800  1
  Tl  Tl6  1  0.62244200  0.61418900  0.52348800  1
  Tl  Tl7  1  0.87755800  0.11418900  0.97651200  1
  Sn  Sn8  1  0.38048800  0.87820500  0.53974600  1
  Sn  Sn9  1  0.11951200  0.37820500  0.96025400  1
  Sn  Sn10  1  0.11951200  0.62179500  0.46025400  1
  Sn  Sn11  1  0.38048800  0.12179500  0.03974600  1
  Sn  Sn12  1  0.88048800  0.37820500  0.53974600  1
  Sn  Sn13  1  0.61951200  0.87820500  0.96025400  1
  Sn  Sn14  1  0.61951200  0.12179500  0.46025400  1
  Sn  Sn15  1  0.88048800  0.62179500  0.03974600  1
  S  S16  1  0.27322650  0.08242550  0.31117000  1
  S  S17  1  0.22677350  0.58242550  0.18883000  1
  S  S18  1  0.22677350  0.41757450  0.68883000  1
  S  S19  1  0.27322650  0.91757450  0.81117000  1
  S  S20  1  0.00000000  0.41074900  0.25000000  1
  S  S21  1  0.00000000  0.58925100  0.75000000  1
  S  S22  1  0.77322650  0.58242550  0.31117000  1
  S  S23  1  0.72677350  0.08242550  0.18883000  1
  S  S24  1  0.72677350  0.91757450  0.68883000  1
  S  S25  1  0.77322650  0.41757450  0.81117000  1
  S  S26  1  0.50000000  0.91074900  0.25000000  1
  S  S27  1  0.50000000  0.08925100  0.75000000  1
