# generated using pymatgen
data_ZrTe2Br5
_symmetry_space_group_name_H-M   'P 1'
_cell_length_a   14.57199600
_cell_length_b   11.43615800
_cell_length_c   9.90872285
_cell_angle_alpha   90.00000000
_cell_angle_beta   129.55341498
_cell_angle_gamma   90.00000000
_symmetry_Int_Tables_number   1
_chemical_formula_structural   ZrTe2Br5
_chemical_formula_sum   'Zr4 Te8 Br20'
_cell_volume   1273.17720345
_cell_formula_units_Z   4
loop_
 _symmetry_equiv_pos_site_id
 _symmetry_equiv_pos_as_xyz
  1  'x, y, z'
loop_
 _atom_site_type_symbol
 _atom_site_label
 _atom_site_symmetry_multiplicity
 _atom_site_fract_x
 _atom_site_fract_y
 _atom_site_fract_z
 _atom_site_occupancy
  Zr  Zr0  1  0.00000000  0.18777100  0.00000000  1
  Zr  Zr1  1  0.00000000  0.81222900  0.00000000  1
  Zr  Zr2  1  0.50000000  0.68777100  0.00000000  1
  Zr  Zr3  1  0.50000000  0.31222900  0.00000000  1
  Te  Te4  1  0.00000000  0.66851000  0.50000000  1
  Te  Te5  1  0.50000000  0.83149000  0.50000000  1
  Te  Te6  1  0.05745000  0.50000000  0.36894800  1
  Te  Te7  1  0.44255000  0.00000000  0.63105200  1
  Te  Te8  1  0.50000000  0.16851000  0.50000000  1
  Te  Te9  1  0.00000000  0.33149000  0.50000000  1
  Te  Te10  1  0.55745000  0.00000000  0.36894800  1
  Te  Te11  1  0.94255000  0.50000000  0.63105200  1
  Br  Br12  1  0.33550250  0.17145350  0.91480400  1
  Br  Br13  1  0.16449750  0.67145350  0.08519600  1
  Br  Br14  1  0.16449750  0.32854650  0.08519600  1
  Br  Br15  1  0.33550250  0.82854650  0.91480400  1
  Br  Br16  1  0.08350900  0.82677700  0.32909900  1
  Br  Br17  1  0.91649100  0.82677700  0.67090100  1
  Br  Br18  1  0.85053500  0.00000000  0.91980300  1
  Br  Br19  1  0.64946500  0.50000000  0.08019700  1
  Br  Br20  1  0.58350900  0.67322300  0.32909900  1
  Br  Br21  1  0.41649100  0.67322300  0.67090100  1
  Br  Br22  1  0.83550250  0.67145350  0.91480400  1
  Br  Br23  1  0.66449750  0.17145350  0.08519600  1
  Br  Br24  1  0.66449750  0.82854650  0.08519600  1
  Br  Br25  1  0.83550250  0.32854650  0.91480400  1
  Br  Br26  1  0.58350900  0.32677700  0.32909900  1
  Br  Br27  1  0.41649100  0.32677700  0.67090100  1
  Br  Br28  1  0.35053500  0.50000000  0.91980300  1
  Br  Br29  1  0.14946500  0.00000000  0.08019700  1
  Br  Br30  1  0.08350900  0.17322300  0.32909900  1
  Br  Br31  1  0.91649100  0.17322300  0.67090100  1
