# generated using pymatgen
data_InAgTe2
_symmetry_space_group_name_H-M   'P 1'
_cell_length_a   6.59147400
_cell_length_b   6.59147400
_cell_length_c   12.93192200
_cell_angle_alpha   90.00000000
_cell_angle_beta   90.00000000
_cell_angle_gamma   90.00000000
_symmetry_Int_Tables_number   1
_chemical_formula_structural   InAgTe2
_chemical_formula_sum   'In4 Ag4 Te8'
_cell_volume   561.86006249
_cell_formula_units_Z   4
loop_
 _symmetry_equiv_pos_site_id
 _symmetry_equiv_pos_as_xyz
  1  'x, y, z'
loop_
 _atom_site_type_symbol
 _atom_site_label
 _atom_site_symmetry_multiplicity
 _atom_site_fract_x
 _atom_site_fract_y
 _atom_site_fract_z
 _atom_site_occupancy
  In  In0  1  0.50000000  0.50000000  0.00000000  1
  In  In1  1  0.50000000  0.00000000  0.25000000  1
  In  In2  1  0.00000000  0.00000000  0.50000000  1
  In  In3  1  0.00000000  0.50000000  0.75000000  1
  Ag  Ag4  1  0.00000000  0.00000000  0.00000000  1
  Ag  Ag5  1  0.00000000  0.50000000  0.25000000  1
  Ag  Ag6  1  0.50000000  0.50000000  0.50000000  1
  Ag  Ag7  1  0.50000000  0.00000000  0.75000000  1
  Te  Te8  1  0.24513200  0.25000000  0.12500000  1
  Te  Te9  1  0.75000000  0.25486800  0.37500000  1
  Te  Te10  1  0.25000000  0.74513200  0.37500000  1
  Te  Te11  1  0.75486800  0.75000000  0.12500000  1
  Te  Te12  1  0.74513200  0.75000000  0.62500000  1
  Te  Te13  1  0.25000000  0.75486800  0.87500000  1
  Te  Te14  1  0.75000000  0.24513200  0.87500000  1
  Te  Te15  1  0.25486800  0.25000000  0.62500000  1
