# generated using pymatgen
data_InSn2Br5
_symmetry_space_group_name_H-M   'P 1'
_cell_length_a   8.43929800
_cell_length_b   8.43929800
_cell_length_c   14.82786000
_cell_angle_alpha   90.00000000
_cell_angle_beta   90.00000000
_cell_angle_gamma   90.00000000
_symmetry_Int_Tables_number   1
_chemical_formula_structural   InSn2Br5
_chemical_formula_sum   'In4 Sn8 Br20'
_cell_volume   1056.06614882
_cell_formula_units_Z   4
loop_
 _symmetry_equiv_pos_site_id
 _symmetry_equiv_pos_as_xyz
  1  'x, y, z'
loop_
 _atom_site_type_symbol
 _atom_site_label
 _atom_site_symmetry_multiplicity
 _atom_site_fract_x
 _atom_site_fract_y
 _atom_site_fract_z
 _atom_site_occupancy
  In  In0  1  0.00000000  0.00000000  0.25000000  1
  In  In1  1  0.50000000  0.50000000  0.25000000  1
  In  In2  1  0.50000000  0.50000000  0.75000000  1
  In  In3  1  0.00000000  0.00000000  0.75000000  1
  Sn  Sn4  1  0.32461700  0.17538300  0.00000000  1
  Sn  Sn5  1  0.17538300  0.67538300  0.00000000  1
  Sn  Sn6  1  0.67538300  0.82461700  0.00000000  1
  Sn  Sn7  1  0.82461700  0.32461700  0.00000000  1
  Sn  Sn8  1  0.82461700  0.67538300  0.50000000  1
  Sn  Sn9  1  0.67538300  0.17538300  0.50000000  1
  Sn  Sn10  1  0.17538300  0.32461700  0.50000000  1
  Sn  Sn11  1  0.32461700  0.82461700  0.50000000  1
  Br  Br12  1  0.83869350  0.33869350  0.36473550  1
  Br  Br13  1  0.33869350  0.83869350  0.13526450  1
  Br  Br14  1  0.66130650  0.16130650  0.13526450  1
  Br  Br15  1  0.83869350  0.66130650  0.13526450  1
  Br  Br16  1  0.16130650  0.33869350  0.13526450  1
  Br  Br17  1  0.66130650  0.83869350  0.36473550  1
  Br  Br18  1  0.00000000  0.00000000  0.00000000  1
  Br  Br19  1  0.50000000  0.50000000  0.00000000  1
  Br  Br20  1  0.16130650  0.66130650  0.36473550  1
  Br  Br21  1  0.33869350  0.16130650  0.36473550  1
  Br  Br22  1  0.33869350  0.83869350  0.86473550  1
  Br  Br23  1  0.83869350  0.33869350  0.63526450  1
  Br  Br24  1  0.16130650  0.66130650  0.63526450  1
  Br  Br25  1  0.33869350  0.16130650  0.63526450  1
  Br  Br26  1  0.66130650  0.83869350  0.63526450  1
  Br  Br27  1  0.16130650  0.33869350  0.86473550  1
  Br  Br28  1  0.50000000  0.50000000  0.50000000  1
  Br  Br29  1  0.00000000  0.00000000  0.50000000  1
  Br  Br30  1  0.66130650  0.16130650  0.86473550  1
  Br  Br31  1  0.83869350  0.66130650  0.86473550  1
