# generated using pymatgen
data_K2AgBi
_symmetry_space_group_name_H-M   'P 1'
_cell_length_a   8.50654000
_cell_length_b   10.79294200
_cell_length_c   6.48468400
_cell_angle_alpha   90.00000000
_cell_angle_beta   90.00000000
_cell_angle_gamma   90.00000000
_symmetry_Int_Tables_number   1
_chemical_formula_structural   K2AgBi
_chemical_formula_sum   'K8 Ag4 Bi4'
_cell_volume   595.36268242
_cell_formula_units_Z   4
loop_
 _symmetry_equiv_pos_site_id
 _symmetry_equiv_pos_as_xyz
  1  'x, y, z'
loop_
 _atom_site_type_symbol
 _atom_site_label
 _atom_site_symmetry_multiplicity
 _atom_site_fract_x
 _atom_site_fract_y
 _atom_site_fract_z
 _atom_site_occupancy
  K  K0  1  0.65286050  0.67424450  0.75000000  1
  K  K1  1  0.34713950  0.32575550  0.25000000  1
  K  K2  1  0.65286050  0.32575550  0.75000000  1
  K  K3  1  0.34713950  0.67424450  0.25000000  1
  K  K4  1  0.15286050  0.17424450  0.75000000  1
  K  K5  1  0.84713950  0.82575550  0.25000000  1
  K  K6  1  0.15286050  0.82575550  0.75000000  1
  K  K7  1  0.84713950  0.17424450  0.25000000  1
  Ag  Ag8  1  0.50000000  0.00000000  0.00000000  1
  Ag  Ag9  1  0.50000000  0.00000000  0.50000000  1
  Ag  Ag10  1  0.00000000  0.50000000  0.00000000  1
  Ag  Ag11  1  0.00000000  0.50000000  0.50000000  1
  Bi  Bi12  1  0.77123300  0.00000000  0.75000000  1
  Bi  Bi13  1  0.22876700  0.00000000  0.25000000  1
  Bi  Bi14  1  0.27123300  0.50000000  0.75000000  1
  Bi  Bi15  1  0.72876700  0.50000000  0.25000000  1
