# generated using pymatgen
data_TeO3
_symmetry_space_group_name_H-M   'P 1'
_cell_length_a   5.04735795
_cell_length_b   5.04735795
_cell_length_c   13.22558519
_cell_angle_alpha   90.00000000
_cell_angle_beta   90.00000000
_cell_angle_gamma   120.00000000
_symmetry_Int_Tables_number   1
_chemical_formula_structural   TeO3
_chemical_formula_sum   'Te6 O18'
_cell_volume   291.79224133
_cell_formula_units_Z   6
loop_
 _symmetry_equiv_pos_site_id
 _symmetry_equiv_pos_as_xyz
  1  'x, y, z'
loop_
 _atom_site_type_symbol
 _atom_site_label
 _atom_site_symmetry_multiplicity
 _atom_site_fract_x
 _atom_site_fract_y
 _atom_site_fract_z
 _atom_site_occupancy
  Te  Te0  1  0.33333333  0.66666667  0.16666667  1
  Te  Te1  1  0.00000000  0.00000000  0.00000000  1
  Te  Te2  1  1.00000000  0.00000000  0.50000000  1
  Te  Te3  1  0.66666667  0.33333333  0.33333333  1
  Te  Te4  1  0.66666667  0.33333333  0.83333333  1
  Te  Te5  1  0.33333333  0.66666667  0.66666667  1
  O  O6  1  0.03077567  0.33333333  0.08333333  1
  O  O7  1  0.30255767  0.96922433  0.08333333  1
  O  O8  1  0.66666667  0.69744233  0.08333333  1
  O  O9  1  0.63589100  0.00000000  0.25000000  1
  O  O10  1  0.36410900  0.36410900  0.25000000  1
  O  O11  1  0.00000000  0.63589100  0.25000000  1
  O  O12  1  0.69744233  0.66666667  0.41666667  1
  O  O13  1  0.96922433  0.30255767  0.41666667  1
  O  O14  1  0.33333333  0.03077567  0.41666667  1
  O  O15  1  0.30255767  0.33333333  0.58333333  1
  O  O16  1  0.03077567  0.69744233  0.58333333  1
  O  O17  1  0.66666667  0.96922433  0.58333333  1
  O  O18  1  0.36410900  0.00000000  0.75000000  1
  O  O19  1  0.63589100  0.63589100  0.75000000  1
  O  O20  1  0.00000000  0.36410900  0.75000000  1
  O  O21  1  0.96922433  0.66666667  0.91666667  1
  O  O22  1  0.69744233  0.03077567  0.91666667  1
  O  O23  1  0.33333333  0.30255767  0.91666667  1
