# generated using pymatgen
data_Bi2Te2S
_symmetry_space_group_name_H-M   'P 1'
_cell_length_a   4.29243204
_cell_length_b   4.29243204
_cell_length_c   31.93984016
_cell_angle_alpha   90.00000000
_cell_angle_beta   90.00000000
_cell_angle_gamma   120.00000000
_symmetry_Int_Tables_number   1
_chemical_formula_structural   Bi2Te2S
_chemical_formula_sum   'Bi6 Te6 S3'
_cell_volume   509.64788444
_cell_formula_units_Z   3
loop_
 _symmetry_equiv_pos_site_id
 _symmetry_equiv_pos_as_xyz
  1  'x, y, z'
loop_
 _atom_site_type_symbol
 _atom_site_label
 _atom_site_symmetry_multiplicity
 _atom_site_fract_x
 _atom_site_fract_y
 _atom_site_fract_z
 _atom_site_occupancy
  Bi  Bi0  1  0.33333333  0.66666667  0.27878067  1
  Bi  Bi1  1  0.33333333  0.66666667  0.05455267  1
  Bi  Bi2  1  0.00000000  0.00000000  0.61211400  1
  Bi  Bi3  1  0.00000000  0.00000000  0.38788600  1
  Bi  Bi4  1  0.66666667  0.33333333  0.94544733  1
  Bi  Bi5  1  0.66666667  0.33333333  0.72121933  1
  Te  Te6  1  0.00000000  0.00000000  0.22266500  1
  Te  Te7  1  0.66666667  0.33333333  0.11066833  1
  Te  Te8  1  0.66666667  0.33333333  0.55599833  1
  Te  Te9  1  0.33333333  0.66666667  0.44400167  1
  Te  Te10  1  0.33333333  0.66666667  0.88933167  1
  Te  Te11  1  0.00000000  0.00000000  0.77733500  1
  S  S12  1  0.00000000  0.00000000  0.00000000  1
  S  S13  1  0.66666667  0.33333333  0.33333333  1
  S  S14  1  0.33333333  0.66666667  0.66666667  1
