# generated using pymatgen
data_CaAs(HO)7
_symmetry_space_group_name_H-M   'P 1'
_cell_length_a   10.85382200
_cell_length_b   11.11791300
_cell_length_c   11.37086000
_cell_angle_alpha   90.00000000
_cell_angle_beta   90.00000000
_cell_angle_gamma   90.00000000
_symmetry_Int_Tables_number   1
_chemical_formula_structural   CaAs(HO)7
_chemical_formula_sum   'Ca8 As8 H56 O56'
_cell_volume   1372.14269766
_cell_formula_units_Z   8
loop_
 _symmetry_equiv_pos_site_id
 _symmetry_equiv_pos_as_xyz
  1  'x, y, z'
loop_
 _atom_site_type_symbol
 _atom_site_label
 _atom_site_symmetry_multiplicity
 _atom_site_fract_x
 _atom_site_fract_y
 _atom_site_fract_z
 _atom_site_occupancy
  Ca  Ca0  1  0.08603600  0.24856500  0.80043200  1
  Ca  Ca1  1  0.58603600  0.75143500  0.69956800  1
  Ca  Ca2  1  0.91396400  0.25143500  0.30043200  1
  Ca  Ca3  1  0.41396400  0.74856500  0.19956800  1
  Ca  Ca4  1  0.91396400  0.75143500  0.19956800  1
  Ca  Ca5  1  0.41396400  0.24856500  0.30043200  1
  Ca  Ca6  1  0.08603600  0.74856500  0.69956800  1
  Ca  Ca7  1  0.58603600  0.25143500  0.80043200  1
  As  As8  1  0.65067100  0.36708900  0.49643600  1
  As  As9  1  0.15067100  0.63291100  0.00356400  1
  As  As10  1  0.34932900  0.13291100  0.99643600  1
  As  As11  1  0.84932900  0.86708900  0.50356400  1
  As  As12  1  0.34932900  0.63291100  0.50356400  1
  As  As13  1  0.84932900  0.36708900  0.99643600  1
  As  As14  1  0.65067100  0.86708900  0.00356400  1
  As  As15  1  0.15067100  0.13291100  0.49643600  1
  H  H16  1  0.84296400  0.32612600  0.66014000  1
  H  H17  1  0.34296400  0.67387400  0.83986000  1
  H  H18  1  0.15703600  0.17387400  0.16014000  1
  H  H19  1  0.65703600  0.82612600  0.33986000  1
  H  H20  1  0.15703600  0.67387400  0.33986000  1
  H  H21  1  0.65703600  0.32612600  0.16014000  1
  H  H22  1  0.84296400  0.82612600  0.83986000  1
  H  H23  1  0.34296400  0.17387400  0.66014000  1
  H  H24  1  0.95245400  0.27498800  0.58344800  1
  H  H25  1  0.45245400  0.72501200  0.91655200  1
  H  H26  1  0.04754600  0.22501200  0.08344800  1
  H  H27  1  0.54754600  0.77498800  0.41655200  1
  H  H28  1  0.04754600  0.72501200  0.41655200  1
  H  H29  1  0.54754600  0.27498800  0.08344800  1
  H  H30  1  0.95245400  0.77498800  0.91655200  1
  H  H31  1  0.45245400  0.22501200  0.58344800  1
  H  H32  1  0.87046200  0.10534400  0.86854700  1
  H  H33  1  0.37046200  0.89465600  0.63145300  1
  H  H34  1  0.12953800  0.39465600  0.36854700  1
  H  H35  1  0.62953800  0.60534400  0.13145300  1
  H  H36  1  0.12953800  0.89465600  0.13145300  1
  H  H37  1  0.62953800  0.10534400  0.36854700  1
  H  H38  1  0.87046200  0.60534400  0.63145300  1
  H  H39  1  0.37046200  0.39465600  0.86854700  1
  H  H40  1  0.96117100  0.99475000  0.85738600  1
  H  H41  1  0.46117100  0.00525000  0.64261400  1
  H  H42  1  0.03882900  0.50525000  0.35738600  1
  H  H43  1  0.53882900  0.49475000  0.14261400  1
  H  H44  1  0.03882900  0.00525000  0.14261400  1
  H  H45  1  0.53882900  0.99475000  0.35738600  1
  H  H46  1  0.96117100  0.49475000  0.64261400  1
  H  H47  1  0.46117100  0.50525000  0.85738600  1
  H  H48  1  0.18662600  0.50602100  0.78762100  1
  H  H49  1  0.68662600  0.49397900  0.71237900  1
  H  H50  1  0.81337400  0.99397900  0.28762100  1
  H  H51  1  0.31337400  0.00602100  0.21237900  1
  H  H52  1  0.81337400  0.49397900  0.21237900  1
  H  H53  1  0.31337400  0.50602100  0.28762100  1
  H  H54  1  0.18662600  0.00602100  0.71237900  1
  H  H55  1  0.68662600  0.99397900  0.78762100  1
  H  H56  1  0.23648900  0.44308600  0.67170600  1
  H  H57  1  0.73648900  0.55691400  0.82829400  1
  H  H58  1  0.76351100  0.05691400  0.17170600  1
  H  H59  1  0.26351100  0.94308600  0.32829400  1
  H  H60  1  0.76351100  0.55691400  0.32829400  1
  H  H61  1  0.26351100  0.44308600  0.17170600  1
  H  H62  1  0.23648900  0.94308600  0.82829400  1
  H  H63  1  0.73648900  0.05691400  0.67170600  1
  H  H64  1  0.60624700  0.57323900  0.48175600  1
  H  H65  1  0.10624700  0.42676100  0.01824400  1
  H  H66  1  0.39375300  0.92676100  0.98175600  1
  H  H67  1  0.89375300  0.07323900  0.51824400  1
  H  H68  1  0.39375300  0.42676100  0.51824400  1
  H  H69  1  0.89375300  0.57323900  0.98175600  1
  H  H70  1  0.60624700  0.07323900  0.01824400  1
  H  H71  1  0.10624700  0.92676100  0.48175600  1
  O  O72  1  0.93486500  0.32192100  0.65616400  1
  O  O73  1  0.43486500  0.67807900  0.84383600  1
  O  O74  1  0.06513500  0.17807900  0.15616400  1
  O  O75  1  0.56513500  0.82192100  0.34383600  1
  O  O76  1  0.06513500  0.67807900  0.34383600  1
  O  O77  1  0.56513500  0.32192100  0.15616400  1
  O  O78  1  0.93486500  0.82192100  0.84383600  1
  O  O79  1  0.43486500  0.17807900  0.65616400  1
  O  O80  1  0.95733000  0.08347700  0.85866100  1
  O  O81  1  0.45733000  0.91652300  0.64133900  1
  O  O82  1  0.04267000  0.41652300  0.35866100  1
  O  O83  1  0.54267000  0.58347700  0.14133900  1
  O  O84  1  0.04267000  0.91652300  0.14133900  1
  O  O85  1  0.54267000  0.08347700  0.35866100  1
  O  O86  1  0.95733000  0.58347700  0.64133900  1
  O  O87  1  0.45733000  0.41652300  0.85866100  1
  O  O88  1  0.18862400  0.42807800  0.74440400  1
  O  O89  1  0.68862400  0.57192200  0.75559600  1
  O  O90  1  0.81137600  0.07192200  0.24440400  1
  O  O91  1  0.31137600  0.92807800  0.25559600  1
  O  O92  1  0.81137600  0.57192200  0.25559600  1
  O  O93  1  0.31137600  0.42807800  0.24440400  1
  O  O94  1  0.18862400  0.92807800  0.75559600  1
  O  O95  1  0.68862400  0.07192200  0.74440400  1
  O  O96  1  0.67779600  0.51915200  0.45603400  1
  O  O97  1  0.17779600  0.48084800  0.04396600  1
  O  O98  1  0.32220400  0.98084800  0.95603400  1
  O  O99  1  0.82220400  0.01915200  0.54396600  1
  O  O100  1  0.32220400  0.48084800  0.54396600  1
  O  O101  1  0.82220400  0.51915200  0.95603400  1
  O  O102  1  0.67779600  0.01915200  0.04396600  1
  O  O103  1  0.17779600  0.98084800  0.45603400  1
  O  O104  1  0.74120200  0.28319700  0.40948200  1
  O  O105  1  0.24120200  0.71680300  0.09051800  1
  O  O106  1  0.25879800  0.21680300  0.90948200  1
  O  O107  1  0.75879800  0.78319700  0.59051800  1
  O  O108  1  0.25879800  0.71680300  0.59051800  1
  O  O109  1  0.75879800  0.28319700  0.90948200  1
  O  O110  1  0.74120200  0.78319700  0.09051800  1
  O  O111  1  0.24120200  0.21680300  0.40948200  1
  O  O112  1  0.68362600  0.35472100  0.64397700  1
  O  O113  1  0.18362600  0.64527900  0.85602300  1
  O  O114  1  0.31637400  0.14527900  0.14397700  1
  O  O115  1  0.81637400  0.85472100  0.35602300  1
  O  O116  1  0.31637400  0.64527900  0.35602300  1
  O  O117  1  0.81637400  0.35472100  0.14397700  1
  O  O118  1  0.68362600  0.85472100  0.85602300  1
  O  O119  1  0.18362600  0.14527900  0.64397700  1
  O  O120  1  0.49658500  0.33671900  0.47372400  1
  O  O121  1  0.99658500  0.66328100  0.02627600  1
  O  O122  1  0.50341500  0.16328100  0.97372400  1
  O  O123  1  0.00341500  0.83671900  0.52627600  1
  O  O124  1  0.50341500  0.66328100  0.52627600  1
  O  O125  1  0.00341500  0.33671900  0.97372400  1
  O  O126  1  0.49658500  0.83671900  0.02627600  1
  O  O127  1  0.99658500  0.16328100  0.47372400  1
