# generated using pymatgen
data_Zn(InTe2)2
_symmetry_space_group_name_H-M   'P 1'
_cell_length_a   6.23826200
_cell_length_b   6.23826200
_cell_length_c   12.63734000
_cell_angle_alpha   90.00000000
_cell_angle_beta   90.00000000
_cell_angle_gamma   90.00000000
_symmetry_Int_Tables_number   1
_chemical_formula_structural   Zn(InTe2)2
_chemical_formula_sum   'Zn2 In4 Te8'
_cell_volume   491.79362122
_cell_formula_units_Z   2
loop_
 _symmetry_equiv_pos_site_id
 _symmetry_equiv_pos_as_xyz
  1  'x, y, z'
loop_
 _atom_site_type_symbol
 _atom_site_label
 _atom_site_symmetry_multiplicity
 _atom_site_fract_x
 _atom_site_fract_y
 _atom_site_fract_z
 _atom_site_occupancy
  Zn  Zn0  1  0.00000000  0.00000000  0.00000000  1
  Zn  Zn1  1  0.50000000  0.50000000  0.50000000  1
  In  In2  1  0.50000000  0.50000000  0.00000000  1
  In  In3  1  0.50000000  0.00000000  0.25000000  1
  In  In4  1  0.00000000  0.00000000  0.50000000  1
  In  In5  1  0.00000000  0.50000000  0.75000000  1
  Te  Te6  1  0.76496750  0.28644050  0.36819750  1
  Te  Te7  1  0.21355950  0.26496750  0.13180250  1
  Te  Te8  1  0.78644050  0.73503250  0.13180250  1
  Te  Te9  1  0.23503250  0.71355950  0.36819750  1
  Te  Te10  1  0.26496750  0.78644050  0.86819750  1
  Te  Te11  1  0.71355950  0.76496750  0.63180250  1
  Te  Te12  1  0.28644050  0.23503250  0.63180250  1
  Te  Te13  1  0.73503250  0.21355950  0.86819750  1
