# generated using pymatgen
data_Ba7(ClF6)2
_symmetry_space_group_name_H-M   'P 1'
_cell_length_a   10.79945802
_cell_length_b   10.79945802
_cell_length_c   4.23552400
_cell_angle_alpha   90.00000000
_cell_angle_beta   90.00000000
_cell_angle_gamma   120.00000000
_symmetry_Int_Tables_number   1
_chemical_formula_structural   Ba7(ClF6)2
_chemical_formula_sum   'Ba7 Cl2 F12'
_cell_volume   427.80090598
_cell_formula_units_Z   1
loop_
 _symmetry_equiv_pos_site_id
 _symmetry_equiv_pos_as_xyz
  1  'x, y, z'
loop_
 _atom_site_type_symbol
 _atom_site_label
 _atom_site_symmetry_multiplicity
 _atom_site_fract_x
 _atom_site_fract_y
 _atom_site_fract_z
 _atom_site_occupancy
  Ba  Ba0  1  0.62085500  0.55429700  0.50000000  1
  Ba  Ba1  1  0.44570300  0.06655800  0.50000000  1
  Ba  Ba2  1  0.93344200  0.37914500  0.50000000  1
  Ba  Ba3  1  0.74419400  0.96889400  0.00000000  1
  Ba  Ba4  1  0.03110600  0.77530000  0.00000000  1
  Ba  Ba5  1  0.22470000  0.25580600  0.00000000  1
  Ba  Ba6  1  0.33333333  0.66666667  0.00000000  1
  Cl  Cl7  1  0.00000000  0.00000000  0.50000000  1
  Cl  Cl8  1  0.66666667  0.33333333  0.00000000  1
  F  F9  1  0.38161900  0.27806800  0.50000000  1
  F  F10  1  0.72193200  0.10355100  0.50000000  1
  F  F11  1  0.89644900  0.61838100  0.50000000  1
  F  F12  1  0.54809000  0.76233800  0.50000000  1
  F  F13  1  0.23766200  0.78575200  0.50000000  1
  F  F14  1  0.21424800  0.45191000  0.50000000  1
  F  F15  1  0.76347900  0.73040100  0.00000000  1
  F  F16  1  0.26959900  0.03307800  0.00000000  1
  F  F17  1  0.96692200  0.23652100  0.00000000  1
  F  F18  1  0.45441500  0.51132000  0.00000000  1
  F  F19  1  0.48868000  0.94309500  0.00000000  1
  F  F20  1  0.05690500  0.54558500  0.00000000  1
