# generated using pymatgen
data_HgCl
_symmetry_space_group_name_H-M   'P 1'
_cell_length_a   4.74624400
_cell_length_b   4.74624400
_cell_length_c   11.12450400
_cell_angle_alpha   90.00000000
_cell_angle_beta   90.00000000
_cell_angle_gamma   90.00000000
_symmetry_Int_Tables_number   1
_chemical_formula_structural   HgCl
_chemical_formula_sum   'Hg4 Cl4'
_cell_volume   250.59983389
_cell_formula_units_Z   4
loop_
 _symmetry_equiv_pos_site_id
 _symmetry_equiv_pos_as_xyz
  1  'x, y, z'
loop_
 _atom_site_type_symbol
 _atom_site_label
 _atom_site_symmetry_multiplicity
 _atom_site_fract_x
 _atom_site_fract_y
 _atom_site_fract_z
 _atom_site_occupancy
  Hg  Hg0  1  0.50000000  0.50000000  0.38274600  1
  Hg  Hg1  1  0.00000000  0.00000000  0.11725400  1
  Hg  Hg2  1  0.00000000  0.00000000  0.88274600  1
  Hg  Hg3  1  0.50000000  0.50000000  0.61725400  1
  Cl  Cl4  1  0.50000000  0.50000000  0.16319900  1
  Cl  Cl5  1  0.00000000  0.00000000  0.33680100  1
  Cl  Cl6  1  0.00000000  0.00000000  0.66319900  1
  Cl  Cl7  1  0.50000000  0.50000000  0.83680100  1
