# generated using pymatgen
data_Li5SbO5
_symmetry_space_group_name_H-M   'P 1'
_cell_length_a   9.82783400
_cell_length_b   4.06788400
_cell_length_c   5.87935709
_cell_angle_alpha   90.00000000
_cell_angle_beta   108.88382711
_cell_angle_gamma   90.00000000
_symmetry_Int_Tables_number   1
_chemical_formula_structural   Li5SbO5
_chemical_formula_sum   'Li10 Sb2 O10'
_cell_volume   222.39677446
_cell_formula_units_Z   2
loop_
 _symmetry_equiv_pos_site_id
 _symmetry_equiv_pos_as_xyz
  1  'x, y, z'
loop_
 _atom_site_type_symbol
 _atom_site_label
 _atom_site_symmetry_multiplicity
 _atom_site_fract_x
 _atom_site_fract_y
 _atom_site_fract_z
 _atom_site_occupancy
  Li  Li0  1  0.28865600  0.00000000  0.65830000  1
  Li  Li1  1  0.00000000  0.00000000  0.50000000  1
  Li  Li2  1  0.18859400  0.50000000  0.86075700  1
  Li  Li3  1  0.31140600  0.00000000  0.13924300  1
  Li  Li4  1  0.21134400  0.50000000  0.34170000  1
  Li  Li5  1  0.78865600  0.50000000  0.65830000  1
  Li  Li6  1  0.50000000  0.50000000  0.50000000  1
  Li  Li7  1  0.68859400  0.00000000  0.86075700  1
  Li  Li8  1  0.81140600  0.50000000  0.13924300  1
  Li  Li9  1  0.71134400  0.00000000  0.34170000  1
  Sb  Sb10  1  0.00000000  0.00000000  0.00000000  1
  Sb  Sb11  1  0.50000000  0.50000000  0.00000000  1
  O  O12  1  0.14390100  0.00000000  0.82624300  1
  O  O13  1  0.00000000  0.50000000  0.00000000  1
  O  O14  1  0.34314600  0.50000000  0.68292500  1
  O  O15  1  0.15685400  0.00000000  0.31707500  1
  O  O16  1  0.35609900  0.50000000  0.17375700  1
  O  O17  1  0.64390100  0.50000000  0.82624300  1
  O  O18  1  0.50000000  0.00000000  0.00000000  1
  O  O19  1  0.84314600  0.00000000  0.68292500  1
  O  O20  1  0.65685400  0.50000000  0.31707500  1
  O  O21  1  0.85609900  0.00000000  0.17375700  1
