# generated using pymatgen
data_Ba(AuF4)2
_symmetry_space_group_name_H-M   'P 1'
_cell_length_a   10.01508400
_cell_length_b   10.01508400
_cell_length_c   7.79852800
_cell_angle_alpha   90.00000000
_cell_angle_beta   90.00000000
_cell_angle_gamma   90.00000000
_symmetry_Int_Tables_number   1
_chemical_formula_structural   Ba(AuF4)2
_chemical_formula_sum   'Ba4 Au8 F32'
_cell_volume   782.20723430
_cell_formula_units_Z   4
loop_
 _symmetry_equiv_pos_site_id
 _symmetry_equiv_pos_as_xyz
  1  'x, y, z'
loop_
 _atom_site_type_symbol
 _atom_site_label
 _atom_site_symmetry_multiplicity
 _atom_site_fract_x
 _atom_site_fract_y
 _atom_site_fract_z
 _atom_site_occupancy
  Ba  Ba0  1  0.00000000  0.00000000  0.00000000  1
  Ba  Ba1  1  0.50000000  0.00000000  0.25000000  1
  Ba  Ba2  1  0.50000000  0.50000000  0.50000000  1
  Ba  Ba3  1  0.00000000  0.50000000  0.75000000  1
  Au  Au4  1  0.33768950  0.27774150  0.87274150  1
  Au  Au5  1  0.77774150  0.16231050  0.62725850  1
  Au  Au6  1  0.66231050  0.72225850  0.87274150  1
  Au  Au7  1  0.22225850  0.83768950  0.62725850  1
  Au  Au8  1  0.83768950  0.77774150  0.37274150  1
  Au  Au9  1  0.27774150  0.66231050  0.12725850  1
  Au  Au10  1  0.16231050  0.22225850  0.37274150  1
  Au  Au11  1  0.72225850  0.33768950  0.12725850  1
  F  F12  1  0.23881050  0.84236250  0.03793050  1
  F  F13  1  0.65763750  0.73881050  0.46206950  1
  F  F14  1  0.34236250  0.26118950  0.46206950  1
  F  F15  1  0.76118950  0.15763750  0.03793050  1
  F  F16  1  0.55338950  0.27364750  0.22748650  1
  F  F17  1  0.22635250  0.05338950  0.27251350  1
  F  F18  1  0.60908850  0.09672150  0.53404050  1
  F  F19  1  0.40327850  0.10908850  0.96595950  1
  F  F20  1  0.59672150  0.89091150  0.96595950  1
  F  F21  1  0.39091150  0.90327850  0.53404050  1
  F  F22  1  0.48522350  0.67438950  0.78339350  1
  F  F23  1  0.82561050  0.98522350  0.71660650  1
  F  F24  1  0.17438950  0.01477650  0.71660650  1
  F  F25  1  0.51477650  0.32561050  0.78339350  1
  F  F26  1  0.44661050  0.72635250  0.22748650  1
  F  F27  1  0.77364750  0.94661050  0.27251350  1
  F  F28  1  0.73881050  0.34236250  0.53793050  1
  F  F29  1  0.15763750  0.23881050  0.96206950  1
  F  F30  1  0.84236250  0.76118950  0.96206950  1
  F  F31  1  0.26118950  0.65763750  0.53793050  1
  F  F32  1  0.05338950  0.77364750  0.72748650  1
  F  F33  1  0.72635250  0.55338950  0.77251350  1
  F  F34  1  0.10908850  0.59672150  0.03404050  1
  F  F35  1  0.90327850  0.60908850  0.46595950  1
  F  F36  1  0.09672150  0.39091150  0.46595950  1
  F  F37  1  0.89091150  0.40327850  0.03404050  1
  F  F38  1  0.98522350  0.17438950  0.28339350  1
  F  F39  1  0.32561050  0.48522350  0.21660650  1
  F  F40  1  0.67438950  0.51477650  0.21660650  1
  F  F41  1  0.01477650  0.82561050  0.28339350  1
  F  F42  1  0.94661050  0.22635250  0.72748650  1
  F  F43  1  0.27364750  0.44661050  0.77251350  1
