# generated using pymatgen
data_Al2O3
_symmetry_space_group_name_H-M   'P 1'
_cell_length_a   4.88643100
_cell_length_b   8.39683800
_cell_length_c   9.02480000
_cell_angle_alpha   90.00000000
_cell_angle_beta   90.00000000
_cell_angle_gamma   90.00000000
_symmetry_Int_Tables_number   1
_chemical_formula_structural   Al2O3
_chemical_formula_sum   'Al16 O24'
_cell_volume   370.29268367
_cell_formula_units_Z   8
loop_
 _symmetry_equiv_pos_site_id
 _symmetry_equiv_pos_as_xyz
  1  'x, y, z'
loop_
 _atom_site_type_symbol
 _atom_site_label
 _atom_site_symmetry_multiplicity
 _atom_site_fract_x
 _atom_site_fract_y
 _atom_site_fract_z
 _atom_site_occupancy
  Al  Al0  1  0.67613300  0.15242900  0.20686800  1
  Al  Al1  1  0.82386700  0.65242900  0.70686800  1
  Al  Al2  1  0.68340100  0.83989500  0.01602200  1
  Al  Al3  1  0.81659900  0.33989500  0.51602200  1
  Al  Al4  1  0.31659900  0.16010500  0.51602200  1
  Al  Al5  1  0.17235300  0.03096000  0.00615100  1
  Al  Al6  1  0.68553700  0.15388500  0.79470700  1
  Al  Al7  1  0.18553700  0.34611500  0.79470700  1
  Al  Al8  1  0.31446300  0.84611500  0.29470700  1
  Al  Al9  1  0.82764700  0.96904000  0.50615100  1
  Al  Al10  1  0.67235300  0.46904000  0.00615100  1
  Al  Al11  1  0.17613300  0.34757100  0.20686800  1
  Al  Al12  1  0.32386700  0.84757100  0.70686800  1
  Al  Al13  1  0.81446300  0.65388500  0.29470700  1
  Al  Al14  1  0.32764700  0.53096000  0.50615100  1
  Al  Al15  1  0.18340100  0.66010500  0.01602200  1
  O  O16  1  0.97724800  0.51171500  0.14172500  1
  O  O17  1  0.34312200  0.83905100  0.90574200  1
  O  O18  1  0.02076600  0.82395600  0.13487100  1
  O  O19  1  0.48246800  0.66865900  0.64752600  1
  O  O20  1  0.84312200  0.66094900  0.90574200  1
  O  O21  1  0.34247800  0.16864700  0.88013200  1
  O  O22  1  0.97923400  0.17604400  0.63487100  1
  O  O23  1  0.15687800  0.33905100  0.40574200  1
  O  O24  1  0.98246800  0.83134100  0.64752600  1
  O  O25  1  0.52076600  0.67604400  0.13487100  1
  O  O26  1  0.52275200  0.01171500  0.64172500  1
  O  O27  1  0.65687800  0.16094900  0.40574200  1
  O  O28  1  0.65781100  0.50134000  0.41235500  1
  O  O29  1  0.51753200  0.33134100  0.14752600  1
  O  O30  1  0.01753200  0.16865900  0.14752600  1
  O  O31  1  0.02275200  0.48828500  0.64172500  1
  O  O32  1  0.15781100  0.99866000  0.41235500  1
  O  O33  1  0.15752200  0.66864700  0.38013200  1
  O  O34  1  0.47923400  0.32395600  0.63487100  1
  O  O35  1  0.65752200  0.83135300  0.38013200  1
  O  O36  1  0.47724800  0.98828500  0.14172500  1
  O  O37  1  0.84218900  0.00134000  0.91235500  1
  O  O38  1  0.34218900  0.49866000  0.91235500  1
  O  O39  1  0.84247800  0.33135300  0.88013200  1
