# generated using pymatgen
data_Ba(ClO3)2
_symmetry_space_group_name_H-M   'P 1'
_cell_length_a   7.91213400
_cell_length_b   12.01315600
_cell_length_c   13.52259400
_cell_angle_alpha   90.00000000
_cell_angle_beta   90.00000000
_cell_angle_gamma   90.00000000
_symmetry_Int_Tables_number   1
_chemical_formula_structural   Ba(ClO3)2
_chemical_formula_sum   'Ba8 Cl16 O48'
_cell_volume   1285.31850339
_cell_formula_units_Z   8
loop_
 _symmetry_equiv_pos_site_id
 _symmetry_equiv_pos_as_xyz
  1  'x, y, z'
loop_
 _atom_site_type_symbol
 _atom_site_label
 _atom_site_symmetry_multiplicity
 _atom_site_fract_x
 _atom_site_fract_y
 _atom_site_fract_z
 _atom_site_occupancy
  Ba  Ba0  1  0.74768400  0.00000000  0.50000000  1
  Ba  Ba1  1  0.49768400  0.75000000  0.75000000  1
  Ba  Ba2  1  0.24768400  0.00000000  0.00000000  1
  Ba  Ba3  1  0.99768400  0.75000000  0.25000000  1
  Ba  Ba4  1  0.24768400  0.50000000  0.50000000  1
  Ba  Ba5  1  0.99768400  0.25000000  0.75000000  1
  Ba  Ba6  1  0.74768400  0.50000000  0.00000000  1
  Ba  Ba7  1  0.49768400  0.25000000  0.25000000  1
  Cl  Cl8  1  0.31153950  0.19881300  0.52038650  1
  Cl  Cl9  1  0.31153950  0.30118700  0.97961350  1
  Cl  Cl10  1  0.56153950  0.05118700  0.77038650  1
  Cl  Cl11  1  0.06153950  0.94881300  0.72961350  1
  Cl  Cl12  1  0.81153950  0.19881300  0.02038650  1
  Cl  Cl13  1  0.81153950  0.30118700  0.47961350  1
  Cl  Cl14  1  0.06153950  0.05118700  0.27038650  1
  Cl  Cl15  1  0.56153950  0.94881300  0.22961350  1
  Cl  Cl16  1  0.81153950  0.69881300  0.52038650  1
  Cl  Cl17  1  0.81153950  0.80118700  0.97961350  1
  Cl  Cl18  1  0.06153950  0.55118700  0.77038650  1
  Cl  Cl19  1  0.56153950  0.44881300  0.72961350  1
  Cl  Cl20  1  0.31153950  0.69881300  0.02038650  1
  Cl  Cl21  1  0.31153950  0.80118700  0.47961350  1
  Cl  Cl22  1  0.56153950  0.55118700  0.27038650  1
  Cl  Cl23  1  0.06153950  0.44881300  0.22961350  1
  O  O24  1  0.96225500  0.63070200  0.54568200  1
  O  O25  1  0.46225500  0.36929800  0.95431800  1
  O  O26  1  0.21225500  0.61929800  0.79568200  1
  O  O27  1  0.21225500  0.88070200  0.70431800  1
  O  O28  1  0.51799350  0.98115950  0.85980200  1
  O  O29  1  0.01799350  0.01884050  0.64019800  1
  O  O30  1  0.11747100  0.03403950  0.80651450  1
  O  O31  1  0.61747100  0.96596050  0.69348550  1
  O  O32  1  0.86747100  0.21596050  0.55651450  1
  O  O33  1  0.36747100  0.78403950  0.94348550  1
  O  O34  1  0.26799350  0.23115950  0.89019800  1
  O  O35  1  0.26799350  0.26884050  0.60980200  1
  O  O36  1  0.46225500  0.63070200  0.04568200  1
  O  O37  1  0.96225500  0.36929800  0.45431800  1
  O  O38  1  0.71225500  0.61929800  0.29568200  1
  O  O39  1  0.71225500  0.88070200  0.20431800  1
  O  O40  1  0.01799350  0.98115950  0.35980200  1
  O  O41  1  0.51799350  0.01884050  0.14019800  1
  O  O42  1  0.61747100  0.03403950  0.30651450  1
  O  O43  1  0.11747100  0.96596050  0.19348550  1
  O  O44  1  0.36747100  0.21596050  0.05651450  1
  O  O45  1  0.86747100  0.78403950  0.44348550  1
  O  O46  1  0.76799350  0.23115950  0.39019800  1
  O  O47  1  0.76799350  0.26884050  0.10980200  1
  O  O48  1  0.46225500  0.13070200  0.54568200  1
  O  O49  1  0.96225500  0.86929800  0.95431800  1
  O  O50  1  0.71225500  0.11929800  0.79568200  1
  O  O51  1  0.71225500  0.38070200  0.70431800  1
  O  O52  1  0.01799350  0.48115950  0.85980200  1
  O  O53  1  0.51799350  0.51884050  0.64019800  1
  O  O54  1  0.61747100  0.53403950  0.80651450  1
  O  O55  1  0.11747100  0.46596050  0.69348550  1
  O  O56  1  0.36747100  0.71596050  0.55651450  1
  O  O57  1  0.86747100  0.28403950  0.94348550  1
  O  O58  1  0.76799350  0.73115950  0.89019800  1
  O  O59  1  0.76799350  0.76884050  0.60980200  1
  O  O60  1  0.96225500  0.13070200  0.04568200  1
  O  O61  1  0.46225500  0.86929800  0.45431800  1
  O  O62  1  0.21225500  0.11929800  0.29568200  1
  O  O63  1  0.21225500  0.38070200  0.20431800  1
  O  O64  1  0.51799350  0.48115950  0.35980200  1
  O  O65  1  0.01799350  0.51884050  0.14019800  1
  O  O66  1  0.11747100  0.53403950  0.30651450  1
  O  O67  1  0.61747100  0.46596050  0.19348550  1
  O  O68  1  0.86747100  0.71596050  0.05651450  1
  O  O69  1  0.36747100  0.28403950  0.44348550  1
  O  O70  1  0.26799350  0.73115950  0.39019800  1
  O  O71  1  0.26799350  0.76884050  0.10980200  1
