# generated using pymatgen
data_Tl2O
_symmetry_space_group_name_H-M   'P 1'
_cell_length_a   3.62441042
_cell_length_b   3.62441042
_cell_length_c   39.51890488
_cell_angle_alpha   90.00000000
_cell_angle_beta   90.00000000
_cell_angle_gamma   120.00000000
_symmetry_Int_Tables_number   1
_chemical_formula_structural   Tl2O
_chemical_formula_sum   'Tl12 O6'
_cell_volume   449.58340695
_cell_formula_units_Z   6
loop_
 _symmetry_equiv_pos_site_id
 _symmetry_equiv_pos_as_xyz
  1  'x, y, z'
loop_
 _atom_site_type_symbol
 _atom_site_label
 _atom_site_symmetry_multiplicity
 _atom_site_fract_x
 _atom_site_fract_y
 _atom_site_fract_z
 _atom_site_occupancy
  Tl  Tl0  1  0.66666667  0.33333333  0.04507633  1
  Tl  Tl1  1  0.00000000  0.00000000  0.28825700  1
  Tl  Tl2  1  0.00000000  0.00000000  0.12152200  1
  Tl  Tl3  1  0.66666667  0.33333333  0.21181133  1
  Tl  Tl4  1  0.33333333  0.66666667  0.37840967  1
  Tl  Tl5  1  0.66666667  0.33333333  0.62159033  1
  Tl  Tl6  1  0.66666667  0.33333333  0.45485533  1
  Tl  Tl7  1  0.33333333  0.66666667  0.54514467  1
  Tl  Tl8  1  0.00000000  0.00000000  0.71174300  1
  Tl  Tl9  1  0.33333333  0.66666667  0.95492367  1
  Tl  Tl10  1  0.33333333  0.66666667  0.78818867  1
  Tl  Tl11  1  0.00000000  0.00000000  0.87847800  1
  O  O12  1  0.33333333  0.66666667  0.08342467  1
  O  O13  1  0.33333333  0.66666667  0.24990867  1
  O  O14  1  0.00000000  0.00000000  0.41675800  1
  O  O15  1  0.00000000  0.00000000  0.58324200  1
  O  O16  1  0.66666667  0.33333333  0.75009133  1
  O  O17  1  0.66666667  0.33333333  0.91657533  1
