# generated using pymatgen
data_MgCl2
_symmetry_space_group_name_H-M   'P 1'
_cell_length_a   3.67593037
_cell_length_b   3.67593037
_cell_length_c   19.72198510
_cell_angle_alpha   90.00000000
_cell_angle_beta   90.00000000
_cell_angle_gamma   120.00000000
_symmetry_Int_Tables_number   1
_chemical_formula_structural   MgCl2
_chemical_formula_sum   'Mg3 Cl6'
_cell_volume   230.78937499
_cell_formula_units_Z   3
loop_
 _symmetry_equiv_pos_site_id
 _symmetry_equiv_pos_as_xyz
  1  'x, y, z'
loop_
 _atom_site_type_symbol
 _atom_site_label
 _atom_site_symmetry_multiplicity
 _atom_site_fract_x
 _atom_site_fract_y
 _atom_site_fract_z
 _atom_site_occupancy
  Mg  Mg0  1  0.00000000  0.00000000  0.00000000  1
  Mg  Mg1  1  0.66666667  0.33333333  0.33333333  1
  Mg  Mg2  1  0.33333333  0.66666667  0.66666667  1
  Cl  Cl3  1  0.66666667  0.33333333  0.06962933  1
  Cl  Cl4  1  0.00000000  0.00000000  0.26370400  1
  Cl  Cl5  1  0.33333333  0.66666667  0.40296267  1
  Cl  Cl6  1  0.66666667  0.33333333  0.59703733  1
  Cl  Cl7  1  0.00000000  0.00000000  0.73629600  1
  Cl  Cl8  1  0.33333333  0.66666667  0.93037067  1
