# generated using pymatgen
data_TlCl2
_symmetry_space_group_name_H-M   'P 1'
_cell_length_a   7.16486200
_cell_length_b   7.16486200
_cell_length_c   15.94373000
_cell_angle_alpha   90.00000000
_cell_angle_beta   90.00000000
_cell_angle_gamma   90.00000000
_symmetry_Int_Tables_number   1
_chemical_formula_structural   TlCl2
_chemical_formula_sum   'Tl8 Cl16'
_cell_volume   818.47532529
_cell_formula_units_Z   8
loop_
 _symmetry_equiv_pos_site_id
 _symmetry_equiv_pos_as_xyz
  1  'x, y, z'
loop_
 _atom_site_type_symbol
 _atom_site_label
 _atom_site_symmetry_multiplicity
 _atom_site_fract_x
 _atom_site_fract_y
 _atom_site_fract_z
 _atom_site_occupancy
  Tl  Tl0  1  0.50000000  0.00000000  0.25000000  1
  Tl  Tl1  1  0.50000000  0.50000000  0.00000000  1
  Tl  Tl2  1  0.00000000  0.50000000  0.25000000  1
  Tl  Tl3  1  0.00000000  0.00000000  0.00000000  1
  Tl  Tl4  1  0.00000000  0.50000000  0.75000000  1
  Tl  Tl5  1  0.00000000  0.00000000  0.50000000  1
  Tl  Tl6  1  0.50000000  0.00000000  0.75000000  1
  Tl  Tl7  1  0.50000000  0.50000000  0.50000000  1
  Cl  Cl8  1  0.24527300  0.65640800  0.16508000  1
  Cl  Cl9  1  0.34359200  0.74527300  0.41508000  1
  Cl  Cl10  1  0.65640800  0.25472700  0.41508000  1
  Cl  Cl11  1  0.75472700  0.34359200  0.16508000  1
  Cl  Cl12  1  0.24527300  0.15640800  0.08492000  1
  Cl  Cl13  1  0.84359200  0.74527300  0.33492000  1
  Cl  Cl14  1  0.15640800  0.25472700  0.33492000  1
  Cl  Cl15  1  0.75472700  0.84359200  0.08492000  1
  Cl  Cl16  1  0.74527300  0.15640800  0.66508000  1
  Cl  Cl17  1  0.84359200  0.24527300  0.91508000  1
  Cl  Cl18  1  0.15640800  0.75472700  0.91508000  1
  Cl  Cl19  1  0.25472700  0.84359200  0.66508000  1
  Cl  Cl20  1  0.74527300  0.65640800  0.58492000  1
  Cl  Cl21  1  0.34359200  0.24527300  0.83492000  1
  Cl  Cl22  1  0.65640800  0.75472700  0.83492000  1
  Cl  Cl23  1  0.25472700  0.34359200  0.58492000  1
