# generated using pymatgen
data_SrPr2O4
_symmetry_space_group_name_H-M   'P 1'
_cell_length_a   3.61736000
_cell_length_b   10.42366700
_cell_length_c   12.46950000
_cell_angle_alpha   90.00000000
_cell_angle_beta   90.00000000
_cell_angle_gamma   90.00000000
_symmetry_Int_Tables_number   1
_chemical_formula_structural   SrPr2O4
_chemical_formula_sum   'Sr4 Pr8 O16'
_cell_volume   470.17691298
_cell_formula_units_Z   4
loop_
 _symmetry_equiv_pos_site_id
 _symmetry_equiv_pos_as_xyz
  1  'x, y, z'
loop_
 _atom_site_type_symbol
 _atom_site_label
 _atom_site_symmetry_multiplicity
 _atom_site_fract_x
 _atom_site_fract_y
 _atom_site_fract_z
 _atom_site_occupancy
  Sr  Sr0  1  0.25000000  0.75182000  0.64571100  1
  Sr  Sr1  1  0.75000000  0.24818000  0.35428900  1
  Sr  Sr2  1  0.75000000  0.74818000  0.14571100  1
  Sr  Sr3  1  0.25000000  0.25182000  0.85428900  1
  Pr  Pr4  1  0.25000000  0.92873500  0.38426500  1
  Pr  Pr5  1  0.75000000  0.07126500  0.61573500  1
  Pr  Pr6  1  0.75000000  0.57126500  0.88426500  1
  Pr  Pr7  1  0.25000000  0.42873500  0.11573500  1
  Pr  Pr8  1  0.25000000  0.41161600  0.61036900  1
  Pr  Pr9  1  0.75000000  0.58838400  0.38963100  1
  Pr  Pr10  1  0.75000000  0.08838400  0.11036900  1
  Pr  Pr11  1  0.25000000  0.91161600  0.88963100  1
  O  O12  1  0.25000000  0.92944600  0.08266100  1
  O  O13  1  0.75000000  0.07055400  0.91733900  1
  O  O14  1  0.75000000  0.57055400  0.58266100  1
  O  O15  1  0.25000000  0.42944600  0.41733900  1
  O  O16  1  0.25000000  0.99617100  0.71267300  1
  O  O17  1  0.75000000  0.00382900  0.28732700  1
  O  O18  1  0.75000000  0.50382900  0.21267300  1
  O  O19  1  0.25000000  0.49617100  0.78732700  1
  O  O20  1  0.25000000  0.63686400  0.01621800  1
  O  O21  1  0.75000000  0.36313600  0.98378200  1
  O  O22  1  0.75000000  0.86313600  0.51621800  1
  O  O23  1  0.25000000  0.13686400  0.48378200  1
  O  O24  1  0.25000000  0.21832000  0.18677100  1
  O  O25  1  0.75000000  0.78168000  0.81322900  1
  O  O26  1  0.75000000  0.28168000  0.68677100  1
  O  O27  1  0.25000000  0.71832000  0.31322900  1
