# generated using pymatgen
data_Sr2NiMoO6
_symmetry_space_group_name_H-M   'P 1'
_cell_length_a   7.97946000
_cell_length_b   7.97946000
_cell_length_c   7.97946000
_cell_angle_alpha   90.00000000
_cell_angle_beta   90.00000000
_cell_angle_gamma   90.00000000
_symmetry_Int_Tables_number   1
_chemical_formula_structural   Sr2NiMoO6
_chemical_formula_sum   'Sr8 Ni4 Mo4 O24'
_cell_volume   508.06643673
_cell_formula_units_Z   4
loop_
 _symmetry_equiv_pos_site_id
 _symmetry_equiv_pos_as_xyz
  1  'x, y, z'
loop_
 _atom_site_type_symbol
 _atom_site_label
 _atom_site_symmetry_multiplicity
 _atom_site_fract_x
 _atom_site_fract_y
 _atom_site_fract_z
 _atom_site_occupancy
  Sr  Sr0  1  0.25000000  0.75000000  0.75000000  1
  Sr  Sr1  1  0.25000000  0.25000000  0.75000000  1
  Sr  Sr2  1  0.25000000  0.25000000  0.25000000  1
  Sr  Sr3  1  0.25000000  0.75000000  0.25000000  1
  Sr  Sr4  1  0.75000000  0.75000000  0.25000000  1
  Sr  Sr5  1  0.75000000  0.25000000  0.25000000  1
  Sr  Sr6  1  0.75000000  0.25000000  0.75000000  1
  Sr  Sr7  1  0.75000000  0.75000000  0.75000000  1
  Ni  Ni8  1  0.00000000  0.00000000  0.00000000  1
  Ni  Ni9  1  0.00000000  0.50000000  0.50000000  1
  Ni  Ni10  1  0.50000000  0.00000000  0.50000000  1
  Ni  Ni11  1  0.50000000  0.50000000  0.00000000  1
  Mo  Mo12  1  0.50000000  0.00000000  0.00000000  1
  Mo  Mo13  1  0.50000000  0.50000000  0.50000000  1
  Mo  Mo14  1  0.00000000  0.00000000  0.50000000  1
  Mo  Mo15  1  0.00000000  0.50000000  0.00000000  1
  O  O16  1  0.50000000  0.75714400  0.00000000  1
  O  O17  1  0.00000000  0.00000000  0.74285600  1
  O  O18  1  0.50000000  0.00000000  0.75714400  1
  O  O19  1  0.74285600  0.00000000  0.00000000  1
  O  O20  1  0.50000000  0.24285600  0.00000000  1
  O  O21  1  0.25714400  0.00000000  0.00000000  1
  O  O22  1  0.50000000  0.25714400  0.50000000  1
  O  O23  1  0.00000000  0.50000000  0.24285600  1
  O  O24  1  0.50000000  0.50000000  0.25714400  1
  O  O25  1  0.74285600  0.50000000  0.50000000  1
  O  O26  1  0.50000000  0.74285600  0.50000000  1
  O  O27  1  0.25714400  0.50000000  0.50000000  1
  O  O28  1  0.00000000  0.75714400  0.50000000  1
  O  O29  1  0.50000000  0.00000000  0.24285600  1
  O  O30  1  0.00000000  0.00000000  0.25714400  1
  O  O31  1  0.24285600  0.00000000  0.50000000  1
  O  O32  1  0.00000000  0.24285600  0.50000000  1
  O  O33  1  0.75714400  0.00000000  0.50000000  1
  O  O34  1  0.00000000  0.25714400  0.00000000  1
  O  O35  1  0.50000000  0.50000000  0.74285600  1
  O  O36  1  0.00000000  0.50000000  0.75714400  1
  O  O37  1  0.24285600  0.50000000  0.00000000  1
  O  O38  1  0.00000000  0.74285600  0.00000000  1
  O  O39  1  0.75714400  0.50000000  0.00000000  1
