# generated using pymatgen
data_K3B12H12I
_symmetry_space_group_name_H-M   'P 1'
_cell_length_a   10.32172622
_cell_length_b   10.32172622
_cell_length_c   11.39197766
_cell_angle_alpha   90.00000000
_cell_angle_beta   90.00000000
_cell_angle_gamma   120.00000000
_symmetry_Int_Tables_number   1
_chemical_formula_structural   K3B12H12I
_chemical_formula_sum   'K9 B36 H36 I3'
_cell_volume   1051.07674514
_cell_formula_units_Z   3
loop_
 _symmetry_equiv_pos_site_id
 _symmetry_equiv_pos_as_xyz
  1  'x, y, z'
loop_
 _atom_site_type_symbol
 _atom_site_label
 _atom_site_symmetry_multiplicity
 _atom_site_fract_x
 _atom_site_fract_y
 _atom_site_fract_z
 _atom_site_occupancy
  K  K0  1  0.16666667  0.83333333  0.33333333  1
  K  K1  1  0.16666667  0.33333333  0.33333333  1
  K  K2  1  0.66666667  0.83333333  0.33333333  1
  K  K3  1  0.83333333  0.16666667  0.66666667  1
  K  K4  1  0.83333333  0.66666667  0.66666667  1
  K  K5  1  0.33333333  0.16666667  0.66666667  1
  K  K6  1  0.50000000  0.50000000  0.00000000  1
  K  K7  1  0.50000000  0.00000000  0.00000000  1
  K  K8  1  0.00000000  0.50000000  0.00000000  1
  B  B9  1  0.48071867  0.24035933  0.36128233  1
  B  B10  1  0.51928133  0.75964067  0.63871767  1
  B  B11  1  0.24035933  0.48071867  0.63871767  1
  B  B12  1  0.24035933  0.75964067  0.63871767  1
  B  B13  1  0.94266167  0.05733833  0.11815233  1
  B  B14  1  0.94266167  0.88532333  0.11815233  1
  B  B15  1  0.11467667  0.05733833  0.11815233  1
  B  B16  1  0.88532333  0.94266167  0.88184767  1
  B  B17  1  0.05733833  0.94266167  0.88184767  1
  B  B18  1  0.05733833  0.11467667  0.88184767  1
  B  B19  1  0.75964067  0.24035933  0.36128233  1
  B  B20  1  0.75964067  0.51928133  0.36128233  1
  B  B21  1  0.14738533  0.57369267  0.69461567  1
  B  B22  1  0.18594800  0.09297400  0.97205100  1
  B  B23  1  0.90702600  0.81405200  0.97205100  1
  B  B24  1  0.90702600  0.09297400  0.97205100  1
  B  B25  1  0.60932833  0.39067167  0.45148567  1
  B  B26  1  0.60932833  0.21865667  0.45148567  1
  B  B27  1  0.78134333  0.39067167  0.45148567  1
  B  B28  1  0.55199000  0.27599500  0.21518100  1
  B  B29  1  0.72400500  0.27599500  0.21518100  1
  B  B30  1  0.72400500  0.44801000  0.21518100  1
  B  B31  1  0.42630733  0.57369267  0.69461567  1
  B  B32  1  0.42630733  0.85261467  0.69461567  1
  B  B33  1  0.81405200  0.90702600  0.02794900  1
  B  B34  1  0.85261467  0.42630733  0.30538433  1
  B  B35  1  0.57369267  0.14738533  0.30538433  1
  B  B36  1  0.57369267  0.42630733  0.30538433  1
  B  B37  1  0.27599500  0.72400500  0.78481900  1
  B  B38  1  0.27599500  0.55199000  0.78481900  1
  B  B39  1  0.44801000  0.72400500  0.78481900  1
  B  B40  1  0.21865667  0.60932833  0.54851433  1
  B  B41  1  0.39067167  0.60932833  0.54851433  1
  B  B42  1  0.39067167  0.78134333  0.54851433  1
  B  B43  1  0.09297400  0.90702600  0.02794900  1
  B  B44  1  0.09297400  0.18594800  0.02794900  1
  H  H45  1  0.17415900  0.82584100  0.61809600  1
  H  H46  1  0.17415900  0.34831800  0.61809600  1
  H  H47  1  0.65168200  0.82584100  0.61809600  1
  H  H48  1  0.34831800  0.17415900  0.38190400  1
  H  H49  1  0.09795033  0.90204967  0.79764467  1
  H  H50  1  0.09795033  0.19590067  0.79764467  1
  H  H51  1  0.80409933  0.90204967  0.79764467  1
  H  H52  1  0.19590067  0.09795033  0.20235533  1
  H  H53  1  0.90204967  0.09795033  0.20235533  1
  H  H54  1  0.90204967  0.80409933  0.20235533  1
  H  H55  1  0.82584100  0.17415900  0.38190400  1
  H  H56  1  0.82584100  0.65168200  0.38190400  1
  H  H57  1  0.84082567  0.15917433  0.95142933  1
  H  H58  1  0.84082567  0.68165133  0.95142933  1
  H  H59  1  0.31834867  0.15917433  0.95142933  1
  H  H60  1  0.01498467  0.50749233  0.71523733  1
  H  H61  1  0.76461700  0.23538300  0.13097800  1
  H  H62  1  0.76461700  0.52923400  0.13097800  1
  H  H63  1  0.47076600  0.23538300  0.13097800  1
  H  H64  1  0.86256733  0.43128367  0.53568867  1
  H  H65  1  0.56871633  0.43128367  0.53568867  1
  H  H66  1  0.56871633  0.13743267  0.53568867  1
  H  H67  1  0.49250767  0.50749233  0.71523733  1
  H  H68  1  0.49250767  0.98501533  0.71523733  1
  H  H69  1  0.50749233  0.49250767  0.28476267  1
  H  H70  1  0.50749233  0.01498467  0.28476267  1
  H  H71  1  0.98501533  0.49250767  0.28476267  1
  H  H72  1  0.68165133  0.84082567  0.04857067  1
  H  H73  1  0.43128367  0.56871633  0.46431133  1
  H  H74  1  0.43128367  0.86256733  0.46431133  1
  H  H75  1  0.13743267  0.56871633  0.46431133  1
  H  H76  1  0.52923400  0.76461700  0.86902200  1
  H  H77  1  0.23538300  0.76461700  0.86902200  1
  H  H78  1  0.23538300  0.47076600  0.86902200  1
  H  H79  1  0.15917433  0.84082567  0.04857067  1
  H  H80  1  0.15917433  0.31834867  0.04857067  1
  I  I81  1  0.00000000  0.00000000  0.50000000  1
  I  I82  1  0.66666667  0.33333333  0.83333333  1
  I  I83  1  0.33333333  0.66666667  0.16666667  1
