# generated using pymatgen
data_Na2Te2O7
_symmetry_space_group_name_H-M   'P 1'
_cell_length_a   7.36051400
_cell_length_b   7.57605000
_cell_length_c   10.27307400
_cell_angle_alpha   90.00000000
_cell_angle_beta   90.00000000
_cell_angle_gamma   90.00000000
_symmetry_Int_Tables_number   1
_chemical_formula_structural   Na2Te2O7
_chemical_formula_sum   'Na8 Te8 O28'
_cell_volume   572.86381624
_cell_formula_units_Z   4
loop_
 _symmetry_equiv_pos_site_id
 _symmetry_equiv_pos_as_xyz
  1  'x, y, z'
loop_
 _atom_site_type_symbol
 _atom_site_label
 _atom_site_symmetry_multiplicity
 _atom_site_fract_x
 _atom_site_fract_y
 _atom_site_fract_z
 _atom_site_occupancy
  Na  Na0  1  0.50000000  0.00000000  0.50000000  1
  Na  Na1  1  0.50000000  0.00000000  0.00000000  1
  Na  Na2  1  0.75000000  0.75000000  0.25000000  1
  Na  Na3  1  0.25000000  0.75000000  0.25000000  1
  Na  Na4  1  0.00000000  0.50000000  0.00000000  1
  Na  Na5  1  0.00000000  0.50000000  0.50000000  1
  Na  Na6  1  0.25000000  0.25000000  0.75000000  1
  Na  Na7  1  0.75000000  0.25000000  0.75000000  1
  Te  Te8  1  0.00000000  0.00000000  0.00000000  1
  Te  Te9  1  0.00000000  0.00000000  0.50000000  1
  Te  Te10  1  0.75000000  0.25000000  0.25000000  1
  Te  Te11  1  0.25000000  0.25000000  0.25000000  1
  Te  Te12  1  0.50000000  0.50000000  0.50000000  1
  Te  Te13  1  0.50000000  0.50000000  0.00000000  1
  Te  Te14  1  0.25000000  0.75000000  0.75000000  1
  Te  Te15  1  0.75000000  0.75000000  0.75000000  1
  O  O16  1  0.79193000  0.06757700  0.12083500  1
  O  O17  1  0.79193000  0.93242300  0.87916500  1
  O  O18  1  0.20807000  0.06757700  0.37916500  1
  O  O19  1  0.20807000  0.93242300  0.62083500  1
  O  O20  1  0.20807000  0.93242300  0.87916500  1
  O  O21  1  0.20807000  0.06757700  0.12083500  1
  O  O22  1  0.79193000  0.93242300  0.62083500  1
  O  O23  1  0.79193000  0.06757700  0.37916500  1
  O  O24  1  0.50000000  0.15706100  0.25000000  1
  O  O25  1  0.50000000  0.84293900  0.75000000  1
  O  O26  1  0.50000000  0.71767500  0.41800900  1
  O  O27  1  0.50000000  0.28232500  0.58199100  1
  O  O28  1  0.00000000  0.21767500  0.58199100  1
  O  O29  1  0.00000000  0.78232500  0.41800900  1
  O  O30  1  0.29193000  0.56757700  0.62083500  1
  O  O31  1  0.29193000  0.43242300  0.37916500  1
  O  O32  1  0.70807000  0.56757700  0.87916500  1
  O  O33  1  0.70807000  0.43242300  0.12083500  1
  O  O34  1  0.70807000  0.43242300  0.37916500  1
  O  O35  1  0.70807000  0.56757700  0.62083500  1
  O  O36  1  0.29193000  0.43242300  0.12083500  1
  O  O37  1  0.29193000  0.56757700  0.87916500  1
  O  O38  1  0.00000000  0.65706100  0.75000000  1
  O  O39  1  0.00000000  0.34293900  0.25000000  1
  O  O40  1  0.00000000  0.21767500  0.91800900  1
  O  O41  1  0.00000000  0.78232500  0.08199100  1
  O  O42  1  0.50000000  0.71767500  0.08199100  1
  O  O43  1  0.50000000  0.28232500  0.91800900  1
