# generated using pymatgen
data_Zr6CoCl15
_symmetry_space_group_name_H-M   'P 1'
_cell_length_a   10.40677800
_cell_length_b   10.40677800
_cell_length_c   10.40677800
_cell_angle_alpha   90.00000000
_cell_angle_beta   90.00000000
_cell_angle_gamma   90.00000000
_symmetry_Int_Tables_number   1
_chemical_formula_structural   Zr6CoCl15
_chemical_formula_sum   'Zr12 Co2 Cl30'
_cell_volume   1127.06475912
_cell_formula_units_Z   2
loop_
 _symmetry_equiv_pos_site_id
 _symmetry_equiv_pos_as_xyz
  1  'x, y, z'
loop_
 _atom_site_type_symbol
 _atom_site_label
 _atom_site_symmetry_multiplicity
 _atom_site_fract_x
 _atom_site_fract_y
 _atom_site_fract_z
 _atom_site_occupancy
  Zr  Zr0  1  0.00000000  0.00000000  0.23836200  1
  Zr  Zr1  1  0.00000000  0.00000000  0.76163800  1
  Zr  Zr2  1  0.00000000  0.76163800  0.00000000  1
  Zr  Zr3  1  0.76163800  0.00000000  0.00000000  1
  Zr  Zr4  1  0.23836200  0.00000000  0.00000000  1
  Zr  Zr5  1  0.00000000  0.23836200  0.00000000  1
  Zr  Zr6  1  0.50000000  0.50000000  0.73836200  1
  Zr  Zr7  1  0.50000000  0.50000000  0.26163800  1
  Zr  Zr8  1  0.50000000  0.26163800  0.50000000  1
  Zr  Zr9  1  0.26163800  0.50000000  0.50000000  1
  Zr  Zr10  1  0.73836200  0.50000000  0.50000000  1
  Zr  Zr11  1  0.50000000  0.73836200  0.50000000  1
  Co  Co12  1  0.00000000  0.00000000  0.00000000  1
  Co  Co13  1  0.50000000  0.50000000  0.50000000  1
  Cl  Cl14  1  0.25458500  0.50000000  0.25458500  1
  Cl  Cl15  1  0.00000000  0.00000000  0.50000000  1
  Cl  Cl16  1  0.50000000  0.00000000  0.00000000  1
  Cl  Cl17  1  0.00000000  0.50000000  0.00000000  1
  Cl  Cl18  1  0.25458500  0.50000000  0.74541500  1
  Cl  Cl19  1  0.50000000  0.25458500  0.74541500  1
  Cl  Cl20  1  0.74541500  0.50000000  0.25458500  1
  Cl  Cl21  1  0.50000000  0.25458500  0.25458500  1
  Cl  Cl22  1  0.50000000  0.74541500  0.25458500  1
  Cl  Cl23  1  0.24541500  0.24541500  0.00000000  1
  Cl  Cl24  1  0.74541500  0.25458500  0.50000000  1
  Cl  Cl25  1  0.00000000  0.24541500  0.24541500  1
  Cl  Cl26  1  0.24541500  0.00000000  0.24541500  1
  Cl  Cl27  1  0.25458500  0.25458500  0.50000000  1
  Cl  Cl28  1  0.25458500  0.74541500  0.50000000  1
  Cl  Cl29  1  0.75458500  0.00000000  0.75458500  1
  Cl  Cl30  1  0.50000000  0.50000000  0.00000000  1
  Cl  Cl31  1  0.00000000  0.50000000  0.50000000  1
  Cl  Cl32  1  0.50000000  0.00000000  0.50000000  1
  Cl  Cl33  1  0.75458500  0.00000000  0.24541500  1
  Cl  Cl34  1  0.00000000  0.75458500  0.24541500  1
  Cl  Cl35  1  0.24541500  0.00000000  0.75458500  1
  Cl  Cl36  1  0.00000000  0.75458500  0.75458500  1
  Cl  Cl37  1  0.00000000  0.24541500  0.75458500  1
  Cl  Cl38  1  0.74541500  0.74541500  0.50000000  1
  Cl  Cl39  1  0.24541500  0.75458500  0.00000000  1
  Cl  Cl40  1  0.50000000  0.74541500  0.74541500  1
  Cl  Cl41  1  0.74541500  0.50000000  0.74541500  1
  Cl  Cl42  1  0.75458500  0.75458500  0.00000000  1
  Cl  Cl43  1  0.75458500  0.24541500  0.00000000  1
