# generated using pymatgen
data_Li5NCl2
_symmetry_space_group_name_H-M   'P 1'
_cell_length_a   3.65433180
_cell_length_b   3.65433180
_cell_length_c   28.89317618
_cell_angle_alpha   90.00000000
_cell_angle_beta   90.00000000
_cell_angle_gamma   120.00000000
_symmetry_Int_Tables_number   1
_chemical_formula_structural   Li5NCl2
_chemical_formula_sum   'Li15 N3 Cl6'
_cell_volume   334.15031327
_cell_formula_units_Z   3
loop_
 _symmetry_equiv_pos_site_id
 _symmetry_equiv_pos_as_xyz
  1  'x, y, z'
loop_
 _atom_site_type_symbol
 _atom_site_label
 _atom_site_symmetry_multiplicity
 _atom_site_fract_x
 _atom_site_fract_y
 _atom_site_fract_z
 _atom_site_occupancy
  Li  Li0  1  0.33333333  0.66666667  0.16666667  1
  Li  Li1  1  0.66666667  0.33333333  0.26631033  1
  Li  Li2  1  0.00000000  0.00000000  0.06702300  1
  Li  Li3  1  0.66666667  0.33333333  0.00787233  1
  Li  Li4  1  0.00000000  0.00000000  0.32546100  1
  Li  Li5  1  1.00000000  1.00000000  0.50000000  1
  Li  Li6  1  0.33333333  0.66666667  0.59964367  1
  Li  Li7  1  0.66666667  0.33333333  0.40035633  1
  Li  Li8  1  0.33333333  0.66666667  0.34120567  1
  Li  Li9  1  0.66666667  0.33333333  0.65879433  1
  Li  Li10  1  0.66666667  0.33333333  0.83333333  1
  Li  Li11  1  0.00000000  0.00000000  0.93297700  1
  Li  Li12  1  0.33333333  0.66666667  0.73368967  1
  Li  Li13  1  0.00000000  0.00000000  0.67453900  1
  Li  Li14  1  0.33333333  0.66666667  0.99212767  1
  N  N15  1  0.00000000  0.00000000  0.00000000  1
  N  N16  1  0.66666667  0.33333333  0.33333333  1
  N  N17  1  0.33333333  0.66666667  0.66666667  1
  Cl  Cl18  1  0.00000000  0.00000000  0.21816300  1
  Cl  Cl19  1  0.66666667  0.33333333  0.11517033  1
  Cl  Cl20  1  0.66666667  0.33333333  0.55149633  1
  Cl  Cl21  1  0.33333333  0.66666667  0.44850367  1
  Cl  Cl22  1  0.33333333  0.66666667  0.88482967  1
  Cl  Cl23  1  0.00000000  0.00000000  0.78183700  1
