# generated using pymatgen
data_BaTe2F10
_symmetry_space_group_name_H-M   'P 1'
_cell_length_a   17.65127000
_cell_length_b   4.95244200
_cell_length_c   10.48028974
_cell_angle_alpha   90.00000000
_cell_angle_beta   112.54394843
_cell_angle_gamma   90.00000000
_symmetry_Int_Tables_number   1
_chemical_formula_structural   BaTe2F10
_chemical_formula_sum   'Ba4 Te8 F40'
_cell_volume   846.14707497
_cell_formula_units_Z   4
loop_
 _symmetry_equiv_pos_site_id
 _symmetry_equiv_pos_as_xyz
  1  'x, y, z'
loop_
 _atom_site_type_symbol
 _atom_site_label
 _atom_site_symmetry_multiplicity
 _atom_site_fract_x
 _atom_site_fract_y
 _atom_site_fract_z
 _atom_site_occupancy
  Ba  Ba0  1  0.00000000  0.04282800  0.25000000  1
  Ba  Ba1  1  0.00000000  0.95717200  0.75000000  1
  Ba  Ba2  1  0.50000000  0.54282800  0.25000000  1
  Ba  Ba3  1  0.50000000  0.45717200  0.75000000  1
  Te  Te4  1  0.34174250  0.05561250  0.43166200  1
  Te  Te5  1  0.15825750  0.55561250  0.06833800  1
  Te  Te6  1  0.15825750  0.44438750  0.56833800  1
  Te  Te7  1  0.34174250  0.94438750  0.93166200  1
  Te  Te8  1  0.84174250  0.55561250  0.43166200  1
  Te  Te9  1  0.65825750  0.05561250  0.06833800  1
  Te  Te10  1  0.65825750  0.94438750  0.56833800  1
  Te  Te11  1  0.84174250  0.44438750  0.93166200  1
  F  F12  1  0.29751000  0.25442500  0.25555200  1
  F  F13  1  0.20249000  0.75442500  0.24444800  1
  F  F14  1  0.20249000  0.24557500  0.74444800  1
  F  F15  1  0.29751000  0.74557500  0.75555200  1
  F  F16  1  0.39323100  0.79502600  0.34420000  1
  F  F17  1  0.10676900  0.29502600  0.15580000  1
  F  F18  1  0.42611900  0.06670100  0.12207100  1
  F  F19  1  0.07388100  0.56670100  0.37792900  1
  F  F20  1  0.07388100  0.43329900  0.87792900  1
  F  F21  1  0.42611900  0.93329900  0.62207100  1
  F  F22  1  0.33221650  0.60989250  0.03720700  1
  F  F23  1  0.16778350  0.10989250  0.46279300  1
  F  F24  1  0.16778350  0.89010750  0.96279300  1
  F  F25  1  0.33221650  0.39010750  0.53720700  1
  F  F26  1  0.43884550  0.73958050  0.94710700  1
  F  F27  1  0.06115450  0.23958050  0.55289300  1
  F  F28  1  0.06115450  0.76041950  0.05289300  1
  F  F29  1  0.43884550  0.26041950  0.44710700  1
  F  F30  1  0.39323100  0.20497400  0.84420000  1
  F  F31  1  0.10676900  0.70497400  0.65580000  1
  F  F32  1  0.79751000  0.75442500  0.25555200  1
  F  F33  1  0.70249000  0.25442500  0.24444800  1
  F  F34  1  0.70249000  0.74557500  0.74444800  1
  F  F35  1  0.79751000  0.24557500  0.75555200  1
  F  F36  1  0.89323100  0.29502600  0.34420000  1
  F  F37  1  0.60676900  0.79502600  0.15580000  1
  F  F38  1  0.92611900  0.56670100  0.12207100  1
  F  F39  1  0.57388100  0.06670100  0.37792900  1
  F  F40  1  0.57388100  0.93329900  0.87792900  1
  F  F41  1  0.92611900  0.43329900  0.62207100  1
  F  F42  1  0.83221650  0.10989250  0.03720700  1
  F  F43  1  0.66778350  0.60989250  0.46279300  1
  F  F44  1  0.66778350  0.39010750  0.96279300  1
  F  F45  1  0.83221650  0.89010750  0.53720700  1
  F  F46  1  0.93884550  0.23958050  0.94710700  1
  F  F47  1  0.56115450  0.73958050  0.55289300  1
  F  F48  1  0.56115450  0.26041950  0.05289300  1
  F  F49  1  0.93884550  0.76041950  0.44710700  1
  F  F50  1  0.89323100  0.70497400  0.84420000  1
  F  F51  1  0.60676900  0.20497400  0.65580000  1
