# generated using pymatgen
data_Sb3(BrF8)2
_symmetry_space_group_name_H-M   'P 1'
_cell_length_a   13.66413000
_cell_length_b   7.86225600
_cell_length_c   14.81219092
_cell_angle_alpha   90.00000000
_cell_angle_beta   94.50403492
_cell_angle_gamma   90.00000000
_symmetry_Int_Tables_number   1
_chemical_formula_structural   Sb3(BrF8)2
_chemical_formula_sum   'Sb12 Br8 F64'
_cell_volume   1586.37262239
_cell_formula_units_Z   4
loop_
 _symmetry_equiv_pos_site_id
 _symmetry_equiv_pos_as_xyz
  1  'x, y, z'
loop_
 _atom_site_type_symbol
 _atom_site_label
 _atom_site_symmetry_multiplicity
 _atom_site_fract_x
 _atom_site_fract_y
 _atom_site_fract_z
 _atom_site_occupancy
  Sb  Sb0  1  0.62890200  0.64251500  0.62120500  1
  Sb  Sb1  1  0.87109800  0.14251500  0.87879500  1
  Sb  Sb2  1  0.62890200  0.35748500  0.12120500  1
  Sb  Sb3  1  0.87109800  0.85748500  0.37879500  1
  Sb  Sb4  1  0.75000000  0.75000000  0.00000000  1
  Sb  Sb5  1  0.75000000  0.25000000  0.50000000  1
  Sb  Sb6  1  0.12890200  0.14251500  0.62120500  1
  Sb  Sb7  1  0.37109800  0.64251500  0.87879500  1
  Sb  Sb8  1  0.12890200  0.85748500  0.12120500  1
  Sb  Sb9  1  0.37109800  0.35748500  0.37879500  1
  Sb  Sb10  1  0.25000000  0.25000000  0.00000000  1
  Sb  Sb11  1  0.25000000  0.75000000  0.50000000  1
  Br  Br12  1  0.56842850  0.16526450  0.79658100  1
  Br  Br13  1  0.93157150  0.66526450  0.70341900  1
  Br  Br14  1  0.93157150  0.33473550  0.20341900  1
  Br  Br15  1  0.56842850  0.83473550  0.29658100  1
  Br  Br16  1  0.06842850  0.66526450  0.79658100  1
  Br  Br17  1  0.43157150  0.16526450  0.70341900  1
  Br  Br18  1  0.43157150  0.83473550  0.20341900  1
  Br  Br19  1  0.06842850  0.33473550  0.29658100  1
  F  F20  1  0.91760800  0.73403700  0.48311800  1
  F  F21  1  0.58239200  0.23403700  0.01688200  1
  F  F22  1  0.58239200  0.76596300  0.51688200  1
  F  F23  1  0.91760800  0.26596300  0.98311800  1
  F  F24  1  0.90388700  0.68890200  0.29544100  1
  F  F25  1  0.59611300  0.18890200  0.20455900  1
  F  F26  1  0.59611300  0.81109800  0.70455900  1
  F  F27  1  0.90388700  0.31109800  0.79544100  1
  F  F28  1  0.81536800  0.01239100  0.29061500  1
  F  F29  1  0.68463200  0.51239100  0.20938500  1
  F  F30  1  0.83283100  0.95580200  0.97556200  1
  F  F31  1  0.66716900  0.45580200  0.52443800  1
  F  F32  1  0.66716900  0.54419800  0.02443800  1
  F  F33  1  0.83283100  0.04419800  0.47556200  1
  F  F34  1  0.64548950  0.83972250  0.92303900  1
  F  F35  1  0.85451050  0.33972250  0.57696100  1
  F  F36  1  0.85451050  0.66027750  0.07696100  1
  F  F37  1  0.64548950  0.16027750  0.42303900  1
  F  F38  1  0.79898300  0.63671100  0.90042400  1
  F  F39  1  0.70101700  0.13671100  0.59957600  1
  F  F40  1  0.70101700  0.86328900  0.09957600  1
  F  F41  1  0.79898300  0.36328900  0.40042400  1
  F  F42  1  0.99146300  0.02163000  0.87949100  1
  F  F43  1  0.50853700  0.52163000  0.62050900  1
  F  F44  1  0.50853700  0.47837000  0.12050900  1
  F  F45  1  0.99146300  0.97837000  0.37949100  1
  F  F46  1  0.74108350  0.22705550  0.89099700  1
  F  F47  1  0.75891650  0.72705550  0.60900300  1
  F  F48  1  0.75891650  0.27294450  0.10900300  1
  F  F49  1  0.74108350  0.77294450  0.39099700  1
  F  F50  1  0.81536800  0.98760900  0.79061500  1
  F  F51  1  0.68463200  0.48760900  0.70938500  1
  F  F52  1  0.41760800  0.23403700  0.48311800  1
  F  F53  1  0.08239200  0.73403700  0.01688200  1
  F  F54  1  0.08239200  0.26596300  0.51688200  1
  F  F55  1  0.41760800  0.76596300  0.98311800  1
  F  F56  1  0.40388700  0.18890200  0.29544100  1
  F  F57  1  0.09611300  0.68890200  0.20455900  1
  F  F58  1  0.09611300  0.31109800  0.70455900  1
  F  F59  1  0.40388700  0.81109800  0.79544100  1
  F  F60  1  0.31536800  0.51239100  0.29061500  1
  F  F61  1  0.18463200  0.01239100  0.20938500  1
  F  F62  1  0.33283100  0.45580200  0.97556200  1
  F  F63  1  0.16716900  0.95580200  0.52443800  1
  F  F64  1  0.16716900  0.04419800  0.02443800  1
  F  F65  1  0.33283100  0.54419800  0.47556200  1
  F  F66  1  0.14548950  0.33972250  0.92303900  1
  F  F67  1  0.35451050  0.83972250  0.57696100  1
  F  F68  1  0.35451050  0.16027750  0.07696100  1
  F  F69  1  0.14548950  0.66027750  0.42303900  1
  F  F70  1  0.29898300  0.13671100  0.90042400  1
  F  F71  1  0.20101700  0.63671100  0.59957600  1
  F  F72  1  0.20101700  0.36328900  0.09957600  1
  F  F73  1  0.29898300  0.86328900  0.40042400  1
  F  F74  1  0.49146300  0.52163000  0.87949100  1
  F  F75  1  0.00853700  0.02163000  0.62050900  1
  F  F76  1  0.00853700  0.97837000  0.12050900  1
  F  F77  1  0.49146300  0.47837000  0.37949100  1
  F  F78  1  0.24108350  0.72705550  0.89099700  1
  F  F79  1  0.25891650  0.22705550  0.60900300  1
  F  F80  1  0.25891650  0.77294450  0.10900300  1
  F  F81  1  0.24108350  0.27294450  0.39099700  1
  F  F82  1  0.31536800  0.48760900  0.79061500  1
  F  F83  1  0.18463200  0.98760900  0.70938500  1
