# generated using pymatgen
data_ZnH2SeO5
_symmetry_space_group_name_H-M   'P 1'
_cell_length_a   7.06857600
_cell_length_b   8.21733400
_cell_length_c   7.75987460
_cell_angle_alpha   90.00000000
_cell_angle_beta   115.59260521
_cell_angle_gamma   90.00000000
_symmetry_Int_Tables_number   1
_chemical_formula_structural   ZnH2SeO5
_chemical_formula_sum   'Zn4 H8 Se4 O20'
_cell_volume   406.50914539
_cell_formula_units_Z   4
loop_
 _symmetry_equiv_pos_site_id
 _symmetry_equiv_pos_as_xyz
  1  'x, y, z'
loop_
 _atom_site_type_symbol
 _atom_site_label
 _atom_site_symmetry_multiplicity
 _atom_site_fract_x
 _atom_site_fract_y
 _atom_site_fract_z
 _atom_site_occupancy
  Zn  Zn0  1  0.75000000  0.25000000  0.00000000  1
  Zn  Zn1  1  0.75000000  0.75000000  0.50000000  1
  Zn  Zn2  1  0.25000000  0.75000000  0.00000000  1
  Zn  Zn3  1  0.25000000  0.25000000  0.50000000  1
  H  H4  1  0.91627700  0.94838200  0.79590700  1
  H  H5  1  0.08372300  0.94838200  0.70409300  1
  H  H6  1  0.08372300  0.05161800  0.20409300  1
  H  H7  1  0.91627700  0.05161800  0.29590700  1
  H  H8  1  0.41627700  0.44838200  0.79590700  1
  H  H9  1  0.58372300  0.44838200  0.70409300  1
  H  H10  1  0.58372300  0.55161800  0.20409300  1
  H  H11  1  0.41627700  0.55161800  0.29590700  1
  Se  Se12  1  0.50000000  0.08731900  0.25000000  1
  Se  Se13  1  0.50000000  0.91268100  0.75000000  1
  Se  Se14  1  0.00000000  0.58731900  0.25000000  1
  Se  Se15  1  0.00000000  0.41268100  0.75000000  1
  O  O16  1  0.48648450  0.20302950  0.42087500  1
  O  O17  1  0.51351550  0.20302950  0.07912500  1
  O  O18  1  0.51351550  0.79697050  0.57912500  1
  O  O19  1  0.48648450  0.79697050  0.92087500  1
  O  O20  1  0.28297050  0.97015050  0.15495900  1
  O  O21  1  0.71702950  0.97015050  0.34504100  1
  O  O22  1  0.71702950  0.02984950  0.84504100  1
  O  O23  1  0.28297050  0.02984950  0.65495900  1
  O  O24  1  0.50000000  0.62327300  0.25000000  1
  O  O25  1  0.50000000  0.37672700  0.75000000  1
  O  O26  1  0.98648450  0.70302950  0.42087500  1
  O  O27  1  0.01351550  0.70302950  0.07912500  1
  O  O28  1  0.01351550  0.29697050  0.57912500  1
  O  O29  1  0.98648450  0.29697050  0.92087500  1
  O  O30  1  0.78297050  0.47015050  0.15495900  1
  O  O31  1  0.21702950  0.47015050  0.34504100  1
  O  O32  1  0.21702950  0.52984950  0.84504100  1
  O  O33  1  0.78297050  0.52984950  0.65495900  1
  O  O34  1  0.00000000  0.12327300  0.25000000  1
  O  O35  1  0.00000000  0.87672700  0.75000000  1
