# generated using pymatgen
data_CsGeI3
_symmetry_space_group_name_H-M   'P 1'
_cell_length_a   8.50881288
_cell_length_b   8.50881288
_cell_length_c   10.84417997
_cell_angle_alpha   90.00000000
_cell_angle_beta   90.00000000
_cell_angle_gamma   120.00000000
_symmetry_Int_Tables_number   1
_chemical_formula_structural   CsGeI3
_chemical_formula_sum   'Cs3 Ge3 I9'
_cell_volume   679.93170840
_cell_formula_units_Z   3
loop_
 _symmetry_equiv_pos_site_id
 _symmetry_equiv_pos_as_xyz
  1  'x, y, z'
loop_
 _atom_site_type_symbol
 _atom_site_label
 _atom_site_symmetry_multiplicity
 _atom_site_fract_x
 _atom_site_fract_y
 _atom_site_fract_z
 _atom_site_occupancy
  Cs  Cs0  1  0.33333333  0.66666667  0.66669167  1
  Cs  Cs1  1  0.00000000  0.00000000  0.00002500  1
  Cs  Cs2  1  0.66666667  0.33333333  0.33335833  1
  Ge  Ge3  1  0.33333333  0.66666667  0.13509267  1
  Ge  Ge4  1  0.00000000  0.00000000  0.46842600  1
  Ge  Ge5  1  0.66666667  0.33333333  0.80175933  1
  I  I6  1  0.49770667  0.99541333  0.00651633  1
  I  I7  1  0.49770667  0.50229333  0.00651633  1
  I  I8  1  0.00458667  0.50229333  0.00651633  1
  I  I9  1  0.16437333  0.32874667  0.33984967  1
  I  I10  1  0.16437333  0.83562667  0.33984967  1
  I  I11  1  0.67125333  0.83562667  0.33984967  1
  I  I12  1  0.83104000  0.66208000  0.67318300  1
  I  I13  1  0.83104000  0.16896000  0.67318300  1
  I  I14  1  0.33792000  0.16896000  0.67318300  1
