# generated using pymatgen
data_BeP2
_symmetry_space_group_name_H-M   'P 1'
_cell_length_a   10.05663800
_cell_length_b   10.05643600
_cell_length_c   7.93789520
_cell_angle_alpha   90.00000000
_cell_angle_beta   108.42197033
_cell_angle_gamma   90.00000000
_symmetry_Int_Tables_number   1
_chemical_formula_structural   BeP2
_chemical_formula_sum   'Be16 P32'
_cell_volume   761.65150787
_cell_formula_units_Z   16
loop_
 _symmetry_equiv_pos_site_id
 _symmetry_equiv_pos_as_xyz
  1  'x, y, z'
loop_
 _atom_site_type_symbol
 _atom_site_label
 _atom_site_symmetry_multiplicity
 _atom_site_fract_x
 _atom_site_fract_y
 _atom_site_fract_z
 _atom_site_occupancy
  Be  Be0  1  0.82966800  0.93939100  0.07320400  1
  Be  Be1  1  0.58338350  0.18640450  0.07648300  1
  Be  Be2  1  0.41661650  0.81359550  0.92351700  1
  Be  Be3  1  0.17033200  0.06060900  0.92679600  1
  Be  Be4  1  0.58338350  0.81359550  0.57648300  1
  Be  Be5  1  0.82966800  0.06060900  0.57320400  1
  Be  Be6  1  0.41661650  0.18640450  0.42351700  1
  Be  Be7  1  0.17033200  0.93939100  0.42679600  1
  Be  Be8  1  0.32966800  0.43939100  0.07320400  1
  Be  Be9  1  0.08338350  0.68640450  0.07648300  1
  Be  Be10  1  0.91661650  0.31359550  0.92351700  1
  Be  Be11  1  0.67033200  0.56060900  0.92679600  1
  Be  Be12  1  0.08338350  0.31359550  0.57648300  1
  Be  Be13  1  0.32966800  0.56060900  0.57320400  1
  Be  Be14  1  0.91661650  0.68640450  0.42351700  1
  Be  Be15  1  0.67033200  0.43939100  0.42679600  1
  P  P16  1  0.50000000  0.44283400  0.75000000  1
  P  P17  1  0.24549200  0.18766000  0.75280700  1
  P  P18  1  0.75450800  0.18766000  0.74719300  1
  P  P19  1  0.50000000  0.93227100  0.75000000  1
  P  P20  1  0.41923400  0.31196500  0.92101600  1
  P  P21  1  0.66608450  0.06385950  0.91663000  1
  P  P22  1  0.33391550  0.93614050  0.08337000  1
  P  P23  1  0.58076600  0.68803500  0.07898400  1
  P  P24  1  0.33391550  0.06385950  0.58337000  1
  P  P25  1  0.58076600  0.31196500  0.57898400  1
  P  P26  1  0.66608450  0.93614050  0.41663000  1
  P  P27  1  0.50000000  0.06772900  0.25000000  1
  P  P28  1  0.24549200  0.81234000  0.25280700  1
  P  P29  1  0.75450800  0.81234000  0.24719300  1
  P  P30  1  0.41923400  0.68803500  0.42101600  1
  P  P31  1  0.50000000  0.55716600  0.25000000  1
  P  P32  1  0.00000000  0.94283400  0.75000000  1
  P  P33  1  0.74549200  0.68766000  0.75280700  1
  P  P34  1  0.25450800  0.68766000  0.74719300  1
  P  P35  1  0.00000000  0.43227100  0.75000000  1
  P  P36  1  0.91923400  0.81196500  0.92101600  1
  P  P37  1  0.16608450  0.56385950  0.91663000  1
  P  P38  1  0.83391550  0.43614050  0.08337000  1
  P  P39  1  0.08076600  0.18803500  0.07898400  1
  P  P40  1  0.83391550  0.56385950  0.58337000  1
  P  P41  1  0.08076600  0.81196500  0.57898400  1
  P  P42  1  0.16608450  0.43614050  0.41663000  1
  P  P43  1  0.00000000  0.56772900  0.25000000  1
  P  P44  1  0.74549200  0.31234000  0.25280700  1
  P  P45  1  0.25450800  0.31234000  0.24719300  1
  P  P46  1  0.91923400  0.18803500  0.42101600  1
  P  P47  1  0.00000000  0.05716600  0.25000000  1
