# generated using pymatgen
data_H7Se2NO6
_symmetry_space_group_name_H-M   'P 1'
_cell_length_a   5.91613700
_cell_length_b   6.50508700
_cell_length_c   17.95076500
_cell_angle_alpha   90.00000000
_cell_angle_beta   90.00000000
_cell_angle_gamma   90.00000000
_symmetry_Int_Tables_number   1
_chemical_formula_structural   H7Se2NO6
_chemical_formula_sum   'H28 Se8 N4 O24'
_cell_volume   690.83493772
_cell_formula_units_Z   4
loop_
 _symmetry_equiv_pos_site_id
 _symmetry_equiv_pos_as_xyz
  1  'x, y, z'
loop_
 _atom_site_type_symbol
 _atom_site_label
 _atom_site_symmetry_multiplicity
 _atom_site_fract_x
 _atom_site_fract_y
 _atom_site_fract_z
 _atom_site_occupancy
  H  H0  1  0.10425600  0.58544500  0.18080100  1
  H  H1  1  0.60425600  0.91455500  0.81919900  1
  H  H2  1  0.89574400  0.08544500  0.31919900  1
  H  H3  1  0.39574400  0.41455500  0.68080100  1
  H  H4  1  0.88108000  0.52797800  0.12407900  1
  H  H5  1  0.38108000  0.97202200  0.87592100  1
  H  H6  1  0.11892000  0.02797800  0.37592100  1
  H  H7  1  0.61892000  0.47202200  0.62407900  1
  H  H8  1  0.88862900  0.43825800  0.21346600  1
  H  H9  1  0.38862900  0.06174200  0.78653400  1
  H  H10  1  0.11137100  0.93825800  0.28653400  1
  H  H11  1  0.61137100  0.56174200  0.71346600  1
  H  H12  1  0.06813700  0.34394900  0.14879600  1
  H  H13  1  0.56813700  0.15605100  0.85120400  1
  H  H14  1  0.93186300  0.84394900  0.35120400  1
  H  H15  1  0.43186300  0.65605100  0.64879600  1
  H  H16  1  0.34907900  0.53711700  0.86414200  1
  H  H17  1  0.84907900  0.96288300  0.13585800  1
  H  H18  1  0.65092100  0.03711700  0.63585800  1
  H  H19  1  0.15092100  0.46288300  0.36414200  1
  H  H20  1  0.23548200  0.69337000  0.99822600  1
  H  H21  1  0.73548200  0.80663000  0.00177400  1
  H  H22  1  0.76451800  0.19337000  0.50177400  1
  H  H23  1  0.26451800  0.30663000  0.49822600  1
  H  H24  1  0.01544700  0.26550500  0.78045800  1
  H  H25  1  0.51544700  0.23449500  0.21954200  1
  H  H26  1  0.98455300  0.76550500  0.71954200  1
  H  H27  1  0.48455300  0.73449500  0.28045800  1
  Se  Se28  1  0.51041300  0.42786400  0.00926500  1
  Se  Se29  1  0.01041300  0.07213600  0.99073500  1
  Se  Se30  1  0.48958700  0.92786400  0.49073500  1
  Se  Se31  1  0.98958700  0.57213600  0.50926500  1
  Se  Se32  1  0.95519500  0.55720800  0.85527500  1
  Se  Se33  1  0.45519500  0.94279200  0.14472500  1
  Se  Se34  1  0.04480500  0.05720800  0.64472500  1
  Se  Se35  1  0.54480500  0.44279200  0.35527500  1
  N  N36  1  0.98533600  0.47448100  0.16713200  1
  N  N37  1  0.48533600  0.02551900  0.83286800  1
  N  N38  1  0.01466400  0.97448100  0.33286800  1
  N  N39  1  0.51466400  0.52551900  0.66713200  1
  O  O40  1  0.70067000  0.59937000  0.04458600  1
  O  O41  1  0.20067000  0.90063000  0.95541400  1
  O  O42  1  0.29933000  0.09937000  0.45541400  1
  O  O43  1  0.79933000  0.40063000  0.54458600  1
  O  O44  1  0.82424100  0.69210900  0.78722600  1
  O  O45  1  0.32424100  0.80789100  0.21277400  1
  O  O46  1  0.17575900  0.19210900  0.71277400  1
  O  O47  1  0.67575900  0.30789100  0.28722600  1
  O  O48  1  0.53755800  0.44694900  0.91451400  1
  O  O49  1  0.03755800  0.05305100  0.08548600  1
  O  O50  1  0.46244200  0.94694900  0.58548600  1
  O  O51  1  0.96244200  0.55305100  0.41451400  1
  O  O52  1  0.23932300  0.59030500  0.82345400  1
  O  O53  1  0.73932300  0.90969500  0.17654600  1
  O  O54  1  0.76067700  0.09030500  0.67654600  1
  O  O55  1  0.26067700  0.40969500  0.32345400  1
  O  O56  1  0.24392300  0.55277200  0.02498000  1
  O  O57  1  0.74392300  0.94722800  0.97502000  1
  O  O58  1  0.75607700  0.05277200  0.47502000  1
  O  O59  1  0.25607700  0.44722800  0.52498000  1
  O  O60  1  0.92140300  0.29520800  0.82708000  1
  O  O61  1  0.42140300  0.20479200  0.17292000  1
  O  O62  1  0.07859700  0.79520800  0.67292000  1
  O  O63  1  0.57859700  0.70479200  0.32708000  1
