# generated using pymatgen
data_CdP2(HO)4
_symmetry_space_group_name_H-M   'P 1'
_cell_length_a   15.88449200
_cell_length_b   5.55278600
_cell_length_c   6.64482872
_cell_angle_alpha   90.00000000
_cell_angle_beta   101.39607544
_cell_angle_gamma   90.00000000
_symmetry_Int_Tables_number   1
_chemical_formula_structural   CdP2(HO)4
_chemical_formula_sum   'Cd4 P8 H16 O16'
_cell_volume   574.54002199
_cell_formula_units_Z   4
loop_
 _symmetry_equiv_pos_site_id
 _symmetry_equiv_pos_as_xyz
  1  'x, y, z'
loop_
 _atom_site_type_symbol
 _atom_site_label
 _atom_site_symmetry_multiplicity
 _atom_site_fract_x
 _atom_site_fract_y
 _atom_site_fract_z
 _atom_site_occupancy
  Cd  Cd0  1  0.00000000  0.82836200  0.25000000  1
  Cd  Cd1  1  0.00000000  0.17163800  0.75000000  1
  Cd  Cd2  1  0.50000000  0.32836200  0.25000000  1
  Cd  Cd3  1  0.50000000  0.67163800  0.75000000  1
  P  P4  1  0.86356050  0.31690550  0.29046100  1
  P  P5  1  0.63643950  0.81690550  0.20953900  1
  P  P6  1  0.63643950  0.18309450  0.70953900  1
  P  P7  1  0.86356050  0.68309450  0.79046100  1
  P  P8  1  0.36356050  0.81690550  0.29046100  1
  P  P9  1  0.13643950  0.31690550  0.20953900  1
  P  P10  1  0.13643950  0.68309450  0.70953900  1
  P  P11  1  0.36356050  0.18309450  0.79046100  1
  H  H12  1  0.79305500  0.31007700  0.39195400  1
  H  H13  1  0.70694500  0.81007700  0.10804600  1
  H  H14  1  0.70694500  0.18992300  0.60804600  1
  H  H15  1  0.79305500  0.68992300  0.89195400  1
  H  H16  1  0.83021950  0.21959850  0.09340400  1
  H  H17  1  0.66978050  0.71959850  0.40659600  1
  H  H18  1  0.66978050  0.28040150  0.90659600  1
  H  H19  1  0.83021950  0.78040150  0.59340400  1
  H  H20  1  0.29305500  0.81007700  0.39195400  1
  H  H21  1  0.20694500  0.31007700  0.10804600  1
  H  H22  1  0.20694500  0.68992300  0.60804600  1
  H  H23  1  0.29305500  0.18992300  0.89195400  1
  H  H24  1  0.33021950  0.71959850  0.09340400  1
  H  H25  1  0.16978050  0.21959850  0.40659600  1
  H  H26  1  0.16978050  0.78040150  0.90659600  1
  H  H27  1  0.33021950  0.28040150  0.59340400  1
  O  O28  1  0.61096100  0.07768300  0.22917100  1
  O  O29  1  0.88903900  0.57768300  0.27082900  1
  O  O30  1  0.93174600  0.86132200  0.89926700  1
  O  O31  1  0.56825400  0.36132200  0.60073300  1
  O  O32  1  0.56825400  0.63867800  0.10073300  1
  O  O33  1  0.93174600  0.13867800  0.39926700  1
  O  O34  1  0.61096100  0.92231700  0.72917100  1
  O  O35  1  0.88903900  0.42231700  0.77082900  1
  O  O36  1  0.11096100  0.57768300  0.22917100  1
  O  O37  1  0.38903900  0.07768300  0.27082900  1
  O  O38  1  0.43174600  0.36132200  0.89926700  1
  O  O39  1  0.06825400  0.86132200  0.60073300  1
  O  O40  1  0.06825400  0.13867800  0.10073300  1
  O  O41  1  0.43174600  0.63867800  0.39926700  1
  O  O42  1  0.11096100  0.42231700  0.72917100  1
  O  O43  1  0.38903900  0.92231700  0.77082900  1
