# generated using pymatgen
data_Sr(H9O5)2
_symmetry_space_group_name_H-M   'P 1'
_cell_length_a   9.02287600
_cell_length_b   9.02287600
_cell_length_c   11.52481700
_cell_angle_alpha   90.00000000
_cell_angle_beta   90.00000000
_cell_angle_gamma   90.00000000
_symmetry_Int_Tables_number   1
_chemical_formula_structural   Sr(H9O5)2
_chemical_formula_sum   'Sr4 H72 O40'
_cell_volume   938.26175891
_cell_formula_units_Z   4
loop_
 _symmetry_equiv_pos_site_id
 _symmetry_equiv_pos_as_xyz
  1  'x, y, z'
loop_
 _atom_site_type_symbol
 _atom_site_label
 _atom_site_symmetry_multiplicity
 _atom_site_fract_x
 _atom_site_fract_y
 _atom_site_fract_z
 _atom_site_occupancy
  Sr  Sr0  1  0.00000000  0.00000000  0.75000000  1
  Sr  Sr1  1  0.50000000  0.50000000  0.75000000  1
  Sr  Sr2  1  0.50000000  0.50000000  0.25000000  1
  Sr  Sr3  1  0.00000000  0.00000000  0.25000000  1
  H  H4  1  0.71199000  0.59319100  0.46378000  1
  H  H5  1  0.28801000  0.40680900  0.46378000  1
  H  H6  1  0.59319100  0.71199000  0.03622000  1
  H  H7  1  0.09319100  0.78801000  0.46378000  1
  H  H8  1  0.90680900  0.21199000  0.46378000  1
  H  H9  1  0.78801000  0.09319100  0.03622000  1
  H  H10  1  0.21199000  0.90680900  0.03622000  1
  H  H11  1  0.40680900  0.28801000  0.03622000  1
  H  H12  1  0.78801000  0.90680900  0.53622000  1
  H  H13  1  0.21199000  0.09319100  0.53622000  1
  H  H14  1  0.90680900  0.78801000  0.96378000  1
  H  H15  1  0.40680900  0.71199000  0.53622000  1
  H  H16  1  0.59319100  0.28801000  0.53622000  1
  H  H17  1  0.71199000  0.40680900  0.96378000  1
  H  H18  1  0.28801000  0.59319100  0.96378000  1
  H  H19  1  0.09319100  0.21199000  0.96378000  1
  H  H20  1  0.82904300  0.55890100  0.36376500  1
  H  H21  1  0.17095700  0.44109900  0.36376500  1
  H  H22  1  0.55890100  0.82904300  0.13623500  1
  H  H23  1  0.05890100  0.67095700  0.36376500  1
  H  H24  1  0.94109900  0.32904300  0.36376500  1
  H  H25  1  0.67095700  0.05890100  0.13623500  1
  H  H26  1  0.32904300  0.94109900  0.13623500  1
  H  H27  1  0.44109900  0.17095700  0.13623500  1
  H  H28  1  0.67095700  0.94109900  0.63623500  1
  H  H29  1  0.32904300  0.05890100  0.63623500  1
  H  H30  1  0.94109900  0.67095700  0.86376500  1
  H  H31  1  0.44109900  0.82904300  0.63623500  1
  H  H32  1  0.70808100  0.26152900  0.37175700  1
  H  H33  1  0.55890100  0.17095700  0.63623500  1
  H  H34  1  0.17095700  0.55890100  0.86376500  1
  H  H35  1  0.05890100  0.32904300  0.86376500  1
  H  H36  1  0.73847100  0.70808100  0.62824300  1
  H  H37  1  0.26152900  0.29191900  0.62824300  1
  H  H38  1  0.70808100  0.73847100  0.87175700  1
  H  H39  1  0.20808100  0.76152900  0.62824300  1
  H  H40  1  0.79191900  0.23847100  0.62824300  1
  H  H41  1  0.76152900  0.20808100  0.87175700  1
  H  H42  1  0.23847100  0.79191900  0.87175700  1
  H  H43  1  0.29191900  0.26152900  0.87175700  1
  H  H44  1  0.76152900  0.79191900  0.37175700  1
  H  H45  1  0.23847100  0.20808100  0.37175700  1
  H  H46  1  0.79191900  0.76152900  0.12824300  1
  H  H47  1  0.29191900  0.73847100  0.37175700  1
  H  H48  1  0.00000000  0.50000000  0.01477700  1
  H  H49  1  0.50000000  0.00000000  0.48522300  1
  H  H50  1  0.50000000  0.00000000  0.98522300  1
  H  H51  1  0.00000000  0.50000000  0.51477700  1
  H  H52  1  0.00000000  0.50000000  0.25907100  1
  H  H53  1  0.50000000  0.00000000  0.24092900  1
  H  H54  1  0.50000000  0.00000000  0.74092900  1
  H  H55  1  0.00000000  0.50000000  0.75907100  1
  H  H56  1  0.05625400  0.32654000  0.11955000  1
  H  H57  1  0.17346000  0.55625400  0.11955000  1
  H  H58  1  0.82654000  0.44374600  0.11955000  1
  H  H59  1  0.55625400  0.17346000  0.38045000  1
  H  H60  1  0.44374600  0.82654000  0.38045000  1
  H  H61  1  0.94374600  0.67346000  0.11955000  1
  H  H62  1  0.32654000  0.05625400  0.38045000  1
  H  H63  1  0.67346000  0.94374600  0.38045000  1
  H  H64  1  0.44374600  0.17346000  0.88045000  1
  H  H65  1  0.32654000  0.94374600  0.88045000  1
  H  H66  1  0.67346000  0.05625400  0.88045000  1
  H  H67  1  0.94374600  0.32654000  0.61955000  1
  H  H68  1  0.05625400  0.67346000  0.61955000  1
  H  H69  1  0.55625400  0.82654000  0.88045000  1
  H  H70  1  0.17346000  0.44374600  0.61955000  1
  H  H71  1  0.82654000  0.55625400  0.61955000  1
  H  H72  1  0.20808100  0.23847100  0.12824300  1
  H  H73  1  0.26152900  0.70808100  0.12824300  1
  H  H74  1  0.73847100  0.29191900  0.12824300  1
  H  H75  1  0.82904300  0.44109900  0.86376500  1
  O  O76  1  0.72576800  0.60084700  0.37813100  1
  O  O77  1  0.27423200  0.39915300  0.37813100  1
  O  O78  1  0.60084700  0.72576800  0.12186900  1
  O  O79  1  0.10084700  0.77423200  0.37813100  1
  O  O80  1  0.89915300  0.22576800  0.37813100  1
  O  O81  1  0.77423200  0.10084700  0.12186900  1
  O  O82  1  0.22576800  0.89915300  0.12186900  1
  O  O83  1  0.39915300  0.27423200  0.12186900  1
  O  O84  1  0.77423200  0.89915300  0.62186900  1
  O  O85  1  0.22576800  0.10084700  0.62186900  1
  O  O86  1  0.89915300  0.77423200  0.87813100  1
  O  O87  1  0.39915300  0.72576800  0.62186900  1
  O  O88  1  0.60084700  0.27423200  0.62186900  1
  O  O89  1  0.72576800  0.39915300  0.87813100  1
  O  O90  1  0.27423200  0.60084700  0.87813100  1
  O  O91  1  0.10084700  0.22576800  0.87813100  1
  O  O92  1  0.72242100  0.59878900  0.62017100  1
  O  O93  1  0.27757900  0.40121100  0.62017100  1
  O  O94  1  0.59878900  0.72242100  0.87982900  1
  O  O95  1  0.09878900  0.77757900  0.62017100  1
  O  O96  1  0.90121100  0.22242100  0.62017100  1
  O  O97  1  0.77757900  0.09878900  0.87982900  1
  O  O98  1  0.22242100  0.90121100  0.87982900  1
  O  O99  1  0.40121100  0.27757900  0.87982900  1
  O  O100  1  0.77757900  0.90121100  0.37982900  1
  O  O101  1  0.22242100  0.09878900  0.37982900  1
  O  O102  1  0.90121100  0.77757900  0.12017100  1
  O  O103  1  0.40121100  0.72242100  0.37982900  1
  O  O104  1  0.59878900  0.27757900  0.37982900  1
  O  O105  1  0.72242100  0.40121100  0.12017100  1
  O  O106  1  0.27757900  0.59878900  0.12017100  1
  O  O107  1  0.09878900  0.22242100  0.12017100  1
  O  O108  1  0.00000000  0.50000000  0.84427600  1
  O  O109  1  0.50000000  0.00000000  0.65572400  1
  O  O110  1  0.50000000  0.00000000  0.15572400  1
  O  O111  1  0.00000000  0.50000000  0.34427600  1
  O  O112  1  0.00000000  0.50000000  0.59987700  1
  O  O113  1  0.50000000  0.00000000  0.90012300  1
  O  O114  1  0.50000000  0.00000000  0.40012300  1
  O  O115  1  0.00000000  0.50000000  0.09987700  1
