# generated using pymatgen
data_K2H2IrCl5O
_symmetry_space_group_name_H-M   'P 1'
_cell_length_a   7.61483900
_cell_length_b   9.24448500
_cell_length_c   13.88716700
_cell_angle_alpha   90.00000000
_cell_angle_beta   90.00000000
_cell_angle_gamma   90.00000000
_symmetry_Int_Tables_number   1
_chemical_formula_structural   K2H2IrCl5O
_chemical_formula_sum   'K8 H8 Ir4 Cl20 O4'
_cell_volume   977.59079985
_cell_formula_units_Z   4
loop_
 _symmetry_equiv_pos_site_id
 _symmetry_equiv_pos_as_xyz
  1  'x, y, z'
loop_
 _atom_site_type_symbol
 _atom_site_label
 _atom_site_symmetry_multiplicity
 _atom_site_fract_x
 _atom_site_fract_y
 _atom_site_fract_z
 _atom_site_occupancy
  K  K0  1  0.37737400  0.49726400  0.34594500  1
  K  K1  1  0.87737400  0.99726400  0.15405500  1
  K  K2  1  0.37737400  0.00273600  0.34594500  1
  K  K3  1  0.12262600  0.49726400  0.84594500  1
  K  K4  1  0.12262600  0.00273600  0.84594500  1
  K  K5  1  0.62262600  0.99726400  0.65405500  1
  K  K6  1  0.62262600  0.50273600  0.65405500  1
  K  K7  1  0.87737400  0.50273600  0.15405500  1
  H  H8  1  0.47173700  0.66343500  0.03620000  1
  H  H9  1  0.97173700  0.33656500  0.46380000  1
  H  H10  1  0.52826300  0.16343500  0.96380000  1
  H  H11  1  0.02826300  0.83656500  0.53620000  1
  H  H12  1  0.02826300  0.66343500  0.53620000  1
  H  H13  1  0.47173700  0.83656500  0.03620000  1
  H  H14  1  0.52826300  0.33656500  0.96380000  1
  H  H15  1  0.97173700  0.16343500  0.46380000  1
  Ir  Ir16  1  0.30722500  0.25000000  0.10299200  1
  Ir  Ir17  1  0.80722500  0.75000000  0.39700800  1
  Ir  Ir18  1  0.69277500  0.75000000  0.89700800  1
  Ir  Ir19  1  0.19277500  0.25000000  0.60299200  1
  Cl  Cl20  1  0.42985900  0.75000000  0.80432800  1
  Cl  Cl21  1  0.07014100  0.75000000  0.30432800  1
  Cl  Cl22  1  0.57014100  0.25000000  0.19567200  1
  Cl  Cl23  1  0.19671100  0.50642100  0.60191700  1
  Cl  Cl24  1  0.19671100  0.99357900  0.60191700  1
  Cl  Cl25  1  0.69671100  0.00642100  0.89808300  1
  Cl  Cl26  1  0.80328900  0.49357900  0.39808300  1
  Cl  Cl27  1  0.04687600  0.25000000  0.00872600  1
  Cl  Cl28  1  0.80328900  0.00642100  0.39808300  1
  Cl  Cl29  1  0.30328900  0.99357900  0.10191700  1
  Cl  Cl30  1  0.30328900  0.50642100  0.10191700  1
  Cl  Cl31  1  0.69671100  0.49357900  0.89808300  1
  Cl  Cl32  1  0.36391000  0.25000000  0.74299400  1
  Cl  Cl33  1  0.86391000  0.75000000  0.75700600  1
  Cl  Cl34  1  0.63609000  0.75000000  0.25700600  1
  Cl  Cl35  1  0.13609000  0.25000000  0.24299400  1
  Cl  Cl36  1  0.45312400  0.25000000  0.50872600  1
  Cl  Cl37  1  0.95312400  0.75000000  0.99127400  1
  Cl  Cl38  1  0.54687600  0.75000000  0.49127400  1
  Cl  Cl39  1  0.92985900  0.25000000  0.69567200  1
  O  O40  1  0.45290300  0.25000000  0.97383400  1
  O  O41  1  0.54709700  0.75000000  0.02616600  1
  O  O42  1  0.04709700  0.25000000  0.47383400  1
  O  O43  1  0.95290300  0.75000000  0.52616600  1
