# generated using pymatgen
data_Cs3H(SeO4)2
_symmetry_space_group_name_H-M   'P 1'
_cell_length_a   11.08854200
_cell_length_b   6.51247400
_cell_length_c   8.68068572
_cell_angle_alpha   90.00000000
_cell_angle_beta   111.81909207
_cell_angle_gamma   90.00000000
_symmetry_Int_Tables_number   1
_chemical_formula_structural   Cs3H(SeO4)2
_chemical_formula_sum   'Cs6 H2 Se4 O16'
_cell_volume   581.95827772
_cell_formula_units_Z   2
loop_
 _symmetry_equiv_pos_site_id
 _symmetry_equiv_pos_as_xyz
  1  'x, y, z'
loop_
 _atom_site_type_symbol
 _atom_site_label
 _atom_site_symmetry_multiplicity
 _atom_site_fract_x
 _atom_site_fract_y
 _atom_site_fract_z
 _atom_site_occupancy
  Cs  Cs0  1  0.19797200  0.00000000  0.60994900  1
  Cs  Cs1  1  0.80202800  0.00000000  0.39005100  1
  Cs  Cs2  1  0.00000000  0.00000000  0.00000000  1
  Cs  Cs3  1  0.69797200  0.50000000  0.60994900  1
  Cs  Cs4  1  0.30202800  0.50000000  0.39005100  1
  Cs  Cs5  1  0.50000000  0.50000000  0.00000000  1
  H  H6  1  0.50000000  0.00000000  0.00000000  1
  H  H7  1  0.00000000  0.50000000  0.00000000  1
  Se  Se8  1  0.42892600  0.00000000  0.23409900  1
  Se  Se9  1  0.57107400  0.00000000  0.76590100  1
  Se  Se10  1  0.92892600  0.50000000  0.23409900  1
  Se  Se11  1  0.07107400  0.50000000  0.76590100  1
  O  O12  1  0.28707700  0.00000000  0.25760600  1
  O  O13  1  0.71292300  0.00000000  0.74239400  1
  O  O14  1  0.39698900  0.00000000  0.02214200  1
  O  O15  1  0.60301100  0.00000000  0.97785800  1
  O  O16  1  0.51489650  0.21228750  0.30934600  1
  O  O17  1  0.48510350  0.21228750  0.69065400  1
  O  O18  1  0.48510350  0.78771250  0.69065400  1
  O  O19  1  0.51489650  0.78771250  0.30934600  1
  O  O20  1  0.78707700  0.50000000  0.25760600  1
  O  O21  1  0.21292300  0.50000000  0.74239400  1
  O  O22  1  0.89698900  0.50000000  0.02214200  1
  O  O23  1  0.10301100  0.50000000  0.97785800  1
  O  O24  1  0.01489650  0.71228750  0.30934600  1
  O  O25  1  0.98510350  0.71228750  0.69065400  1
  O  O26  1  0.98510350  0.28771250  0.69065400  1
  O  O27  1  0.01489650  0.28771250  0.30934600  1
