# generated using pymatgen
data_Rb3AsSe16
_symmetry_space_group_name_H-M   'P 1'
_cell_length_a   17.11281200
_cell_length_b   17.11281200
_cell_length_c   17.11281200
_cell_angle_alpha   90.00000000
_cell_angle_beta   90.00000000
_cell_angle_gamma   90.00000000
_symmetry_Int_Tables_number   1
_chemical_formula_structural   Rb3AsSe16
_chemical_formula_sum   'Rb24 As8 Se128'
_cell_volume   5011.45849362
_cell_formula_units_Z   8
loop_
 _symmetry_equiv_pos_site_id
 _symmetry_equiv_pos_as_xyz
  1  'x, y, z'
loop_
 _atom_site_type_symbol
 _atom_site_label
 _atom_site_symmetry_multiplicity
 _atom_site_fract_x
 _atom_site_fract_y
 _atom_site_fract_z
 _atom_site_occupancy
  Rb  Rb0  1  0.25000000  0.75000000  0.75000000  1
  Rb  Rb1  1  0.00000000  0.00000000  0.00000000  1
  Rb  Rb2  1  0.87500000  0.12500000  0.37500000  1
  Rb  Rb3  1  0.12500000  0.12500000  0.62500000  1
  Rb  Rb4  1  0.12500000  0.87500000  0.37500000  1
  Rb  Rb5  1  0.87500000  0.87500000  0.62500000  1
  Rb  Rb6  1  0.25000000  0.25000000  0.25000000  1
  Rb  Rb7  1  0.00000000  0.50000000  0.50000000  1
  Rb  Rb8  1  0.87500000  0.62500000  0.87500000  1
  Rb  Rb9  1  0.12500000  0.62500000  0.12500000  1
  Rb  Rb10  1  0.12500000  0.37500000  0.87500000  1
  Rb  Rb11  1  0.87500000  0.37500000  0.12500000  1
  Rb  Rb12  1  0.75000000  0.75000000  0.25000000  1
  Rb  Rb13  1  0.50000000  0.00000000  0.50000000  1
  Rb  Rb14  1  0.37500000  0.12500000  0.87500000  1
  Rb  Rb15  1  0.62500000  0.12500000  0.12500000  1
  Rb  Rb16  1  0.62500000  0.87500000  0.87500000  1
  Rb  Rb17  1  0.37500000  0.87500000  0.12500000  1
  Rb  Rb18  1  0.75000000  0.25000000  0.75000000  1
  Rb  Rb19  1  0.50000000  0.50000000  0.00000000  1
  Rb  Rb20  1  0.37500000  0.62500000  0.37500000  1
  Rb  Rb21  1  0.62500000  0.62500000  0.62500000  1
  Rb  Rb22  1  0.62500000  0.37500000  0.37500000  1
  Rb  Rb23  1  0.37500000  0.37500000  0.62500000  1
  As  As24  1  0.00000000  0.00000000  0.50000000  1
  As  As25  1  0.75000000  0.75000000  0.75000000  1
  As  As26  1  0.00000000  0.50000000  0.00000000  1
  As  As27  1  0.75000000  0.25000000  0.25000000  1
  As  As28  1  0.50000000  0.00000000  0.00000000  1
  As  As29  1  0.25000000  0.75000000  0.25000000  1
  As  As30  1  0.50000000  0.50000000  0.50000000  1
  As  As31  1  0.25000000  0.25000000  0.75000000  1
  Se  Se32  1  0.13210300  0.76273000  0.94330700  1
  Se  Se33  1  0.94330700  0.13210300  0.76273000  1
  Se  Se34  1  0.73727000  0.05669300  0.63210300  1
  Se  Se35  1  0.05669300  0.86789700  0.76273000  1
  Se  Se36  1  0.86789700  0.23727000  0.94330700  1
  Se  Se37  1  0.63210300  0.23727000  0.55669300  1
  Se  Se38  1  0.92001000  0.92001000  0.42001000  1
  Se  Se39  1  0.07999000  0.07999000  0.42001000  1
  Se  Se40  1  0.92001000  0.07999000  0.57999000  1
  Se  Se41  1  0.07999000  0.92001000  0.57999000  1
  Se  Se42  1  0.82999000  0.82999000  0.82999000  1
  Se  Se43  1  0.17001000  0.17001000  0.82999000  1
  Se  Se44  1  0.82999000  0.17001000  0.17001000  1
  Se  Se45  1  0.17001000  0.82999000  0.17001000  1
  Se  Se46  1  0.38210300  0.98727000  0.69330700  1
  Se  Se47  1  0.01273000  0.80669300  0.88210300  1
  Se  Se48  1  0.69330700  0.11789700  0.51273000  1
  Se  Se49  1  0.30669300  0.88210300  0.51273000  1
  Se  Se50  1  0.48727000  0.80669300  0.61789700  1
  Se  Se51  1  0.98727000  0.19330700  0.88210300  1
  Se  Se52  1  0.19330700  0.88210300  0.98727000  1
  Se  Se53  1  0.51273000  0.19330700  0.61789700  1
  Se  Se54  1  0.80669300  0.11789700  0.98727000  1
  Se  Se55  1  0.11789700  0.98727000  0.80669300  1
  Se  Se56  1  0.61789700  0.01273000  0.69330700  1
  Se  Se57  1  0.88210300  0.01273000  0.80669300  1
  Se  Se58  1  0.36789700  0.76273000  0.55669300  1
  Se  Se59  1  0.23727000  0.94330700  0.86789700  1
  Se  Se60  1  0.55669300  0.13210300  0.73727000  1
  Se  Se61  1  0.44330700  0.86789700  0.73727000  1
  Se  Se62  1  0.26273000  0.94330700  0.63210300  1
  Se  Se63  1  0.76273000  0.05669300  0.86789700  1
  Se  Se64  1  0.13210300  0.26273000  0.44330700  1
  Se  Se65  1  0.94330700  0.63210300  0.26273000  1
  Se  Se66  1  0.73727000  0.55669300  0.13210300  1
  Se  Se67  1  0.05669300  0.36789700  0.26273000  1
  Se  Se68  1  0.86789700  0.73727000  0.44330700  1
  Se  Se69  1  0.63210300  0.73727000  0.05669300  1
  Se  Se70  1  0.92001000  0.42001000  0.92001000  1
  Se  Se71  1  0.07999000  0.57999000  0.92001000  1
  Se  Se72  1  0.92001000  0.57999000  0.07999000  1
  Se  Se73  1  0.07999000  0.42001000  0.07999000  1
  Se  Se74  1  0.82999000  0.32999000  0.32999000  1
  Se  Se75  1  0.17001000  0.67001000  0.32999000  1
  Se  Se76  1  0.82999000  0.67001000  0.67001000  1
  Se  Se77  1  0.17001000  0.32999000  0.67001000  1
  Se  Se78  1  0.38210300  0.48727000  0.19330700  1
  Se  Se79  1  0.01273000  0.30669300  0.38210300  1
  Se  Se80  1  0.69330700  0.61789700  0.01273000  1
  Se  Se81  1  0.30669300  0.38210300  0.01273000  1
  Se  Se82  1  0.48727000  0.30669300  0.11789700  1
  Se  Se83  1  0.98727000  0.69330700  0.38210300  1
  Se  Se84  1  0.19330700  0.38210300  0.48727000  1
  Se  Se85  1  0.51273000  0.69330700  0.11789700  1
  Se  Se86  1  0.80669300  0.61789700  0.48727000  1
  Se  Se87  1  0.11789700  0.48727000  0.30669300  1
  Se  Se88  1  0.61789700  0.51273000  0.19330700  1
  Se  Se89  1  0.88210300  0.51273000  0.30669300  1
  Se  Se90  1  0.36789700  0.26273000  0.05669300  1
  Se  Se91  1  0.23727000  0.44330700  0.36789700  1
  Se  Se92  1  0.55669300  0.63210300  0.23727000  1
  Se  Se93  1  0.44330700  0.36789700  0.23727000  1
  Se  Se94  1  0.26273000  0.44330700  0.13210300  1
  Se  Se95  1  0.76273000  0.55669300  0.36789700  1
  Se  Se96  1  0.63210300  0.76273000  0.44330700  1
  Se  Se97  1  0.44330700  0.13210300  0.26273000  1
  Se  Se98  1  0.23727000  0.05669300  0.13210300  1
  Se  Se99  1  0.55669300  0.86789700  0.26273000  1
  Se  Se100  1  0.36789700  0.23727000  0.44330700  1
  Se  Se101  1  0.13210300  0.23727000  0.05669300  1
  Se  Se102  1  0.42001000  0.92001000  0.92001000  1
  Se  Se103  1  0.57999000  0.07999000  0.92001000  1
  Se  Se104  1  0.42001000  0.07999000  0.07999000  1
  Se  Se105  1  0.57999000  0.92001000  0.07999000  1
  Se  Se106  1  0.32999000  0.82999000  0.32999000  1
  Se  Se107  1  0.67001000  0.17001000  0.32999000  1
  Se  Se108  1  0.32999000  0.17001000  0.67001000  1
  Se  Se109  1  0.67001000  0.82999000  0.67001000  1
  Se  Se110  1  0.88210300  0.98727000  0.19330700  1
  Se  Se111  1  0.51273000  0.80669300  0.38210300  1
  Se  Se112  1  0.19330700  0.11789700  0.01273000  1
  Se  Se113  1  0.80669300  0.88210300  0.01273000  1
  Se  Se114  1  0.98727000  0.80669300  0.11789700  1
  Se  Se115  1  0.48727000  0.19330700  0.38210300  1
  Se  Se116  1  0.69330700  0.88210300  0.48727000  1
  Se  Se117  1  0.01273000  0.19330700  0.11789700  1
  Se  Se118  1  0.30669300  0.11789700  0.48727000  1
  Se  Se119  1  0.61789700  0.98727000  0.30669300  1
  Se  Se120  1  0.11789700  0.01273000  0.19330700  1
  Se  Se121  1  0.38210300  0.01273000  0.30669300  1
  Se  Se122  1  0.86789700  0.76273000  0.05669300  1
  Se  Se123  1  0.73727000  0.94330700  0.36789700  1
  Se  Se124  1  0.05669300  0.13210300  0.23727000  1
  Se  Se125  1  0.94330700  0.86789700  0.23727000  1
  Se  Se126  1  0.76273000  0.94330700  0.13210300  1
  Se  Se127  1  0.26273000  0.05669300  0.36789700  1
  Se  Se128  1  0.63210300  0.26273000  0.94330700  1
  Se  Se129  1  0.44330700  0.63210300  0.76273000  1
  Se  Se130  1  0.23727000  0.55669300  0.63210300  1
  Se  Se131  1  0.55669300  0.36789700  0.76273000  1
  Se  Se132  1  0.36789700  0.73727000  0.94330700  1
  Se  Se133  1  0.13210300  0.73727000  0.55669300  1
  Se  Se134  1  0.42001000  0.42001000  0.42001000  1
  Se  Se135  1  0.57999000  0.57999000  0.42001000  1
  Se  Se136  1  0.42001000  0.57999000  0.57999000  1
  Se  Se137  1  0.57999000  0.42001000  0.57999000  1
  Se  Se138  1  0.32999000  0.32999000  0.82999000  1
  Se  Se139  1  0.67001000  0.67001000  0.82999000  1
  Se  Se140  1  0.32999000  0.67001000  0.17001000  1
  Se  Se141  1  0.67001000  0.32999000  0.17001000  1
  Se  Se142  1  0.88210300  0.48727000  0.69330700  1
  Se  Se143  1  0.51273000  0.30669300  0.88210300  1
  Se  Se144  1  0.19330700  0.61789700  0.51273000  1
  Se  Se145  1  0.80669300  0.38210300  0.51273000  1
  Se  Se146  1  0.98727000  0.30669300  0.61789700  1
  Se  Se147  1  0.48727000  0.69330700  0.88210300  1
  Se  Se148  1  0.69330700  0.38210300  0.98727000  1
  Se  Se149  1  0.01273000  0.69330700  0.61789700  1
  Se  Se150  1  0.30669300  0.61789700  0.98727000  1
  Se  Se151  1  0.61789700  0.48727000  0.80669300  1
  Se  Se152  1  0.11789700  0.51273000  0.69330700  1
  Se  Se153  1  0.38210300  0.51273000  0.80669300  1
  Se  Se154  1  0.86789700  0.26273000  0.55669300  1
  Se  Se155  1  0.73727000  0.44330700  0.86789700  1
  Se  Se156  1  0.05669300  0.63210300  0.73727000  1
  Se  Se157  1  0.94330700  0.36789700  0.73727000  1
  Se  Se158  1  0.76273000  0.44330700  0.63210300  1
  Se  Se159  1  0.26273000  0.55669300  0.86789700  1
