# generated using pymatgen
data_Cu2P7
_symmetry_space_group_name_H-M   'P 1'
_cell_length_a   12.71666000
_cell_length_b   7.28972400
_cell_length_c   14.68773946
_cell_angle_alpha   90.00000000
_cell_angle_beta   107.60273718
_cell_angle_gamma   90.00000000
_symmetry_Int_Tables_number   1
_chemical_formula_structural   Cu2P7
_chemical_formula_sum   'Cu16 P56'
_cell_volume   1297.81355323
_cell_formula_units_Z   8
loop_
 _symmetry_equiv_pos_site_id
 _symmetry_equiv_pos_as_xyz
  1  'x, y, z'
loop_
 _atom_site_type_symbol
 _atom_site_label
 _atom_site_symmetry_multiplicity
 _atom_site_fract_x
 _atom_site_fract_y
 _atom_site_fract_z
 _atom_site_occupancy
  Cu  Cu0  1  0.78130000  0.50000000  0.57281800  1
  Cu  Cu1  1  0.21870000  0.50000000  0.42718200  1
  Cu  Cu2  1  0.38333000  0.00000000  0.20601800  1
  Cu  Cu3  1  0.61667000  0.00000000  0.79398200  1
  Cu  Cu4  1  0.65651400  0.50000000  0.96726700  1
  Cu  Cu5  1  0.34348600  0.50000000  0.03273300  1
  Cu  Cu6  1  0.53412400  0.50000000  0.35374000  1
  Cu  Cu7  1  0.46587600  0.50000000  0.64626000  1
  Cu  Cu8  1  0.28130000  0.00000000  0.57281800  1
  Cu  Cu9  1  0.71870000  0.00000000  0.42718200  1
  Cu  Cu10  1  0.88333000  0.50000000  0.20601800  1
  Cu  Cu11  1  0.11667000  0.50000000  0.79398200  1
  Cu  Cu12  1  0.15651400  0.00000000  0.96726700  1
  Cu  Cu13  1  0.84348600  0.00000000  0.03273300  1
  Cu  Cu14  1  0.03412400  0.00000000  0.35374000  1
  Cu  Cu15  1  0.96587600  0.00000000  0.64626000  1
  P  P16  1  0.70107050  0.74226550  0.62277700  1
  P  P17  1  0.29892950  0.74226550  0.37722300  1
  P  P18  1  0.29892950  0.25773450  0.37722300  1
  P  P19  1  0.70107050  0.25773450  0.62277700  1
  P  P20  1  0.70557700  0.73463300  0.77645500  1
  P  P21  1  0.29442300  0.73463300  0.22354500  1
  P  P22  1  0.29442300  0.26536700  0.22354500  1
  P  P23  1  0.70557700  0.26536700  0.77645500  1
  P  P24  1  0.77599500  0.00000000  0.59327500  1
  P  P25  1  0.22400500  0.00000000  0.40672500  1
  P  P26  1  0.39468800  0.50000000  0.20347200  1
  P  P27  1  0.60531200  0.50000000  0.79652800  1
  P  P28  1  0.65333800  0.00000000  0.95661300  1
  P  P29  1  0.34666200  0.00000000  0.04338700  1
  P  P30  1  0.52809000  0.00000000  0.35504900  1
  P  P31  1  0.47191000  0.00000000  0.64495100  1
  P  P32  1  0.90765950  0.26505450  0.98113200  1
  P  P33  1  0.09234050  0.26505450  0.01886800  1
  P  P34  1  0.09234050  0.73494550  0.01886800  1
  P  P35  1  0.90765950  0.73494550  0.98113200  1
  P  P36  1  0.51857100  0.24624400  0.57842500  1
  P  P37  1  0.48142900  0.24624400  0.42157500  1
  P  P38  1  0.48142900  0.75375600  0.42157500  1
  P  P39  1  0.51857100  0.75375600  0.57842500  1
  P  P40  1  0.88146150  0.34340250  0.82954600  1
  P  P41  1  0.11853850  0.34340250  0.17045400  1
  P  P42  1  0.11853850  0.65659750  0.17045400  1
  P  P43  1  0.88146150  0.65659750  0.82954600  1
  P  P44  1  0.20107050  0.24226550  0.62277700  1
  P  P45  1  0.79892950  0.24226550  0.37722300  1
  P  P46  1  0.79892950  0.75773450  0.37722300  1
  P  P47  1  0.20107050  0.75773450  0.62277700  1
  P  P48  1  0.20557700  0.23463300  0.77645500  1
  P  P49  1  0.79442300  0.23463300  0.22354500  1
  P  P50  1  0.79442300  0.76536700  0.22354500  1
  P  P51  1  0.20557700  0.76536700  0.77645500  1
  P  P52  1  0.27599500  0.50000000  0.59327500  1
  P  P53  1  0.72400500  0.50000000  0.40672500  1
  P  P54  1  0.89468800  0.00000000  0.20347200  1
  P  P55  1  0.10531200  0.00000000  0.79652800  1
  P  P56  1  0.15333800  0.50000000  0.95661300  1
  P  P57  1  0.84666200  0.50000000  0.04338700  1
  P  P58  1  0.02809000  0.50000000  0.35504900  1
  P  P59  1  0.97191000  0.50000000  0.64495100  1
  P  P60  1  0.40765950  0.76505450  0.98113200  1
  P  P61  1  0.59234050  0.76505450  0.01886800  1
  P  P62  1  0.59234050  0.23494550  0.01886800  1
  P  P63  1  0.40765950  0.23494550  0.98113200  1
  P  P64  1  0.01857100  0.74624400  0.57842500  1
  P  P65  1  0.98142900  0.74624400  0.42157500  1
  P  P66  1  0.98142900  0.25375600  0.42157500  1
  P  P67  1  0.01857100  0.25375600  0.57842500  1
  P  P68  1  0.38146150  0.84340250  0.82954600  1
  P  P69  1  0.61853850  0.84340250  0.17045400  1
  P  P70  1  0.61853850  0.15659750  0.17045400  1
  P  P71  1  0.38146150  0.15659750  0.82954600  1
