# generated using pymatgen
data_K(SnSe2)2
_symmetry_space_group_name_H-M   'P 1'
_cell_length_a   6.63515200
_cell_length_b   19.42586800
_cell_length_c   7.61575201
_cell_angle_alpha   90.00000000
_cell_angle_beta   95.53845332
_cell_angle_gamma   90.00000000
_symmetry_Int_Tables_number   1
_chemical_formula_structural   K(SnSe2)2
_chemical_formula_sum   'K4 Sn8 Se16'
_cell_volume   977.03903862
_cell_formula_units_Z   4
loop_
 _symmetry_equiv_pos_site_id
 _symmetry_equiv_pos_as_xyz
  1  'x, y, z'
loop_
 _atom_site_type_symbol
 _atom_site_label
 _atom_site_symmetry_multiplicity
 _atom_site_fract_x
 _atom_site_fract_y
 _atom_site_fract_z
 _atom_site_occupancy
  K  K0  1  0.31222700  0.34296700  0.96565600  1
  K  K1  1  0.81222700  0.15703300  0.96565600  1
  K  K2  1  0.81222700  0.84296700  0.96565600  1
  K  K3  1  0.31222700  0.65703300  0.96565600  1
  Sn  Sn4  1  0.41124000  0.00000000  0.37624200  1
  Sn  Sn5  1  0.32875700  0.18840000  0.55648400  1
  Sn  Sn6  1  0.82875700  0.31160000  0.55648400  1
  Sn  Sn7  1  0.31212800  0.00000000  0.86814300  1
  Sn  Sn8  1  0.91124000  0.50000000  0.37624200  1
  Sn  Sn9  1  0.82875700  0.68840000  0.55648400  1
  Sn  Sn10  1  0.32875700  0.81160000  0.55648400  1
  Sn  Sn11  1  0.81212800  0.50000000  0.86814300  1
  Se  Se12  1  0.19563200  0.30938600  0.45969700  1
  Se  Se13  1  0.69563200  0.19061400  0.45969700  1
  Se  Se14  1  0.63268000  0.00000000  0.12153600  1
  Se  Se15  1  0.14149900  0.09756000  0.35187900  1
  Se  Se16  1  0.62768000  0.00000000  0.66876900  1
  Se  Se17  1  0.80652150  0.33669950  0.87723900  1
  Se  Se18  1  0.30652150  0.16330050  0.87723900  1
  Se  Se19  1  0.64149900  0.40244000  0.35187900  1
  Se  Se20  1  0.69563200  0.80938600  0.45969700  1
  Se  Se21  1  0.19563200  0.69061400  0.45969700  1
  Se  Se22  1  0.13268000  0.50000000  0.12153600  1
  Se  Se23  1  0.64149900  0.59756000  0.35187900  1
  Se  Se24  1  0.12768000  0.50000000  0.66876900  1
  Se  Se25  1  0.30652150  0.83669950  0.87723900  1
  Se  Se26  1  0.80652150  0.66330050  0.87723900  1
  Se  Se27  1  0.14149900  0.90244000  0.35187900  1
