# generated using pymatgen
data_TlHg5Cl11
_symmetry_space_group_name_H-M   'P 1'
_cell_length_a   12.28589200
_cell_length_b   14.85963800
_cell_length_c   6.68874603
_cell_angle_alpha   90.00000000
_cell_angle_beta   118.54881780
_cell_angle_gamma   90.00000000
_symmetry_Int_Tables_number   1
_chemical_formula_structural   TlHg5Cl11
_chemical_formula_sum   'Tl2 Hg10 Cl22'
_cell_volume   1072.64748440
_cell_formula_units_Z   2
loop_
 _symmetry_equiv_pos_site_id
 _symmetry_equiv_pos_as_xyz
  1  'x, y, z'
loop_
 _atom_site_type_symbol
 _atom_site_label
 _atom_site_symmetry_multiplicity
 _atom_site_fract_x
 _atom_site_fract_y
 _atom_site_fract_z
 _atom_site_occupancy
  Tl  Tl0  1  0.50000000  0.00000000  0.00000000  1
  Tl  Tl1  1  0.00000000  0.50000000  0.00000000  1
  Hg  Hg2  1  0.00000000  0.00000000  0.00000000  1
  Hg  Hg3  1  0.68233150  0.16562950  0.68325100  1
  Hg  Hg4  1  0.31766850  0.16562950  0.31674900  1
  Hg  Hg5  1  0.31766850  0.83437050  0.31674900  1
  Hg  Hg6  1  0.68233150  0.83437050  0.68325100  1
  Hg  Hg7  1  0.50000000  0.50000000  0.00000000  1
  Hg  Hg8  1  0.18233150  0.66562950  0.68325100  1
  Hg  Hg9  1  0.81766850  0.66562950  0.31674900  1
  Hg  Hg10  1  0.81766850  0.33437050  0.31674900  1
  Hg  Hg11  1  0.18233150  0.33437050  0.68325100  1
  Cl  Cl12  1  0.50000000  0.00000000  0.50000000  1
  Cl  Cl13  1  0.79010300  0.12409700  0.06638900  1
  Cl  Cl14  1  0.20989700  0.12409700  0.93361100  1
  Cl  Cl15  1  0.20989700  0.87590300  0.93361100  1
  Cl  Cl16  1  0.79010300  0.87590300  0.06638900  1
  Cl  Cl17  1  0.42004600  0.78469300  0.69564800  1
  Cl  Cl18  1  0.14639500  0.00000000  0.38407100  1
  Cl  Cl19  1  0.85360500  0.00000000  0.61592900  1
  Cl  Cl20  1  0.42004600  0.21530700  0.69564800  1
  Cl  Cl21  1  0.57995400  0.21530700  0.30435200  1
  Cl  Cl22  1  0.57995400  0.78469300  0.30435200  1
  Cl  Cl23  1  0.00000000  0.50000000  0.50000000  1
  Cl  Cl24  1  0.29010300  0.62409700  0.06638900  1
  Cl  Cl25  1  0.70989700  0.62409700  0.93361100  1
  Cl  Cl26  1  0.70989700  0.37590300  0.93361100  1
  Cl  Cl27  1  0.29010300  0.37590300  0.06638900  1
  Cl  Cl28  1  0.92004600  0.28469300  0.69564800  1
  Cl  Cl29  1  0.64639500  0.50000000  0.38407100  1
  Cl  Cl30  1  0.35360500  0.50000000  0.61592900  1
  Cl  Cl31  1  0.92004600  0.71530700  0.69564800  1
  Cl  Cl32  1  0.07995400  0.71530700  0.30435200  1
  Cl  Cl33  1  0.07995400  0.28469300  0.30435200  1
