# generated using pymatgen
data_NaBiO2
_symmetry_space_group_name_H-M   'P 1'
_cell_length_a   7.39618800
_cell_length_b   7.32299400
_cell_length_c   5.96858463
_cell_angle_alpha   90.00000000
_cell_angle_beta   127.14744886
_cell_angle_gamma   90.00000000
_symmetry_Int_Tables_number   1
_chemical_formula_structural   NaBiO2
_chemical_formula_sum   'Na4 Bi4 O8'
_cell_volume   257.67490861
_cell_formula_units_Z   4
loop_
 _symmetry_equiv_pos_site_id
 _symmetry_equiv_pos_as_xyz
  1  'x, y, z'
loop_
 _atom_site_type_symbol
 _atom_site_label
 _atom_site_symmetry_multiplicity
 _atom_site_fract_x
 _atom_site_fract_y
 _atom_site_fract_z
 _atom_site_occupancy
  Na  Na0  1  0.00000000  0.62663500  0.25000000  1
  Na  Na1  1  0.00000000  0.37336500  0.75000000  1
  Na  Na2  1  0.50000000  0.12663500  0.25000000  1
  Na  Na3  1  0.50000000  0.87336500  0.75000000  1
  Bi  Bi4  1  0.00000000  0.88432400  0.75000000  1
  Bi  Bi5  1  0.00000000  0.11567600  0.25000000  1
  Bi  Bi6  1  0.50000000  0.38432400  0.75000000  1
  Bi  Bi7  1  0.50000000  0.61567600  0.25000000  1
  O  O8  1  0.28577500  0.57966500  0.75415300  1
  O  O9  1  0.71422500  0.57966500  0.74584700  1
  O  O10  1  0.28577500  0.42033500  0.25415300  1
  O  O11  1  0.71422500  0.42033500  0.24584700  1
  O  O12  1  0.78577500  0.07966500  0.75415300  1
  O  O13  1  0.21422500  0.07966500  0.74584700  1
  O  O14  1  0.78577500  0.92033500  0.25415300  1
  O  O15  1  0.21422500  0.92033500  0.24584700  1
