# generated using pymatgen
data_P2Pd
_symmetry_space_group_name_H-M   'P 1'
_cell_length_a   6.94151400
_cell_length_b   5.90037800
_cell_length_c   5.91973872
_cell_angle_alpha   90.00000000
_cell_angle_beta   121.86979490
_cell_angle_gamma   90.00000000
_symmetry_Int_Tables_number   1
_chemical_formula_structural   P2Pd
_chemical_formula_sum   'P8 Pd4'
_cell_volume   205.90752110
_cell_formula_units_Z   4
loop_
 _symmetry_equiv_pos_site_id
 _symmetry_equiv_pos_as_xyz
  1  'x, y, z'
loop_
 _atom_site_type_symbol
 _atom_site_label
 _atom_site_symmetry_multiplicity
 _atom_site_fract_x
 _atom_site_fract_y
 _atom_site_fract_z
 _atom_site_occupancy
  P  P0  1  0.31403300  0.62420300  0.66628600  1
  P  P1  1  0.18596700  0.12420300  0.83371400  1
  P  P2  1  0.31403300  0.37579700  0.16628600  1
  P  P3  1  0.18596700  0.87579700  0.33371400  1
  P  P4  1  0.81403300  0.12420300  0.66628600  1
  P  P5  1  0.68596700  0.62420300  0.83371400  1
  P  P6  1  0.81403300  0.87579700  0.16628600  1
  P  P7  1  0.68596700  0.37579700  0.33371400  1
  Pd  Pd8  1  0.25000000  0.25000000  0.50000000  1
  Pd  Pd9  1  0.25000000  0.75000000  0.00000000  1
  Pd  Pd10  1  0.75000000  0.75000000  0.50000000  1
  Pd  Pd11  1  0.75000000  0.25000000  0.00000000  1
