# generated using pymatgen
data_Cs3B12H12Cl
_symmetry_space_group_name_H-M   'P 1'
_cell_length_a   10.51700057
_cell_length_b   10.51700057
_cell_length_c   11.99573879
_cell_angle_alpha   90.00000000
_cell_angle_beta   90.00000000
_cell_angle_gamma   120.00000000
_symmetry_Int_Tables_number   1
_chemical_formula_structural   Cs3B12H12Cl
_chemical_formula_sum   'Cs9 B36 H36 Cl3'
_cell_volume   1149.05661330
_cell_formula_units_Z   3
loop_
 _symmetry_equiv_pos_site_id
 _symmetry_equiv_pos_as_xyz
  1  'x, y, z'
loop_
 _atom_site_type_symbol
 _atom_site_label
 _atom_site_symmetry_multiplicity
 _atom_site_fract_x
 _atom_site_fract_y
 _atom_site_fract_z
 _atom_site_occupancy
  Cs  Cs0  1  0.16666667  0.33333333  0.33333333  1
  Cs  Cs1  1  0.66666667  0.83333333  0.33333333  1
  Cs  Cs2  1  0.16666667  0.83333333  0.33333333  1
  Cs  Cs3  1  0.83333333  0.66666667  0.66666667  1
  Cs  Cs4  1  0.33333333  0.16666667  0.66666667  1
  Cs  Cs5  1  0.83333333  0.16666667  0.66666667  1
  Cs  Cs6  1  0.50000000  0.00000000  0.00000000  1
  Cs  Cs7  1  0.00000000  0.50000000  0.00000000  1
  Cs  Cs8  1  0.50000000  0.50000000  0.00000000  1
  B  B9  1  0.48418333  0.24209167  0.35992367  1
  B  B10  1  0.51581667  0.75790833  0.64007633  1
  B  B11  1  0.24209167  0.48418333  0.64007633  1
  B  B12  1  0.24209167  0.75790833  0.64007633  1
  B  B13  1  0.94365300  0.05634700  0.11216300  1
  B  B14  1  0.94365300  0.88730600  0.11216300  1
  B  B15  1  0.11269400  0.05634700  0.11216300  1
  B  B16  1  0.88730600  0.94365300  0.88783700  1
  B  B17  1  0.05634700  0.94365300  0.88783700  1
  B  B18  1  0.05634700  0.11269400  0.88783700  1
  B  B19  1  0.75790833  0.24209167  0.35992367  1
  B  B20  1  0.75790833  0.51581667  0.35992367  1
  B  B21  1  0.15085000  0.57542500  0.69325700  1
  B  B22  1  0.18248333  0.09124167  0.97340967  1
  B  B23  1  0.90875833  0.81751667  0.97340967  1
  B  B24  1  0.90875833  0.09124167  0.97340967  1
  B  B25  1  0.61031967  0.38968033  0.44549633  1
  B  B26  1  0.61031967  0.22063933  0.44549633  1
  B  B27  1  0.77936067  0.38968033  0.44549633  1
  B  B28  1  0.55397267  0.27698633  0.22117033  1
  B  B29  1  0.72301367  0.27698633  0.22117033  1
  B  B30  1  0.72301367  0.44602733  0.22117033  1
  B  B31  1  0.42457500  0.57542500  0.69325700  1
  B  B32  1  0.42457500  0.84915000  0.69325700  1
  B  B33  1  0.81751667  0.90875833  0.02659033  1
  B  B34  1  0.84915000  0.42457500  0.30674300  1
  B  B35  1  0.57542500  0.15085000  0.30674300  1
  B  B36  1  0.57542500  0.42457500  0.30674300  1
  B  B37  1  0.27698633  0.72301367  0.77882967  1
  B  B38  1  0.27698633  0.55397267  0.77882967  1
  B  B39  1  0.44602733  0.72301367  0.77882967  1
  B  B40  1  0.22063933  0.61031967  0.55450367  1
  B  B41  1  0.38968033  0.61031967  0.55450367  1
  B  B42  1  0.38968033  0.77936067  0.55450367  1
  B  B43  1  0.09124167  0.90875833  0.02659033  1
  B  B44  1  0.09124167  0.18248333  0.02659033  1
  H  H45  1  0.17720933  0.82279067  0.62028867  1
  H  H46  1  0.17720933  0.35441867  0.62028867  1
  H  H47  1  0.64558133  0.82279067  0.62028867  1
  H  H48  1  0.35441867  0.17720933  0.37971133  1
  H  H49  1  0.09673800  0.90326200  0.80856900  1
  H  H50  1  0.09673800  0.19347600  0.80856900  1
  H  H51  1  0.80652400  0.90326200  0.80856900  1
  H  H52  1  0.19347600  0.09673800  0.19143100  1
  H  H53  1  0.90326200  0.09673800  0.19143100  1
  H  H54  1  0.90326200  0.80652400  0.19143100  1
  H  H55  1  0.82279067  0.17720933  0.37971133  1
  H  H56  1  0.82279067  0.64558133  0.37971133  1
  H  H57  1  0.84387600  0.15612400  0.95362200  1
  H  H58  1  0.84387600  0.68775200  0.95362200  1
  H  H59  1  0.31224800  0.15612400  0.95362200  1
  H  H60  1  0.02108533  0.51054267  0.71304467  1
  H  H61  1  0.76340467  0.23659533  0.14190233  1
  H  H62  1  0.76340467  0.52680933  0.14190233  1
  H  H63  1  0.47319067  0.23659533  0.14190233  1
  H  H64  1  0.86014267  0.43007133  0.52476433  1
  H  H65  1  0.56992867  0.43007133  0.52476433  1
  H  H66  1  0.56992867  0.13985733  0.52476433  1
  H  H67  1  0.48945733  0.51054267  0.71304467  1
  H  H68  1  0.48945733  0.97891467  0.71304467  1
  H  H69  1  0.51054267  0.48945733  0.28695533  1
  H  H70  1  0.51054267  0.02108533  0.28695533  1
  H  H71  1  0.97891467  0.48945733  0.28695533  1
  H  H72  1  0.68775200  0.84387600  0.04637800  1
  H  H73  1  0.43007133  0.56992867  0.47523567  1
  H  H74  1  0.43007133  0.86014267  0.47523567  1
  H  H75  1  0.13985733  0.56992867  0.47523567  1
  H  H76  1  0.52680933  0.76340467  0.85809767  1
  H  H77  1  0.23659533  0.76340467  0.85809767  1
  H  H78  1  0.23659533  0.47319067  0.85809767  1
  H  H79  1  0.15612400  0.84387600  0.04637800  1
  H  H80  1  0.15612400  0.31224800  0.04637800  1
  Cl  Cl81  1  0.00000000  0.00000000  0.50000000  1
  Cl  Cl82  1  0.66666667  0.33333333  0.83333333  1
  Cl  Cl83  1  0.33333333  0.66666667  0.16666667  1
