# generated using pymatgen
data_H2O
_symmetry_space_group_name_H-M   'P 1'
_cell_length_a   12.67218760
_cell_length_b   12.67218760
_cell_length_c   6.22785155
_cell_angle_alpha   90.00000000
_cell_angle_beta   90.00000000
_cell_angle_gamma   120.00000000
_symmetry_Int_Tables_number   1
_chemical_formula_structural   H2O
_chemical_formula_sum   'H72 O36'
_cell_volume   866.10804189
_cell_formula_units_Z   36
loop_
 _symmetry_equiv_pos_site_id
 _symmetry_equiv_pos_as_xyz
  1  'x, y, z'
loop_
 _atom_site_type_symbol
 _atom_site_label
 _atom_site_symmetry_multiplicity
 _atom_site_fract_x
 _atom_site_fract_y
 _atom_site_fract_z
 _atom_site_occupancy
  H  H0  1  0.90355200  0.26474700  0.89779600  1
  H  H1  1  0.06858633  0.30547167  0.56446267  1
  H  H2  1  0.02786167  0.42978133  0.23112933  1
  H  H3  1  0.76311467  0.06858633  0.43553733  1
  H  H4  1  0.59808033  0.02786167  0.76887067  1
  H  H5  1  0.63880500  0.90355200  0.10220400  1
  H  H6  1  0.76794900  0.22181500  0.81983500  1
  H  H7  1  0.44485167  0.87946733  0.15316833  1
  H  H8  1  0.78719933  0.89871767  0.48650167  1
  H  H9  1  0.89871767  0.11151833  0.51349833  1
  H  H10  1  0.22181500  0.45386600  0.18016500  1
  H  H11  1  0.87946733  0.43461567  0.84683167  1
  H  H12  1  0.81374800  0.28174900  0.32798200  1
  H  H13  1  0.13466767  0.51958533  0.66131533  1
  H  H14  1  0.05158433  0.19866567  0.99464867  1
  H  H15  1  0.85291867  0.05158433  0.00535133  1
  H  H16  1  0.53199900  0.81374800  0.67201800  1
  H  H17  1  0.61508233  0.13466767  0.33868467  1
  H  H18  1  0.88608400  0.33798700  0.54057800  1
  H  H19  1  0.11856967  0.44724933  0.87391133  1
  H  H20  1  0.99534633  0.21476367  0.20724467  1
  H  H21  1  0.78058267  0.99534633  0.79275533  1
  H  H22  1  0.54809700  0.88608400  0.45942200  1
  H  H23  1  0.67132033  0.11856967  0.12608867  1
  H  H24  1  0.57021867  0.59808033  0.23112933  1
  H  H25  1  0.73525300  0.63880500  0.89779600  1
  H  H26  1  0.69452833  0.76311467  0.56446267  1
  H  H27  1  0.42978133  0.40191967  0.76887067  1
  H  H28  1  0.26474700  0.36119500  0.10220400  1
  H  H29  1  0.30547167  0.23688533  0.43553733  1
  H  H30  1  0.43461567  0.55514833  0.15316833  1
  H  H31  1  0.11151833  0.21280067  0.48650167  1
  H  H32  1  0.45386600  0.23205100  0.81983500  1
  H  H33  1  0.56538433  0.44485167  0.84683167  1
  H  H34  1  0.88848167  0.78719933  0.51349833  1
  H  H35  1  0.54613400  0.76794900  0.18016500  1
  H  H36  1  0.48041467  0.61508233  0.66131533  1
  H  H37  1  0.80133433  0.85291867  0.99464867  1
  H  H38  1  0.71825100  0.53199900  0.32798200  1
  H  H39  1  0.51958533  0.38491767  0.33868467  1
  H  H40  1  0.19866567  0.14708133  0.00535133  1
  H  H41  1  0.28174900  0.46800100  0.67201800  1
  H  H42  1  0.55275067  0.67132033  0.87391133  1
  H  H43  1  0.78523633  0.78058267  0.20724467  1
  H  H44  1  0.66201300  0.54809700  0.54057800  1
  H  H45  1  0.44724933  0.32867967  0.12608867  1
  H  H46  1  0.21476367  0.21941733  0.79275533  1
  H  H47  1  0.33798700  0.45190300  0.45942200  1
  H  H48  1  0.23688533  0.93141367  0.56446267  1
  H  H49  1  0.40191967  0.97213833  0.23112933  1
  H  H50  1  0.36119500  0.09644800  0.89779600  1
  H  H51  1  0.09644800  0.73525300  0.10220400  1
  H  H52  1  0.93141367  0.69452833  0.43553733  1
  H  H53  1  0.97213833  0.57021867  0.76887067  1
  H  H54  1  0.10128233  0.88848167  0.48650167  1
  H  H55  1  0.77818500  0.54613400  0.81983500  1
  H  H56  1  0.12053267  0.56538433  0.15316833  1
  H  H57  1  0.23205100  0.77818500  0.18016500  1
  H  H58  1  0.55514833  0.12053267  0.84683167  1
  H  H59  1  0.21280067  0.10128233  0.51349833  1
  H  H60  1  0.14708133  0.94841567  0.99464867  1
  H  H61  1  0.46800100  0.18625200  0.32798200  1
  H  H62  1  0.38491767  0.86533233  0.66131533  1
  H  H63  1  0.18625200  0.71825100  0.67201800  1
  H  H64  1  0.86533233  0.48041467  0.33868467  1
  H  H65  1  0.94841567  0.80133433  0.00535133  1
  H  H66  1  0.21941733  0.00465367  0.20724467  1
  H  H67  1  0.45190300  0.11391600  0.54057800  1
  H  H68  1  0.32867967  0.88143033  0.87391133  1
  H  H69  1  0.11391600  0.66201300  0.45942200  1
  H  H70  1  0.88143033  0.55275067  0.12608867  1
  H  H71  1  0.00465367  0.78523633  0.79275533  1
  O  O72  1  0.10367333  0.47930467  0.14731467  1
  O  O73  1  0.85402867  0.29103533  0.81398133  1
  O  O74  1  0.04229800  0.22966000  0.48064800  1
  O  O75  1  0.56299333  0.85402867  0.18601867  1
  O  O76  1  0.81263800  0.04229800  0.51935200  1
  O  O77  1  0.62436867  0.10367333  0.85268533  1
  O  O78  1  0.69118633  0.13969467  0.28033967  1
  O  O79  1  0.52697200  0.88482500  0.61367300  1
  O  O80  1  0.78184167  0.97548033  0.94700633  1
  O  O81  1  0.97548033  0.19363867  0.05299367  1
  O  O82  1  0.13969467  0.44850833  0.71966033  1
  O  O83  1  0.88482500  0.35785300  0.38632700  1
  O  O84  1  0.77034000  0.81263800  0.48064800  1
  O  O85  1  0.52069533  0.62436867  0.14731467  1
  O  O86  1  0.70896467  0.56299333  0.81398133  1
  O  O87  1  0.22966000  0.18736200  0.51935200  1
  O  O88  1  0.47930467  0.37563133  0.85268533  1
  O  O89  1  0.29103533  0.43700667  0.18601867  1
  O  O90  1  0.35785300  0.47302800  0.61367300  1
  O  O91  1  0.19363867  0.21815833  0.94700633  1
  O  O92  1  0.44850833  0.30881367  0.28033967  1
  O  O93  1  0.64214700  0.52697200  0.38632700  1
  O  O94  1  0.80636133  0.78184167  0.05299367  1
  O  O95  1  0.55149167  0.69118633  0.71966033  1
  O  O96  1  0.43700667  0.14597133  0.81398133  1
  O  O97  1  0.18736200  0.95770200  0.48064800  1
  O  O98  1  0.37563133  0.89632667  0.14731467  1
  O  O99  1  0.89632667  0.52069533  0.85268533  1
  O  O100  1  0.14597133  0.70896467  0.18601867  1
  O  O101  1  0.95770200  0.77034000  0.51935200  1
  O  O102  1  0.02451967  0.80636133  0.94700633  1
  O  O103  1  0.86030533  0.55149167  0.28033967  1
  O  O104  1  0.11517500  0.64214700  0.61367300  1
  O  O105  1  0.30881367  0.86030533  0.71966033  1
  O  O106  1  0.47302800  0.11517500  0.38632700  1
  O  O107  1  0.21815833  0.02451967  0.05299367  1
