# generated using pymatgen
data_Y6UO12
_symmetry_space_group_name_H-M   'P 1'
_cell_length_a   10.03441012
_cell_length_b   10.03441012
_cell_length_c   9.46597349
_cell_angle_alpha   90.00000000
_cell_angle_beta   90.00000000
_cell_angle_gamma   120.00000000
_symmetry_Int_Tables_number   1
_chemical_formula_structural   Y6UO12
_chemical_formula_sum   'Y18 U3 O36'
_cell_volume   825.42878549
_cell_formula_units_Z   3
loop_
 _symmetry_equiv_pos_site_id
 _symmetry_equiv_pos_as_xyz
  1  'x, y, z'
loop_
 _atom_site_type_symbol
 _atom_site_label
 _atom_site_symmetry_multiplicity
 _atom_site_fract_x
 _atom_site_fract_y
 _atom_site_fract_z
 _atom_site_occupancy
  Y  Y0  1  0.03689200  0.25070600  0.64106300  1
  Y  Y1  1  0.74929400  0.78618600  0.64106300  1
  Y  Y2  1  0.21381400  0.96310800  0.64106300  1
  Y  Y3  1  0.96310800  0.74929400  0.35893700  1
  Y  Y4  1  0.25070600  0.21381400  0.35893700  1
  Y  Y5  1  0.78618600  0.03689200  0.35893700  1
  Y  Y6  1  0.70355867  0.58403933  0.97439633  1
  Y  Y7  1  0.41596067  0.11951933  0.97439633  1
  Y  Y8  1  0.88048067  0.29644133  0.97439633  1
  Y  Y9  1  0.62977467  0.08262733  0.69227033  1
  Y  Y10  1  0.91737267  0.54714733  0.69227033  1
  Y  Y11  1  0.45285267  0.37022533  0.69227033  1
  Y  Y12  1  0.37022533  0.91737267  0.30772967  1
  Y  Y13  1  0.08262733  0.45285267  0.30772967  1
  Y  Y14  1  0.54714733  0.62977467  0.30772967  1
  Y  Y15  1  0.29644133  0.41596067  0.02560367  1
  Y  Y16  1  0.58403933  0.88048067  0.02560367  1
  Y  Y17  1  0.11951933  0.70355867  0.02560367  1
  U  U18  1  0.00000000  0.00000000  0.00000000  1
  U  U19  1  0.66666667  0.33333333  0.33333333  1
  U  U20  1  0.33333333  0.66666667  0.66666667  1
  O  O21  1  0.02957467  0.22020333  0.39773533  1
  O  O22  1  0.77979667  0.80937133  0.39773533  1
  O  O23  1  0.19062867  0.97042533  0.39773533  1
  O  O24  1  0.97042533  0.77979667  0.60226467  1
  O  O25  1  0.22020333  0.19062867  0.60226467  1
  O  O26  1  0.80937133  0.02957467  0.60226467  1
  O  O27  1  0.49391967  0.63356633  0.55283033  1
  O  O28  1  0.86035333  0.49391967  0.44716967  1
  O  O29  1  0.63356633  0.13964667  0.44716967  1
  O  O30  1  0.50608033  0.36643367  0.44716967  1
  O  O31  1  0.13964667  0.50608033  0.55283033  1
  O  O32  1  0.36643367  0.86035333  0.55283033  1
  O  O33  1  0.69624133  0.55353667  0.73106867  1
  O  O34  1  0.44646333  0.14270467  0.73106867  1
  O  O35  1  0.85729533  0.30375867  0.73106867  1
  O  O36  1  0.63709200  0.11313000  0.93559800  1
  O  O37  1  0.88687000  0.52396200  0.93559800  1
  O  O38  1  0.47603800  0.36290800  0.93559800  1
  O  O39  1  0.16058633  0.96689967  0.88616367  1
  O  O40  1  0.52702000  0.82725300  0.78050300  1
  O  O41  1  0.30023300  0.47298000  0.78050300  1
  O  O42  1  0.17274700  0.69976700  0.78050300  1
  O  O43  1  0.80631333  0.83941367  0.88616367  1
  O  O44  1  0.03310033  0.19368667  0.88616367  1
  O  O45  1  0.36290800  0.88687000  0.06440200  1
  O  O46  1  0.11313000  0.47603800  0.06440200  1
  O  O47  1  0.52396200  0.63709200  0.06440200  1
  O  O48  1  0.30375867  0.44646333  0.26893133  1
  O  O49  1  0.55353667  0.85729533  0.26893133  1
  O  O50  1  0.14270467  0.69624133  0.26893133  1
  O  O51  1  0.82725300  0.30023300  0.21949700  1
  O  O52  1  0.19368667  0.16058633  0.11383633  1
  O  O53  1  0.96689967  0.80631333  0.11383633  1
  O  O54  1  0.83941367  0.03310033  0.11383633  1
  O  O55  1  0.47298000  0.17274700  0.21949700  1
  O  O56  1  0.69976700  0.52702000  0.21949700  1
