# generated using pymatgen
data_Li4PbO4
_symmetry_space_group_name_H-M   'P 1'
_cell_length_a   7.35769400
_cell_length_b   8.45922800
_cell_length_c   6.63155700
_cell_angle_alpha   90.00000000
_cell_angle_beta   90.00000000
_cell_angle_gamma   90.00000000
_symmetry_Int_Tables_number   1
_chemical_formula_structural   Li4PbO4
_chemical_formula_sum   'Li16 Pb4 O16'
_cell_volume   412.75083391
_cell_formula_units_Z   4
loop_
 _symmetry_equiv_pos_site_id
 _symmetry_equiv_pos_as_xyz
  1  'x, y, z'
loop_
 _atom_site_type_symbol
 _atom_site_label
 _atom_site_symmetry_multiplicity
 _atom_site_fract_x
 _atom_site_fract_y
 _atom_site_fract_z
 _atom_site_occupancy
  Li  Li0  1  0.50000000  0.34513100  0.50000000  1
  Li  Li1  1  0.50000000  0.65486900  0.00000000  1
  Li  Li2  1  0.74120300  0.85383800  0.25000000  1
  Li  Li3  1  0.25879700  0.14616200  0.75000000  1
  Li  Li4  1  0.74120300  0.14616200  0.25000000  1
  Li  Li5  1  0.25879700  0.85383800  0.75000000  1
  Li  Li6  1  0.50000000  0.34513100  0.00000000  1
  Li  Li7  1  0.50000000  0.65486900  0.50000000  1
  Li  Li8  1  0.00000000  0.84513100  0.50000000  1
  Li  Li9  1  0.00000000  0.15486900  0.00000000  1
  Li  Li10  1  0.24120300  0.35383800  0.25000000  1
  Li  Li11  1  0.75879700  0.64616200  0.75000000  1
  Li  Li12  1  0.24120300  0.64616200  0.25000000  1
  Li  Li13  1  0.75879700  0.35383800  0.75000000  1
  Li  Li14  1  0.00000000  0.84513100  0.00000000  1
  Li  Li15  1  0.00000000  0.15486900  0.50000000  1
  Pb  Pb16  1  0.64594900  0.00000000  0.75000000  1
  Pb  Pb17  1  0.35405100  0.00000000  0.25000000  1
  Pb  Pb18  1  0.14594900  0.50000000  0.75000000  1
  Pb  Pb19  1  0.85405100  0.50000000  0.25000000  1
  O  O20  1  0.48280000  0.77724300  0.25000000  1
  O  O21  1  0.51720000  0.22275700  0.75000000  1
  O  O22  1  0.79535900  0.00000000  0.02057300  1
  O  O23  1  0.20464100  0.00000000  0.52057300  1
  O  O24  1  0.79535900  0.00000000  0.47942700  1
  O  O25  1  0.20464100  0.00000000  0.97942700  1
  O  O26  1  0.48280000  0.22275700  0.25000000  1
  O  O27  1  0.51720000  0.77724300  0.75000000  1
  O  O28  1  0.98280000  0.27724300  0.25000000  1
  O  O29  1  0.01720000  0.72275700  0.75000000  1
  O  O30  1  0.29535900  0.50000000  0.02057300  1
  O  O31  1  0.70464100  0.50000000  0.52057300  1
  O  O32  1  0.29535900  0.50000000  0.47942700  1
  O  O33  1  0.70464100  0.50000000  0.97942700  1
  O  O34  1  0.98280000  0.72275700  0.25000000  1
  O  O35  1  0.01720000  0.27724300  0.75000000  1
