# generated using pymatgen
data_Ca3PI3
_symmetry_space_group_name_H-M   'P 1'
_cell_length_a   12.44256800
_cell_length_b   12.44256800
_cell_length_c   12.44256800
_cell_angle_alpha   90.00000000
_cell_angle_beta   90.00000000
_cell_angle_gamma   90.00000000
_symmetry_Int_Tables_number   1
_chemical_formula_structural   Ca3PI3
_chemical_formula_sum   'Ca24 P8 I24'
_cell_volume   1926.32725186
_cell_formula_units_Z   8
loop_
 _symmetry_equiv_pos_site_id
 _symmetry_equiv_pos_as_xyz
  1  'x, y, z'
loop_
 _atom_site_type_symbol
 _atom_site_label
 _atom_site_symmetry_multiplicity
 _atom_site_fract_x
 _atom_site_fract_y
 _atom_site_fract_z
 _atom_site_occupancy
  Ca  Ca0  1  0.87500000  0.39353100  0.35646900  1
  Ca  Ca1  1  0.39353100  0.35646900  0.87500000  1
  Ca  Ca2  1  0.12500000  0.10646900  0.35646900  1
  Ca  Ca3  1  0.89353100  0.14353100  0.12500000  1
  Ca  Ca4  1  0.35646900  0.12500000  0.10646900  1
  Ca  Ca5  1  0.14353100  0.12500000  0.89353100  1
  Ca  Ca6  1  0.60646900  0.14353100  0.87500000  1
  Ca  Ca7  1  0.10646900  0.35646900  0.12500000  1
  Ca  Ca8  1  0.87500000  0.60646900  0.14353100  1
  Ca  Ca9  1  0.12500000  0.89353100  0.14353100  1
  Ca  Ca10  1  0.14353100  0.87500000  0.60646900  1
  Ca  Ca11  1  0.35646900  0.87500000  0.39353100  1
  Ca  Ca12  1  0.37500000  0.89353100  0.85646900  1
  Ca  Ca13  1  0.89353100  0.85646900  0.37500000  1
  Ca  Ca14  1  0.62500000  0.60646900  0.85646900  1
  Ca  Ca15  1  0.39353100  0.64353100  0.62500000  1
  Ca  Ca16  1  0.85646900  0.62500000  0.60646900  1
  Ca  Ca17  1  0.64353100  0.62500000  0.39353100  1
  Ca  Ca18  1  0.10646900  0.64353100  0.37500000  1
  Ca  Ca19  1  0.60646900  0.85646900  0.62500000  1
  Ca  Ca20  1  0.37500000  0.10646900  0.64353100  1
  Ca  Ca21  1  0.62500000  0.39353100  0.64353100  1
  Ca  Ca22  1  0.64353100  0.37500000  0.10646900  1
  Ca  Ca23  1  0.85646900  0.37500000  0.89353100  1
  P  P24  1  0.87500000  0.37500000  0.12500000  1
  P  P25  1  0.12500000  0.87500000  0.37500000  1
  P  P26  1  0.37500000  0.12500000  0.87500000  1
  P  P27  1  0.12500000  0.12500000  0.12500000  1
  P  P28  1  0.37500000  0.87500000  0.62500000  1
  P  P29  1  0.62500000  0.37500000  0.87500000  1
  P  P30  1  0.87500000  0.62500000  0.37500000  1
  P  P31  1  0.62500000  0.62500000  0.62500000  1
  I  I32  1  0.37235850  0.37500000  0.62235850  1
  I  I33  1  0.37500000  0.62235850  0.37235850  1
  I  I34  1  0.62500000  0.87764150  0.37235850  1
  I  I35  1  0.62235850  0.37235850  0.37500000  1
  I  I36  1  0.37235850  0.62500000  0.87764150  1
  I  I37  1  0.12764150  0.62500000  0.12235850  1
  I  I38  1  0.37764150  0.12764150  0.37500000  1
  I  I39  1  0.87764150  0.37235850  0.62500000  1
  I  I40  1  0.37500000  0.37764150  0.12764150  1
  I  I41  1  0.62500000  0.12235850  0.12764150  1
  I  I42  1  0.12764150  0.37500000  0.37764150  1
  I  I43  1  0.12235850  0.12764150  0.62500000  1
  I  I44  1  0.87235850  0.87500000  0.12235850  1
  I  I45  1  0.87500000  0.12235850  0.87235850  1
  I  I46  1  0.12500000  0.37764150  0.87235850  1
  I  I47  1  0.12235850  0.87235850  0.87500000  1
  I  I48  1  0.87235850  0.12500000  0.37764150  1
  I  I49  1  0.62764150  0.12500000  0.62235850  1
  I  I50  1  0.87764150  0.62764150  0.87500000  1
  I  I51  1  0.37764150  0.87235850  0.12500000  1
  I  I52  1  0.87500000  0.87764150  0.62764150  1
  I  I53  1  0.12500000  0.62235850  0.62764150  1
  I  I54  1  0.62764150  0.87500000  0.87764150  1
  I  I55  1  0.62235850  0.62764150  0.12500000  1
