# generated using pymatgen
data_Th6CBr14
_symmetry_space_group_name_H-M   'P 1'
_cell_length_a   14.56139200
_cell_length_b   16.18177800
_cell_length_c   13.31753800
_cell_angle_alpha   90.00000000
_cell_angle_beta   90.00000000
_cell_angle_gamma   90.00000000
_symmetry_Int_Tables_number   1
_chemical_formula_structural   Th6CBr14
_chemical_formula_sum   'Th24 C4 Br56'
_cell_volume   3138.00099424
_cell_formula_units_Z   4
loop_
 _symmetry_equiv_pos_site_id
 _symmetry_equiv_pos_as_xyz
  1  'x, y, z'
loop_
 _atom_site_type_symbol
 _atom_site_label
 _atom_site_symmetry_multiplicity
 _atom_site_fract_x
 _atom_site_fract_y
 _atom_site_fract_z
 _atom_site_occupancy
  Th  Th0  1  0.64703800  0.00000000  0.39426700  1
  Th  Th1  1  0.85296200  0.00000000  0.89426700  1
  Th  Th2  1  0.14703800  0.00000000  0.10573300  1
  Th  Th3  1  0.35296200  0.00000000  0.60573300  1
  Th  Th4  1  0.57048500  0.88426600  0.61687800  1
  Th  Th5  1  0.42951500  0.61573400  0.11687800  1
  Th  Th6  1  0.57048500  0.61573400  0.88312200  1
  Th  Th7  1  0.42951500  0.88426600  0.38312200  1
  Th  Th8  1  0.42951500  0.11573400  0.38312200  1
  Th  Th9  1  0.57048500  0.38426600  0.88312200  1
  Th  Th10  1  0.42951500  0.38426600  0.11687800  1
  Th  Th11  1  0.57048500  0.11573400  0.61687800  1
  Th  Th12  1  0.14703800  0.50000000  0.39426700  1
  Th  Th13  1  0.35296200  0.50000000  0.89426700  1
  Th  Th14  1  0.64703800  0.50000000  0.10573300  1
  Th  Th15  1  0.85296200  0.50000000  0.60573300  1
  Th  Th16  1  0.07048500  0.38426600  0.61687800  1
  Th  Th17  1  0.92951500  0.11573400  0.11687800  1
  Th  Th18  1  0.07048500  0.11573400  0.88312200  1
  Th  Th19  1  0.92951500  0.38426600  0.38312200  1
  Th  Th20  1  0.92951500  0.61573400  0.38312200  1
  Th  Th21  1  0.07048500  0.88426600  0.88312200  1
  Th  Th22  1  0.92951500  0.88426600  0.11687800  1
  Th  Th23  1  0.07048500  0.61573400  0.61687800  1
  C  C24  1  0.50000000  0.00000000  0.50000000  1
  C  C25  1  0.00000000  0.00000000  0.00000000  1
  C  C26  1  0.00000000  0.50000000  0.50000000  1
  C  C27  1  0.50000000  0.50000000  0.00000000  1
  Br  Br28  1  0.65085300  0.75000000  0.75000000  1
  Br  Br29  1  0.34914700  0.75000000  0.25000000  1
  Br  Br30  1  0.34914700  0.25000000  0.25000000  1
  Br  Br31  1  0.65085300  0.25000000  0.75000000  1
  Br  Br32  1  0.25469200  0.12505800  0.49007700  1
  Br  Br33  1  0.24530800  0.87494200  0.99007700  1
  Br  Br34  1  0.75469200  0.87494200  0.00992300  1
  Br  Br35  1  0.74530800  0.12505800  0.50992300  1
  Br  Br36  1  0.74530800  0.87494200  0.50992300  1
  Br  Br37  1  0.75469200  0.12505800  0.00992300  1
  Br  Br38  1  0.41124650  0.12560250  0.74908700  1
  Br  Br39  1  0.58875350  0.37439750  0.24908700  1
  Br  Br40  1  0.41124650  0.37439750  0.75091300  1
  Br  Br41  1  0.58875350  0.12560250  0.25091300  1
  Br  Br42  1  0.58875350  0.87439750  0.25091300  1
  Br  Br43  1  0.41124650  0.62560250  0.75091300  1
  Br  Br44  1  0.58875350  0.62560250  0.24908700  1
  Br  Br45  1  0.41124650  0.87439750  0.74908700  1
  Br  Br46  1  0.15769500  0.00000000  0.73483000  1
  Br  Br47  1  0.34230500  0.00000000  0.23483000  1
  Br  Br48  1  0.65769500  0.00000000  0.76517000  1
  Br  Br49  1  0.84230500  0.00000000  0.26517000  1
  Br  Br50  1  0.50000000  0.25328500  0.50000000  1
  Br  Br51  1  0.50000000  0.24671500  0.00000000  1
  Br  Br52  1  0.50000000  0.74671500  0.50000000  1
  Br  Br53  1  0.50000000  0.75328500  0.00000000  1
  Br  Br54  1  0.25469200  0.87494200  0.49007700  1
  Br  Br55  1  0.24530800  0.12505800  0.99007700  1
  Br  Br56  1  0.15085300  0.25000000  0.75000000  1
  Br  Br57  1  0.84914700  0.25000000  0.25000000  1
  Br  Br58  1  0.84914700  0.75000000  0.25000000  1
  Br  Br59  1  0.15085300  0.75000000  0.75000000  1
  Br  Br60  1  0.75469200  0.62505800  0.49007700  1
  Br  Br61  1  0.74530800  0.37494200  0.99007700  1
  Br  Br62  1  0.25469200  0.37494200  0.00992300  1
  Br  Br63  1  0.24530800  0.62505800  0.50992300  1
  Br  Br64  1  0.24530800  0.37494200  0.50992300  1
  Br  Br65  1  0.25469200  0.62505800  0.00992300  1
  Br  Br66  1  0.91124650  0.62560250  0.74908700  1
  Br  Br67  1  0.08875350  0.87439750  0.24908700  1
  Br  Br68  1  0.91124650  0.87439750  0.75091300  1
  Br  Br69  1  0.08875350  0.62560250  0.25091300  1
  Br  Br70  1  0.08875350  0.37439750  0.25091300  1
  Br  Br71  1  0.91124650  0.12560250  0.75091300  1
  Br  Br72  1  0.08875350  0.12560250  0.24908700  1
  Br  Br73  1  0.91124650  0.37439750  0.74908700  1
  Br  Br74  1  0.65769500  0.50000000  0.73483000  1
  Br  Br75  1  0.84230500  0.50000000  0.23483000  1
  Br  Br76  1  0.15769500  0.50000000  0.76517000  1
  Br  Br77  1  0.34230500  0.50000000  0.26517000  1
  Br  Br78  1  0.00000000  0.75328500  0.50000000  1
  Br  Br79  1  0.00000000  0.74671500  0.00000000  1
  Br  Br80  1  0.00000000  0.24671500  0.50000000  1
  Br  Br81  1  0.00000000  0.25328500  0.00000000  1
  Br  Br82  1  0.75469200  0.37494200  0.49007700  1
  Br  Br83  1  0.74530800  0.62505800  0.99007700  1
