# generated using pymatgen
data_Sb6S2O15
_symmetry_space_group_name_H-M   'P 1'
_cell_length_a   12.41300200
_cell_length_b   19.16793200
_cell_length_c   5.96384700
_cell_angle_alpha   90.00000000
_cell_angle_beta   90.00000000
_cell_angle_gamma   90.00000000
_symmetry_Int_Tables_number   1
_chemical_formula_structural   Sb6S2O15
_chemical_formula_sum   'Sb24 S8 O60'
_cell_volume   1418.98752916
_cell_formula_units_Z   4
loop_
 _symmetry_equiv_pos_site_id
 _symmetry_equiv_pos_as_xyz
  1  'x, y, z'
loop_
 _atom_site_type_symbol
 _atom_site_label
 _atom_site_symmetry_multiplicity
 _atom_site_fract_x
 _atom_site_fract_y
 _atom_site_fract_z
 _atom_site_occupancy
  Sb  Sb0  1  0.41111600  0.70821400  0.12478400  1
  Sb  Sb1  1  0.58888400  0.29178600  0.12478400  1
  Sb  Sb2  1  0.58888400  0.70821400  0.62478400  1
  Sb  Sb3  1  0.41111600  0.29178600  0.62478400  1
  Sb  Sb4  1  0.30924750  0.06616850  0.60342200  1
  Sb  Sb5  1  0.69075250  0.93383150  0.60342200  1
  Sb  Sb6  1  0.69075250  0.06616850  0.10342200  1
  Sb  Sb7  1  0.30924750  0.93383150  0.10342200  1
  Sb  Sb8  1  0.89204800  0.06533900  0.49018800  1
  Sb  Sb9  1  0.10795200  0.93466100  0.49018800  1
  Sb  Sb10  1  0.10795200  0.06533900  0.99018800  1
  Sb  Sb11  1  0.89204800  0.93466100  0.99018800  1
  Sb  Sb12  1  0.91111600  0.20821400  0.12478400  1
  Sb  Sb13  1  0.08888400  0.79178600  0.12478400  1
  Sb  Sb14  1  0.08888400  0.20821400  0.62478400  1
  Sb  Sb15  1  0.91111600  0.79178600  0.62478400  1
  Sb  Sb16  1  0.80924750  0.56616850  0.60342200  1
  Sb  Sb17  1  0.19075250  0.43383150  0.60342200  1
  Sb  Sb18  1  0.19075250  0.56616850  0.10342200  1
  Sb  Sb19  1  0.80924750  0.43383150  0.10342200  1
  Sb  Sb20  1  0.39204800  0.56533900  0.49018800  1
  Sb  Sb21  1  0.60795200  0.43466100  0.49018800  1
  Sb  Sb22  1  0.60795200  0.56533900  0.99018800  1
  Sb  Sb23  1  0.39204800  0.43466100  0.99018800  1
  S  S24  1  0.63013550  0.15467650  0.66266700  1
  S  S25  1  0.36986450  0.84532350  0.66266700  1
  S  S26  1  0.36986450  0.15467650  0.16266700  1
  S  S27  1  0.63013550  0.84532350  0.16266700  1
  S  S28  1  0.13013550  0.65467650  0.66266700  1
  S  S29  1  0.86986450  0.34532350  0.66266700  1
  S  S30  1  0.86986450  0.65467650  0.16266700  1
  S  S31  1  0.13013550  0.34532350  0.16266700  1
  O  O32  1  0.57250450  0.08780850  0.67084300  1
  O  O33  1  0.42749550  0.91219150  0.67084300  1
  O  O34  1  0.42749550  0.08780850  0.17084300  1
  O  O35  1  0.57250450  0.91219150  0.17084300  1
  O  O36  1  0.55752050  0.21538450  0.71774800  1
  O  O37  1  0.44247950  0.78461550  0.71774800  1
  O  O38  1  0.44247950  0.21538450  0.21774800  1
  O  O39  1  0.55752050  0.78461550  0.21774800  1
  O  O40  1  0.71578700  0.15404600  0.84982900  1
  O  O41  1  0.28421300  0.84595400  0.84982900  1
  O  O42  1  0.28421300  0.15404600  0.34982900  1
  O  O43  1  0.71578700  0.84595400  0.34982900  1
  O  O44  1  0.00000000  0.00000000  0.84136800  1
  O  O45  1  0.00000000  0.00000000  0.34136800  1
  O  O46  1  0.76000250  0.99889650  0.87959800  1
  O  O47  1  0.23999750  0.00110350  0.87959800  1
  O  O48  1  0.23999750  0.99889650  0.37959800  1
  O  O49  1  0.76000250  0.00110350  0.37959800  1
  O  O50  1  0.15399400  0.89679800  0.17118800  1
  O  O51  1  0.84600600  0.10320200  0.17118800  1
  O  O52  1  0.84600600  0.89679800  0.67118800  1
  O  O53  1  0.15399400  0.10320200  0.67118800  1
  O  O54  1  0.49199200  0.33587500  0.89251600  1
  O  O55  1  0.50800800  0.66412500  0.89251600  1
  O  O56  1  0.50800800  0.33587500  0.39251600  1
  O  O57  1  0.49199200  0.66412500  0.39251600  1
  O  O58  1  0.68543400  0.16694100  0.44670400  1
  O  O59  1  0.31456600  0.83305900  0.44670400  1
  O  O60  1  0.31456600  0.16694100  0.94670400  1
  O  O61  1  0.68543400  0.83305900  0.94670400  1
  O  O62  1  0.07250450  0.58780850  0.67084300  1
  O  O63  1  0.92749550  0.41219150  0.67084300  1
  O  O64  1  0.92749550  0.58780850  0.17084300  1
  O  O65  1  0.07250450  0.41219150  0.17084300  1
  O  O66  1  0.05752050  0.71538450  0.71774800  1
  O  O67  1  0.94247950  0.28461550  0.71774800  1
  O  O68  1  0.94247950  0.71538450  0.21774800  1
  O  O69  1  0.05752050  0.28461550  0.21774800  1
  O  O70  1  0.21578700  0.65404600  0.84982900  1
  O  O71  1  0.78421300  0.34595400  0.84982900  1
  O  O72  1  0.78421300  0.65404600  0.34982900  1
  O  O73  1  0.21578700  0.34595400  0.34982900  1
  O  O74  1  0.50000000  0.50000000  0.84136800  1
  O  O75  1  0.50000000  0.50000000  0.34136800  1
  O  O76  1  0.26000250  0.49889650  0.87959800  1
  O  O77  1  0.73999750  0.50110350  0.87959800  1
  O  O78  1  0.73999750  0.49889650  0.37959800  1
  O  O79  1  0.26000250  0.50110350  0.37959800  1
  O  O80  1  0.65399400  0.39679800  0.17118800  1
  O  O81  1  0.34600600  0.60320200  0.17118800  1
  O  O82  1  0.34600600  0.39679800  0.67118800  1
  O  O83  1  0.65399400  0.60320200  0.67118800  1
  O  O84  1  0.99199200  0.83587500  0.89251600  1
  O  O85  1  0.00800800  0.16412500  0.89251600  1
  O  O86  1  0.00800800  0.83587500  0.39251600  1
  O  O87  1  0.99199200  0.16412500  0.39251600  1
  O  O88  1  0.18543400  0.66694100  0.44670400  1
  O  O89  1  0.81456600  0.33305900  0.44670400  1
  O  O90  1  0.81456600  0.66694100  0.94670400  1
  O  O91  1  0.18543400  0.33305900  0.94670400  1
