# generated using pymatgen
data_Mg2FeH6
_symmetry_space_group_name_H-M   'P 1'
_cell_length_a   6.41771200
_cell_length_b   6.41771200
_cell_length_c   6.41771200
_cell_angle_alpha   90.00000000
_cell_angle_beta   90.00000000
_cell_angle_gamma   90.00000000
_symmetry_Int_Tables_number   1
_chemical_formula_structural   Mg2FeH6
_chemical_formula_sum   'Mg8 Fe4 H24'
_cell_volume   264.32647944
_cell_formula_units_Z   4
loop_
 _symmetry_equiv_pos_site_id
 _symmetry_equiv_pos_as_xyz
  1  'x, y, z'
loop_
 _atom_site_type_symbol
 _atom_site_label
 _atom_site_symmetry_multiplicity
 _atom_site_fract_x
 _atom_site_fract_y
 _atom_site_fract_z
 _atom_site_occupancy
  Mg  Mg0  1  0.25000000  0.25000000  0.75000000  1
  Mg  Mg1  1  0.25000000  0.75000000  0.75000000  1
  Mg  Mg2  1  0.25000000  0.75000000  0.25000000  1
  Mg  Mg3  1  0.25000000  0.25000000  0.25000000  1
  Mg  Mg4  1  0.75000000  0.25000000  0.25000000  1
  Mg  Mg5  1  0.75000000  0.75000000  0.25000000  1
  Mg  Mg6  1  0.75000000  0.75000000  0.75000000  1
  Mg  Mg7  1  0.75000000  0.25000000  0.75000000  1
  Fe  Fe8  1  0.00000000  0.00000000  0.00000000  1
  Fe  Fe9  1  0.00000000  0.50000000  0.50000000  1
  Fe  Fe10  1  0.50000000  0.00000000  0.50000000  1
  Fe  Fe11  1  0.50000000  0.50000000  0.00000000  1
  H  H12  1  0.00000000  0.00000000  0.75692300  1
  H  H13  1  0.50000000  0.74307700  0.00000000  1
  H  H14  1  0.24307700  0.00000000  0.00000000  1
  H  H15  1  0.50000000  0.00000000  0.74307700  1
  H  H16  1  0.50000000  0.25692300  0.00000000  1
  H  H17  1  0.75692300  0.00000000  0.00000000  1
  H  H18  1  0.00000000  0.50000000  0.25692300  1
  H  H19  1  0.50000000  0.24307700  0.50000000  1
  H  H20  1  0.24307700  0.50000000  0.50000000  1
  H  H21  1  0.50000000  0.50000000  0.24307700  1
  H  H22  1  0.50000000  0.75692300  0.50000000  1
  H  H23  1  0.75692300  0.50000000  0.50000000  1
  H  H24  1  0.50000000  0.00000000  0.25692300  1
  H  H25  1  0.00000000  0.74307700  0.50000000  1
  H  H26  1  0.74307700  0.00000000  0.50000000  1
  H  H27  1  0.00000000  0.00000000  0.24307700  1
  H  H28  1  0.00000000  0.25692300  0.50000000  1
  H  H29  1  0.25692300  0.00000000  0.50000000  1
  H  H30  1  0.50000000  0.50000000  0.75692300  1
  H  H31  1  0.00000000  0.24307700  0.00000000  1
  H  H32  1  0.74307700  0.50000000  0.00000000  1
  H  H33  1  0.00000000  0.50000000  0.74307700  1
  H  H34  1  0.00000000  0.75692300  0.00000000  1
  H  H35  1  0.25692300  0.50000000  0.00000000  1
