# generated using pymatgen
data_La3ReO8
_symmetry_space_group_name_H-M   'P 1'
_cell_length_a   8.70616200
_cell_length_b   12.51353600
_cell_length_c   6.31916900
_cell_angle_alpha   90.00000000
_cell_angle_beta   90.00000000
_cell_angle_gamma   90.00000000
_symmetry_Int_Tables_number   1
_chemical_formula_structural   La3ReO8
_chemical_formula_sum   'La12 Re4 O32'
_cell_volume   688.44105538
_cell_formula_units_Z   4
loop_
 _symmetry_equiv_pos_site_id
 _symmetry_equiv_pos_as_xyz
  1  'x, y, z'
loop_
 _atom_site_type_symbol
 _atom_site_label
 _atom_site_symmetry_multiplicity
 _atom_site_fract_x
 _atom_site_fract_y
 _atom_site_fract_z
 _atom_site_occupancy
  La  La0  1  0.22383000  0.11530200  0.25000000  1
  La  La1  1  0.77617000  0.88469800  0.75000000  1
  La  La2  1  0.50000000  0.90010500  0.25000000  1
  La  La3  1  0.50000000  0.09989500  0.75000000  1
  La  La4  1  0.22383000  0.88469800  0.75000000  1
  La  La5  1  0.77617000  0.11530200  0.25000000  1
  La  La6  1  0.72383000  0.61530200  0.25000000  1
  La  La7  1  0.27617000  0.38469800  0.75000000  1
  La  La8  1  0.00000000  0.40010500  0.25000000  1
  La  La9  1  0.00000000  0.59989500  0.75000000  1
  La  La10  1  0.72383000  0.38469800  0.75000000  1
  La  La11  1  0.27617000  0.61530200  0.25000000  1
  Re  Re12  1  0.50000000  0.32080600  0.25000000  1
  Re  Re13  1  0.50000000  0.67919400  0.75000000  1
  Re  Re14  1  0.00000000  0.82080600  0.25000000  1
  Re  Re15  1  0.00000000  0.17919400  0.75000000  1
  O  O16  1  0.50000000  0.53510500  0.75000000  1
  O  O17  1  0.50000000  0.46489500  0.25000000  1
  O  O18  1  0.22253450  0.19111250  0.75000000  1
  O  O19  1  0.77746550  0.80888750  0.25000000  1
  O  O20  1  0.50000000  0.83942700  0.75000000  1
  O  O21  1  0.50000000  0.16057300  0.25000000  1
  O  O22  1  0.77746550  0.19111250  0.75000000  1
  O  O23  1  0.22253450  0.80888750  0.25000000  1
  O  O24  1  0.66615500  0.00000000  0.00000000  1
  O  O25  1  0.33384500  0.00000000  0.50000000  1
  O  O26  1  0.33384500  0.00000000  0.00000000  1
  O  O27  1  0.66615500  0.00000000  0.50000000  1
  O  O28  1  0.50000000  0.69628000  0.04825100  1
  O  O29  1  0.50000000  0.30372000  0.54825100  1
  O  O30  1  0.50000000  0.30372000  0.95174900  1
  O  O31  1  0.50000000  0.69628000  0.45174900  1
  O  O32  1  0.00000000  0.03510500  0.75000000  1
  O  O33  1  0.00000000  0.96489500  0.25000000  1
  O  O34  1  0.72253450  0.69111250  0.75000000  1
  O  O35  1  0.27746550  0.30888750  0.25000000  1
  O  O36  1  0.00000000  0.33942700  0.75000000  1
  O  O37  1  0.00000000  0.66057300  0.25000000  1
  O  O38  1  0.27746550  0.69111250  0.75000000  1
  O  O39  1  0.72253450  0.30888750  0.25000000  1
  O  O40  1  0.16615500  0.50000000  0.00000000  1
  O  O41  1  0.83384500  0.50000000  0.50000000  1
  O  O42  1  0.83384500  0.50000000  0.00000000  1
  O  O43  1  0.16615500  0.50000000  0.50000000  1
  O  O44  1  0.00000000  0.19628000  0.04825100  1
  O  O45  1  0.00000000  0.80372000  0.54825100  1
  O  O46  1  0.00000000  0.80372000  0.95174900  1
  O  O47  1  0.00000000  0.19628000  0.45174900  1
