# generated using pymatgen
data_SrH2I2O7
_symmetry_space_group_name_H-M   'P 1'
_cell_length_a   13.14063600
_cell_length_b   7.88877600
_cell_length_c   8.99054962
_cell_angle_alpha   90.00000000
_cell_angle_beta   130.99540441
_cell_angle_gamma   90.00000000
_symmetry_Int_Tables_number   1
_chemical_formula_structural   SrH2I2O7
_chemical_formula_sum   'Sr4 H8 I8 O28'
_cell_volume   703.43244091
_cell_formula_units_Z   4
loop_
 _symmetry_equiv_pos_site_id
 _symmetry_equiv_pos_as_xyz
  1  'x, y, z'
loop_
 _atom_site_type_symbol
 _atom_site_label
 _atom_site_symmetry_multiplicity
 _atom_site_fract_x
 _atom_site_fract_y
 _atom_site_fract_z
 _atom_site_occupancy
  Sr  Sr0  1  0.00000000  0.83999000  0.25000000  1
  Sr  Sr1  1  0.50000000  0.66001000  0.75000000  1
  Sr  Sr2  1  0.50000000  0.33999000  0.25000000  1
  Sr  Sr3  1  0.00000000  0.16001000  0.75000000  1
  H  H4  1  0.47258400  0.26631100  0.80790600  1
  H  H5  1  0.02741600  0.76631100  0.69209400  1
  H  H6  1  0.02741600  0.23368900  0.19209400  1
  H  H7  1  0.47258400  0.73368900  0.30790600  1
  H  H8  1  0.97258400  0.76631100  0.80790600  1
  H  H9  1  0.52741600  0.26631100  0.69209400  1
  H  H10  1  0.52741600  0.73368900  0.19209400  1
  H  H11  1  0.97258400  0.23368900  0.30790600  1
  I  I12  1  0.68606550  0.97222050  0.67256000  1
  I  I13  1  0.31393450  0.97222050  0.82744000  1
  I  I14  1  0.18606550  0.52777950  0.17256000  1
  I  I15  1  0.81393450  0.52777950  0.32744000  1
  I  I16  1  0.18606550  0.47222050  0.67256000  1
  I  I17  1  0.81393450  0.47222050  0.82744000  1
  I  I18  1  0.68606550  0.02777950  0.17256000  1
  I  I19  1  0.31393450  0.02777950  0.32744000  1
  O  O20  1  0.00000000  0.83863100  0.75000000  1
  O  O21  1  0.50000000  0.66136900  0.25000000  1
  O  O22  1  0.32097350  0.91497650  0.63677900  1
  O  O23  1  0.67902650  0.91497650  0.86322100  1
  O  O24  1  0.17902650  0.58502350  0.36322100  1
  O  O25  1  0.82097350  0.58502350  0.13677900  1
  O  O26  1  0.42185200  0.16443000  0.92967200  1
  O  O27  1  0.07814800  0.66443000  0.57032800  1
  O  O28  1  0.07814800  0.33557000  0.07032800  1
  O  O29  1  0.42185200  0.83557000  0.42967200  1
  O  O30  1  0.14859400  0.07100800  0.67199500  1
  O  O31  1  0.35140600  0.57100800  0.82800500  1
  O  O32  1  0.35140600  0.42899200  0.32800500  1
  O  O33  1  0.14859400  0.92899200  0.17199500  1
  O  O34  1  0.50000000  0.33863100  0.75000000  1
  O  O35  1  0.00000000  0.16136900  0.25000000  1
  O  O36  1  0.82097350  0.41497650  0.63677900  1
  O  O37  1  0.17902650  0.41497650  0.86322100  1
  O  O38  1  0.67902650  0.08502350  0.36322100  1
  O  O39  1  0.32097350  0.08502350  0.13677900  1
  O  O40  1  0.92185200  0.66443000  0.92967200  1
  O  O41  1  0.57814800  0.16443000  0.57032800  1
  O  O42  1  0.57814800  0.83557000  0.07032800  1
  O  O43  1  0.92185200  0.33557000  0.42967200  1
  O  O44  1  0.64859400  0.57100800  0.67199500  1
  O  O45  1  0.85140600  0.07100800  0.82800500  1
  O  O46  1  0.85140600  0.92899200  0.32800500  1
  O  O47  1  0.64859400  0.42899200  0.17199500  1
