# generated using pymatgen
data_Hg4As2Br3
_symmetry_space_group_name_H-M   'P 1'
_cell_length_a   13.02890000
_cell_length_b   13.02890000
_cell_length_c   13.02890000
_cell_angle_alpha   90.00000000
_cell_angle_beta   90.00000000
_cell_angle_gamma   90.00000000
_symmetry_Int_Tables_number   1
_chemical_formula_structural   Hg4As2Br3
_chemical_formula_sum   'Hg32 As16 Br24'
_cell_volume   2211.68489733
_cell_formula_units_Z   8
loop_
 _symmetry_equiv_pos_site_id
 _symmetry_equiv_pos_as_xyz
  1  'x, y, z'
loop_
 _atom_site_type_symbol
 _atom_site_label
 _atom_site_symmetry_multiplicity
 _atom_site_fract_x
 _atom_site_fract_y
 _atom_site_fract_z
 _atom_site_occupancy
  Hg  Hg0  1  0.03264000  0.99876700  0.25473300  1
  Hg  Hg1  1  0.25473300  0.03264000  0.99876700  1
  Hg  Hg2  1  0.99876700  0.25473300  0.03264000  1
  Hg  Hg3  1  0.50123300  0.74526700  0.53264000  1
  Hg  Hg4  1  0.75473300  0.46736000  0.00123300  1
  Hg  Hg5  1  0.00123300  0.75473300  0.46736000  1
  Hg  Hg6  1  0.24526700  0.96736000  0.49876700  1
  Hg  Hg7  1  0.74526700  0.53264000  0.50123300  1
  Hg  Hg8  1  0.49876700  0.24526700  0.96736000  1
  Hg  Hg9  1  0.53264000  0.50123300  0.74526700  1
  Hg  Hg10  1  0.96736000  0.49876700  0.24526700  1
  Hg  Hg11  1  0.46736000  0.00123300  0.75473300  1
  Hg  Hg12  1  0.96736000  0.00123300  0.74526700  1
  Hg  Hg13  1  0.74526700  0.96736000  0.00123300  1
  Hg  Hg14  1  0.00123300  0.74526700  0.96736000  1
  Hg  Hg15  1  0.49876700  0.25473300  0.46736000  1
  Hg  Hg16  1  0.24526700  0.53264000  0.99876700  1
  Hg  Hg17  1  0.99876700  0.24526700  0.53264000  1
  Hg  Hg18  1  0.75473300  0.03264000  0.50123300  1
  Hg  Hg19  1  0.25473300  0.46736000  0.49876700  1
  Hg  Hg20  1  0.50123300  0.75473300  0.03264000  1
  Hg  Hg21  1  0.46736000  0.49876700  0.25473300  1
  Hg  Hg22  1  0.03264000  0.50123300  0.75473300  1
  Hg  Hg23  1  0.53264000  0.99876700  0.24526700  1
  Hg  Hg24  1  0.22285800  0.22285800  0.22285800  1
  Hg  Hg25  1  0.27714200  0.77714200  0.72285800  1
  Hg  Hg26  1  0.72285800  0.27714200  0.77714200  1
  Hg  Hg27  1  0.77714200  0.72285800  0.27714200  1
  Hg  Hg28  1  0.77714200  0.77714200  0.77714200  1
  Hg  Hg29  1  0.72285800  0.22285800  0.27714200  1
  Hg  Hg30  1  0.27714200  0.72285800  0.22285800  1
  Hg  Hg31  1  0.22285800  0.27714200  0.72285800  1
  As  As32  1  0.44584300  0.44584300  0.44584300  1
  As  As33  1  0.05415700  0.55415700  0.94584300  1
  As  As34  1  0.94584300  0.05415700  0.55415700  1
  As  As35  1  0.55415700  0.94584300  0.05415700  1
  As  As36  1  0.55415700  0.55415700  0.55415700  1
  As  As37  1  0.94584300  0.44584300  0.05415700  1
  As  As38  1  0.05415700  0.94584300  0.44584300  1
  As  As39  1  0.44584300  0.05415700  0.94584300  1
  As  As40  1  0.10883400  0.10883400  0.10883400  1
  As  As41  1  0.39116600  0.89116600  0.60883400  1
  As  As42  1  0.60883400  0.39116600  0.89116600  1
  As  As43  1  0.89116600  0.60883400  0.39116600  1
  As  As44  1  0.89116600  0.89116600  0.89116600  1
  As  As45  1  0.60883400  0.10883400  0.39116600  1
  As  As46  1  0.39116600  0.60883400  0.10883400  1
  As  As47  1  0.10883400  0.39116600  0.60883400  1
  Br  Br48  1  0.18593100  0.43328800  0.26621200  1
  Br  Br49  1  0.26621200  0.18593100  0.43328800  1
  Br  Br50  1  0.43328800  0.26621200  0.18593100  1
  Br  Br51  1  0.06671200  0.73378800  0.68593100  1
  Br  Br52  1  0.76621200  0.31406900  0.56671200  1
  Br  Br53  1  0.56671200  0.76621200  0.31406900  1
  Br  Br54  1  0.23378800  0.81406900  0.93328800  1
  Br  Br55  1  0.73378800  0.68593100  0.06671200  1
  Br  Br56  1  0.93328800  0.23378800  0.81406900  1
  Br  Br57  1  0.68593100  0.06671200  0.73378800  1
  Br  Br58  1  0.81406900  0.93328800  0.23378800  1
  Br  Br59  1  0.31406900  0.56671200  0.76621200  1
  Br  Br60  1  0.81406900  0.56671200  0.73378800  1
  Br  Br61  1  0.73378800  0.81406900  0.56671200  1
  Br  Br62  1  0.56671200  0.73378800  0.81406900  1
  Br  Br63  1  0.93328800  0.26621200  0.31406900  1
  Br  Br64  1  0.23378800  0.68593100  0.43328800  1
  Br  Br65  1  0.43328800  0.23378800  0.68593100  1
  Br  Br66  1  0.76621200  0.18593100  0.06671200  1
  Br  Br67  1  0.26621200  0.31406900  0.93328800  1
  Br  Br68  1  0.06671200  0.76621200  0.18593100  1
  Br  Br69  1  0.31406900  0.93328800  0.26621200  1
  Br  Br70  1  0.18593100  0.06671200  0.76621200  1
  Br  Br71  1  0.68593100  0.43328800  0.23378800  1
