# generated using pymatgen
data_K4BeAs2
_symmetry_space_group_name_H-M   'P 1'
_cell_length_a   5.71957398
_cell_length_b   5.71957398
_cell_length_c   26.08316766
_cell_angle_alpha   90.00000000
_cell_angle_beta   90.00000000
_cell_angle_gamma   120.00000000
_symmetry_Int_Tables_number   1
_chemical_formula_structural   K4BeAs2
_chemical_formula_sum   'K12 Be3 As6'
_cell_volume   738.95557095
_cell_formula_units_Z   3
loop_
 _symmetry_equiv_pos_site_id
 _symmetry_equiv_pos_as_xyz
  1  'x, y, z'
loop_
 _atom_site_type_symbol
 _atom_site_label
 _atom_site_symmetry_multiplicity
 _atom_site_fract_x
 _atom_site_fract_y
 _atom_site_fract_z
 _atom_site_occupancy
  K  K0  1  0.33333333  0.66666667  0.29054467  1
  K  K1  1  0.33333333  0.66666667  0.04278867  1
  K  K2  1  0.00000000  0.00000000  0.20854300  1
  K  K3  1  0.66666667  0.33333333  0.12479033  1
  K  K4  1  0.00000000  0.00000000  0.62387800  1
  K  K5  1  0.00000000  0.00000000  0.37612200  1
  K  K6  1  0.66666667  0.33333333  0.54187633  1
  K  K7  1  0.33333333  0.66666667  0.45812367  1
  K  K8  1  0.66666667  0.33333333  0.95721133  1
  K  K9  1  0.66666667  0.33333333  0.70945533  1
  K  K10  1  0.33333333  0.66666667  0.87520967  1
  K  K11  1  0.00000000  0.00000000  0.79145700  1
  Be  Be12  1  0.00000000  0.00000000  0.00000000  1
  Be  Be13  1  0.66666667  0.33333333  0.33333333  1
  Be  Be14  1  0.33333333  0.66666667  0.66666667  1
  As  As15  1  0.66666667  0.33333333  0.25320033  1
  As  As16  1  0.00000000  0.00000000  0.08013300  1
  As  As17  1  0.33333333  0.66666667  0.58653367  1
  As  As18  1  0.66666667  0.33333333  0.41346633  1
  As  As19  1  0.00000000  0.00000000  0.91986700  1
  As  As20  1  0.33333333  0.66666667  0.74679967  1
