# generated using pymatgen
data_MgTe(H4O3)3
_symmetry_space_group_name_H-M   'P 1'
_cell_length_a   9.04748965
_cell_length_b   9.04748965
_cell_length_c   9.03441185
_cell_angle_alpha   90.00000000
_cell_angle_beta   90.00000000
_cell_angle_gamma   120.00000000
_symmetry_Int_Tables_number   1
_chemical_formula_structural   MgTe(H4O3)3
_chemical_formula_sum   'Mg3 Te3 H36 O27'
_cell_volume   640.45217812
_cell_formula_units_Z   3
loop_
 _symmetry_equiv_pos_site_id
 _symmetry_equiv_pos_as_xyz
  1  'x, y, z'
loop_
 _atom_site_type_symbol
 _atom_site_label
 _atom_site_symmetry_multiplicity
 _atom_site_fract_x
 _atom_site_fract_y
 _atom_site_fract_z
 _atom_site_occupancy
  Mg  Mg0  1  0.00000000  0.00000000  0.99346700  1
  Mg  Mg1  1  0.66666667  0.33333333  0.32680033  1
  Mg  Mg2  1  0.33333333  0.66666667  0.66013367  1
  Te  Te3  1  0.00000000  0.00000000  0.46173400  1
  Te  Te4  1  0.66666667  0.33333333  0.79506733  1
  Te  Te5  1  0.33333333  0.66666667  0.12840067  1
  H  H6  1  0.64318367  0.71610533  0.54246433  1
  H  H7  1  0.07292167  0.35681633  0.54246433  1
  H  H8  1  0.28389467  0.92707833  0.54246433  1
  H  H9  1  0.18510233  0.02199067  0.74202367  1
  H  H10  1  0.83688833  0.81489767  0.74202367  1
  H  H11  1  0.97800933  0.16311167  0.74202367  1
  H  H12  1  0.37345433  0.23634267  0.49914367  1
  H  H13  1  0.86288833  0.62654567  0.49914367  1
  H  H14  1  0.76365733  0.13711167  0.49914367  1
  H  H15  1  0.47669700  0.44296200  0.48575900  1
  H  H16  1  0.96626500  0.52330300  0.48575900  1
  H  H17  1  0.55703800  0.03373500  0.48575900  1
  H  H18  1  0.30985033  0.04943867  0.87579767  1
  H  H19  1  0.73958833  0.69014967  0.87579767  1
  H  H20  1  0.95056133  0.26041167  0.87579767  1
  H  H21  1  0.85176900  0.35532400  0.07535700  1
  H  H22  1  0.50355500  0.14823100  0.07535700  1
  H  H23  1  0.64467600  0.49644500  0.07535700  1
  H  H24  1  0.04012100  0.56967600  0.83247700  1
  H  H25  1  0.52955500  0.95987900  0.83247700  1
  H  H26  1  0.43032400  0.47044500  0.83247700  1
  H  H27  1  0.14336367  0.77629533  0.81909233  1
  H  H28  1  0.63293167  0.85663633  0.81909233  1
  H  H29  1  0.22370467  0.36706833  0.81909233  1
  H  H30  1  0.97651700  0.38277200  0.20913100  1
  H  H31  1  0.40625500  0.02348300  0.20913100  1
  H  H32  1  0.61722800  0.59374500  0.20913100  1
  H  H33  1  0.51843567  0.68865733  0.40869033  1
  H  H34  1  0.17022167  0.48156433  0.40869033  1
  H  H35  1  0.31134267  0.82977833  0.40869033  1
  H  H36  1  0.70678767  0.90300933  0.16581033  1
  H  H37  1  0.19622167  0.29321233  0.16581033  1
  H  H38  1  0.09699067  0.80377833  0.16581033  1
  H  H39  1  0.81003033  0.10962867  0.15242567  1
  H  H40  1  0.29959833  0.18996967  0.15242567  1
  H  H41  1  0.89037133  0.70040167  0.15242567  1
  O  O42  1  0.51797267  0.65805333  0.51688433  1
  O  O43  1  0.14008067  0.48202733  0.51688433  1
  O  O44  1  0.34194667  0.85991933  0.51688433  1
  O  O45  1  0.47878033  0.33785967  0.45834067  1
  O  O46  1  0.85907933  0.52121967  0.45834067  1
  O  O47  1  0.66214033  0.14092067  0.45834067  1
  O  O48  1  0.20521567  0.05848633  0.56428433  1
  O  O49  1  0.85327067  0.79478433  0.56428433  1
  O  O50  1  0.94151367  0.14672933  0.56428433  1
  O  O51  1  0.18463933  0.99138667  0.85021767  1
  O  O52  1  0.80674733  0.81536067  0.85021767  1
  O  O53  1  0.00861333  0.19325267  0.85021767  1
  O  O54  1  0.14544700  0.67119300  0.79167400  1
  O  O55  1  0.52574600  0.85455300  0.79167400  1
  O  O56  1  0.32880700  0.47425400  0.79167400  1
  O  O57  1  0.87188233  0.39181967  0.89761767  1
  O  O58  1  0.51993733  0.12811767  0.89761767  1
  O  O59  1  0.60818033  0.48006267  0.89761767  1
  O  O60  1  0.85130600  0.32472000  0.18355100  1
  O  O61  1  0.47341400  0.14869400  0.18355100  1
  O  O62  1  0.67528000  0.52658600  0.18355100  1
  O  O63  1  0.81211367  0.00452633  0.12500733  1
  O  O64  1  0.19241267  0.18788633  0.12500733  1
  O  O65  1  0.99547367  0.80758733  0.12500733  1
  O  O66  1  0.53854900  0.72515300  0.23095100  1
  O  O67  1  0.18660400  0.46145100  0.23095100  1
  O  O68  1  0.27484700  0.81339600  0.23095100  1
