# generated using pymatgen
data_K2Bi8Se13
_symmetry_space_group_name_H-M   'P 1'
_cell_length_a   27.69877800
_cell_length_b   4.21852800
_cell_length_c   12.38874518
_cell_angle_alpha   90.00000000
_cell_angle_beta   92.36014679
_cell_angle_gamma   90.00000000
_symmetry_Int_Tables_number   1
_chemical_formula_structural   K2Bi8Se13
_chemical_formula_sum   'K4 Bi16 Se26'
_cell_volume   1446.37299352
_cell_formula_units_Z   2
loop_
 _symmetry_equiv_pos_site_id
 _symmetry_equiv_pos_as_xyz
  1  'x, y, z'
loop_
 _atom_site_type_symbol
 _atom_site_label
 _atom_site_symmetry_multiplicity
 _atom_site_fract_x
 _atom_site_fract_y
 _atom_site_fract_z
 _atom_site_occupancy
  K  K0  1  0.58904200  0.00000000  0.05262400  1
  K  K1  1  0.91095800  0.50000000  0.94737600  1
  K  K2  1  0.08904200  0.50000000  0.05262400  1
  K  K3  1  0.41095800  0.00000000  0.94737600  1
  Bi  Bi4  1  0.55952600  0.00000000  0.38201500  1
  Bi  Bi5  1  0.78337100  0.50000000  0.12999900  1
  Bi  Bi6  1  0.71662900  0.00000000  0.87000100  1
  Bi  Bi7  1  0.57639100  0.50000000  0.70385700  1
  Bi  Bi8  1  0.92360900  0.00000000  0.29614300  1
  Bi  Bi9  1  0.68976100  0.50000000  0.45438200  1
  Bi  Bi10  1  0.81023900  0.00000000  0.54561800  1
  Bi  Bi11  1  0.94047400  0.50000000  0.61798500  1
  Bi  Bi12  1  0.05952600  0.50000000  0.38201500  1
  Bi  Bi13  1  0.28337100  0.00000000  0.12999900  1
  Bi  Bi14  1  0.21662900  0.50000000  0.87000100  1
  Bi  Bi15  1  0.07639100  0.00000000  0.70385700  1
  Bi  Bi16  1  0.42360900  0.50000000  0.29614300  1
  Bi  Bi17  1  0.18976100  0.00000000  0.45438200  1
  Bi  Bi18  1  0.31023900  0.50000000  0.54561800  1
  Bi  Bi19  1  0.44047400  0.00000000  0.61798500  1
  Se  Se20  1  0.86051500  0.00000000  0.11775300  1
  Se  Se21  1  0.00000000  0.00000000  0.50000000  1
  Se  Se22  1  0.79138900  0.50000000  0.91062000  1
  Se  Se23  1  0.70861100  0.00000000  0.08938000  1
  Se  Se24  1  0.63948500  0.50000000  0.88224700  1
  Se  Se25  1  0.63026700  0.00000000  0.56931100  1
  Se  Se26  1  0.75669600  0.50000000  0.64180000  1
  Se  Se27  1  0.74330400  0.00000000  0.35820000  1
  Se  Se28  1  0.86973300  0.50000000  0.43068900  1
  Se  Se29  1  0.52018400  0.00000000  0.79780400  1
  Se  Se30  1  0.97981600  0.50000000  0.20219600  1
  Se  Se31  1  0.61084800  0.50000000  0.27577600  1
  Se  Se32  1  0.88915200  0.00000000  0.72422400  1
  Se  Se33  1  0.36051500  0.50000000  0.11775300  1
  Se  Se34  1  0.50000000  0.50000000  0.50000000  1
  Se  Se35  1  0.29138900  0.00000000  0.91062000  1
  Se  Se36  1  0.20861100  0.50000000  0.08938000  1
  Se  Se37  1  0.13948500  0.00000000  0.88224700  1
  Se  Se38  1  0.13026700  0.50000000  0.56931100  1
  Se  Se39  1  0.25669600  0.00000000  0.64180000  1
  Se  Se40  1  0.24330400  0.50000000  0.35820000  1
  Se  Se41  1  0.36973300  0.00000000  0.43068900  1
  Se  Se42  1  0.02018400  0.50000000  0.79780400  1
  Se  Se43  1  0.47981600  0.00000000  0.20219600  1
  Se  Se44  1  0.11084800  0.00000000  0.27577600  1
  Se  Se45  1  0.38915200  0.50000000  0.72422400  1
