# generated using pymatgen
data_SrZnCl4
_symmetry_space_group_name_H-M   'P 1'
_cell_length_a   6.56320400
_cell_length_b   6.56320400
_cell_length_c   14.62819200
_cell_angle_alpha   90.00000000
_cell_angle_beta   90.00000000
_cell_angle_gamma   90.00000000
_symmetry_Int_Tables_number   1
_chemical_formula_structural   SrZnCl4
_chemical_formula_sum   'Sr4 Zn4 Cl16'
_cell_volume   630.11883112
_cell_formula_units_Z   4
loop_
 _symmetry_equiv_pos_site_id
 _symmetry_equiv_pos_as_xyz
  1  'x, y, z'
loop_
 _atom_site_type_symbol
 _atom_site_label
 _atom_site_symmetry_multiplicity
 _atom_site_fract_x
 _atom_site_fract_y
 _atom_site_fract_z
 _atom_site_occupancy
  Sr  Sr0  1  0.00000000  0.00000000  0.00000000  1
  Sr  Sr1  1  0.00000000  0.50000000  0.25000000  1
  Sr  Sr2  1  0.50000000  0.50000000  0.50000000  1
  Sr  Sr3  1  0.50000000  0.00000000  0.75000000  1
  Zn  Zn4  1  0.50000000  0.00000000  0.25000000  1
  Zn  Zn5  1  0.50000000  0.50000000  0.00000000  1
  Zn  Zn6  1  0.00000000  0.50000000  0.75000000  1
  Zn  Zn7  1  0.00000000  0.00000000  0.50000000  1
  Cl  Cl8  1  0.15611450  0.25958250  0.41907150  1
  Cl  Cl9  1  0.24041750  0.15611450  0.16907150  1
  Cl  Cl10  1  0.34388550  0.74041750  0.33092850  1
  Cl  Cl11  1  0.24041750  0.65611450  0.08092850  1
  Cl  Cl12  1  0.75958250  0.84388550  0.16907150  1
  Cl  Cl13  1  0.65611450  0.25958250  0.33092850  1
  Cl  Cl14  1  0.75958250  0.34388550  0.08092850  1
  Cl  Cl15  1  0.84388550  0.74041750  0.41907150  1
  Cl  Cl16  1  0.65611450  0.75958250  0.91907150  1
  Cl  Cl17  1  0.74041750  0.65611450  0.66907150  1
  Cl  Cl18  1  0.84388550  0.24041750  0.83092850  1
  Cl  Cl19  1  0.74041750  0.15611450  0.58092850  1
  Cl  Cl20  1  0.25958250  0.34388550  0.66907150  1
  Cl  Cl21  1  0.15611450  0.75958250  0.83092850  1
  Cl  Cl22  1  0.25958250  0.84388550  0.58092850  1
  Cl  Cl23  1  0.34388550  0.24041750  0.91907150  1
