# generated using pymatgen
data_MgAlH4O2F5
_symmetry_space_group_name_H-M   'P 1'
_cell_length_a   6.62702000
_cell_length_b   7.19673200
_cell_length_c   10.41513400
_cell_angle_alpha   90.00000000
_cell_angle_beta   90.00000000
_cell_angle_gamma   90.00000000
_symmetry_Int_Tables_number   1
_chemical_formula_structural   MgAlH4O2F5
_chemical_formula_sum   'Mg4 Al4 H16 O8 F20'
_cell_volume   496.72780790
_cell_formula_units_Z   4
loop_
 _symmetry_equiv_pos_site_id
 _symmetry_equiv_pos_as_xyz
  1  'x, y, z'
loop_
 _atom_site_type_symbol
 _atom_site_label
 _atom_site_symmetry_multiplicity
 _atom_site_fract_x
 _atom_site_fract_y
 _atom_site_fract_z
 _atom_site_occupancy
  Mg  Mg0  1  0.50000000  0.50000000  0.00000000  1
  Mg  Mg1  1  0.00000000  0.00000000  0.00000000  1
  Mg  Mg2  1  0.00000000  0.00000000  0.50000000  1
  Mg  Mg3  1  0.50000000  0.50000000  0.50000000  1
  Al  Al4  1  0.75000000  0.25000000  0.25000000  1
  Al  Al5  1  0.25000000  0.25000000  0.75000000  1
  Al  Al6  1  0.25000000  0.75000000  0.75000000  1
  Al  Al7  1  0.75000000  0.75000000  0.25000000  1
  H  H8  1  0.62452950  0.10812750  0.90364350  1
  H  H9  1  0.12452950  0.39187250  0.09635650  1
  H  H10  1  0.37547050  0.10812750  0.09635650  1
  H  H11  1  0.87547050  0.39187250  0.90364350  1
  H  H12  1  0.62452950  0.89187250  0.90364350  1
  H  H13  1  0.87547050  0.60812750  0.90364350  1
  H  H14  1  0.37547050  0.89187250  0.09635650  1
  H  H15  1  0.12452950  0.60812750  0.09635650  1
  H  H16  1  0.12452950  0.60812750  0.40364350  1
  H  H17  1  0.62452950  0.89187250  0.59635650  1
  H  H18  1  0.87547050  0.60812750  0.59635650  1
  H  H19  1  0.37547050  0.89187250  0.40364350  1
  H  H20  1  0.12452950  0.39187250  0.40364350  1
  H  H21  1  0.37547050  0.10812750  0.40364350  1
  H  H22  1  0.87547050  0.39187250  0.59635650  1
  H  H23  1  0.62452950  0.10812750  0.59635650  1
  O  O24  1  0.20948200  0.50000000  0.07686800  1
  O  O25  1  0.79051800  0.50000000  0.57686800  1
  O  O26  1  0.20948200  0.50000000  0.42313200  1
  O  O27  1  0.79051800  0.50000000  0.92313200  1
  O  O28  1  0.70948200  0.00000000  0.57686800  1
  O  O29  1  0.29051800  0.00000000  0.07686800  1
  O  O30  1  0.70948200  0.00000000  0.92313200  1
  O  O31  1  0.29051800  0.00000000  0.42313200  1
  F  F32  1  0.06214800  0.20623400  0.87395300  1
  F  F33  1  0.82091800  0.50000000  0.25000000  1
  F  F34  1  0.17908200  0.50000000  0.75000000  1
  F  F35  1  0.43785200  0.29376600  0.87395300  1
  F  F36  1  0.56214800  0.70623400  0.12604700  1
  F  F37  1  0.56214800  0.29376600  0.12604700  1
  F  F38  1  0.43785200  0.70623400  0.87395300  1
  F  F39  1  0.93785200  0.79376600  0.12604700  1
  F  F40  1  0.93785200  0.20623400  0.12604700  1
  F  F41  1  0.06214800  0.79376600  0.87395300  1
  F  F42  1  0.56214800  0.70623400  0.37395300  1
  F  F43  1  0.32091800  0.00000000  0.75000000  1
  F  F44  1  0.67908200  0.00000000  0.25000000  1
  F  F45  1  0.93785200  0.79376600  0.37395300  1
  F  F46  1  0.06214800  0.20623400  0.62604700  1
  F  F47  1  0.06214800  0.79376600  0.62604700  1
  F  F48  1  0.93785200  0.20623400  0.37395300  1
  F  F49  1  0.43785200  0.29376600  0.62604700  1
  F  F50  1  0.43785200  0.70623400  0.62604700  1
  F  F51  1  0.56214800  0.29376600  0.37395300  1
