# generated using pymatgen
data_BiPbClO2
_symmetry_space_group_name_H-M   'P 1'
_cell_length_a   5.71564600
_cell_length_b   12.68359800
_cell_length_c   5.65433100
_cell_angle_alpha   90.00000000
_cell_angle_beta   90.00000000
_cell_angle_gamma   90.00000000
_symmetry_Int_Tables_number   1
_chemical_formula_structural   BiPbClO2
_chemical_formula_sum   'Bi4 Pb4 Cl4 O8'
_cell_volume   409.91047804
_cell_formula_units_Z   4
loop_
 _symmetry_equiv_pos_site_id
 _symmetry_equiv_pos_as_xyz
  1  'x, y, z'
loop_
 _atom_site_type_symbol
 _atom_site_label
 _atom_site_symmetry_multiplicity
 _atom_site_fract_x
 _atom_site_fract_y
 _atom_site_fract_z
 _atom_site_occupancy
  Bi  Bi0  1  0.00000000  0.08757100  0.25000000  1
  Bi  Bi1  1  0.50000000  0.41242900  0.75000000  1
  Bi  Bi2  1  0.50000000  0.58757100  0.25000000  1
  Bi  Bi3  1  0.00000000  0.91242900  0.75000000  1
  Pb  Pb4  1  0.00000000  0.39322900  0.25000000  1
  Pb  Pb5  1  0.50000000  0.10677100  0.75000000  1
  Pb  Pb6  1  0.50000000  0.89322900  0.25000000  1
  Pb  Pb7  1  0.00000000  0.60677100  0.75000000  1
  Cl  Cl8  1  0.50000000  0.24606600  0.25000000  1
  Cl  Cl9  1  0.00000000  0.25393400  0.75000000  1
  Cl  Cl10  1  0.00000000  0.74606600  0.25000000  1
  Cl  Cl11  1  0.50000000  0.75393400  0.75000000  1
  O  O12  1  0.23772700  0.00000000  0.00000000  1
  O  O13  1  0.76227300  0.00000000  0.50000000  1
  O  O14  1  0.76227300  0.00000000  0.00000000  1
  O  O15  1  0.23772700  0.00000000  0.50000000  1
  O  O16  1  0.73772700  0.50000000  0.00000000  1
  O  O17  1  0.26227300  0.50000000  0.50000000  1
  O  O18  1  0.26227300  0.50000000  0.00000000  1
  O  O19  1  0.73772700  0.50000000  0.50000000  1
