# generated using pymatgen
data_Rb3B12H12Cl
_symmetry_space_group_name_H-M   'P 1'
_cell_length_a   10.22647848
_cell_length_b   10.22647848
_cell_length_c   11.60208336
_cell_angle_alpha   90.00000000
_cell_angle_beta   90.00000000
_cell_angle_gamma   120.00000000
_symmetry_Int_Tables_number   1
_chemical_formula_structural   Rb3B12H12Cl
_chemical_formula_sum   'Rb9 B36 H36 Cl3'
_cell_volume   1050.79701482
_cell_formula_units_Z   3
loop_
 _symmetry_equiv_pos_site_id
 _symmetry_equiv_pos_as_xyz
  1  'x, y, z'
loop_
 _atom_site_type_symbol
 _atom_site_label
 _atom_site_symmetry_multiplicity
 _atom_site_fract_x
 _atom_site_fract_y
 _atom_site_fract_z
 _atom_site_occupancy
  Rb  Rb0  1  0.16666667  0.33333333  0.33333333  1
  Rb  Rb1  1  0.66666667  0.83333333  0.33333333  1
  Rb  Rb2  1  0.16666667  0.83333333  0.33333333  1
  Rb  Rb3  1  0.83333333  0.66666667  0.66666667  1
  Rb  Rb4  1  0.33333333  0.16666667  0.66666667  1
  Rb  Rb5  1  0.83333333  0.16666667  0.66666667  1
  Rb  Rb6  1  0.50000000  0.00000000  0.00000000  1
  Rb  Rb7  1  0.00000000  0.50000000  0.00000000  1
  Rb  Rb8  1  0.50000000  0.50000000  0.00000000  1
  B  B9  1  0.47906600  0.23953300  0.36086000  1
  B  B10  1  0.52093400  0.76046700  0.63914000  1
  B  B11  1  0.23953300  0.47906600  0.63914000  1
  B  B12  1  0.23953300  0.76046700  0.63914000  1
  B  B13  1  0.94214067  0.05785933  0.11583233  1
  B  B14  1  0.94214067  0.88428133  0.11583233  1
  B  B15  1  0.11571867  0.05785933  0.11583233  1
  B  B16  1  0.88428133  0.94214067  0.88416767  1
  B  B17  1  0.05785933  0.94214067  0.88416767  1
  B  B18  1  0.05785933  0.11571867  0.88416767  1
  B  B19  1  0.76046700  0.23953300  0.36086000  1
  B  B20  1  0.76046700  0.52093400  0.36086000  1
  B  B21  1  0.14573267  0.57286633  0.69419333  1
  B  B22  1  0.18760067  0.09380033  0.97247333  1
  B  B23  1  0.90619967  0.81239933  0.97247333  1
  B  B24  1  0.90619967  0.09380033  0.97247333  1
  B  B25  1  0.60880733  0.39119267  0.44916567  1
  B  B26  1  0.60880733  0.21761467  0.44916567  1
  B  B27  1  0.78238533  0.39119267  0.44916567  1
  B  B28  1  0.55094800  0.27547400  0.21750100  1
  B  B29  1  0.72452600  0.27547400  0.21750100  1
  B  B30  1  0.72452600  0.44905200  0.21750100  1
  B  B31  1  0.42713367  0.57286633  0.69419333  1
  B  B32  1  0.42713367  0.85426733  0.69419333  1
  B  B33  1  0.81239933  0.90619967  0.02752667  1
  B  B34  1  0.85426733  0.42713367  0.30580667  1
  B  B35  1  0.57286633  0.14573267  0.30580667  1
  B  B36  1  0.57286633  0.42713367  0.30580667  1
  B  B37  1  0.27547400  0.72452600  0.78249900  1
  B  B38  1  0.27547400  0.55094800  0.78249900  1
  B  B39  1  0.44905200  0.72452600  0.78249900  1
  B  B40  1  0.21761467  0.60880733  0.55083433  1
  B  B41  1  0.39119267  0.60880733  0.55083433  1
  B  B42  1  0.39119267  0.78238533  0.55083433  1
  B  B43  1  0.09380033  0.90619967  0.02752667  1
  B  B44  1  0.09380033  0.18760067  0.02752667  1
  H  H45  1  0.17289367  0.82710633  0.61806033  1
  H  H46  1  0.17289367  0.34578733  0.61806033  1
  H  H47  1  0.65421267  0.82710633  0.61806033  1
  H  H48  1  0.34578733  0.17289367  0.38193967  1
  H  H49  1  0.09884600  0.90115400  0.80183000  1
  H  H50  1  0.09884600  0.19769200  0.80183000  1
  H  H51  1  0.80230800  0.90115400  0.80183000  1
  H  H52  1  0.19769200  0.09884600  0.19817000  1
  H  H53  1  0.90115400  0.09884600  0.19817000  1
  H  H54  1  0.90115400  0.80230800  0.19817000  1
  H  H55  1  0.82710633  0.17289367  0.38193967  1
  H  H56  1  0.82710633  0.65421267  0.38193967  1
  H  H57  1  0.83956033  0.16043967  0.95139367  1
  H  H58  1  0.83956033  0.67912067  0.95139367  1
  H  H59  1  0.32087933  0.16043967  0.95139367  1
  H  H60  1  0.01245400  0.50622700  0.71527300  1
  H  H61  1  0.76551267  0.23448733  0.13516333  1
  H  H62  1  0.76551267  0.53102533  0.13516333  1
  H  H63  1  0.46897467  0.23448733  0.13516333  1
  H  H64  1  0.86435867  0.43217933  0.53150333  1
  H  H65  1  0.56782067  0.43217933  0.53150333  1
  H  H66  1  0.56782067  0.13564133  0.53150333  1
  H  H67  1  0.49377300  0.50622700  0.71527300  1
  H  H68  1  0.49377300  0.98754600  0.71527300  1
  H  H69  1  0.50622700  0.49377300  0.28472700  1
  H  H70  1  0.50622700  0.01245400  0.28472700  1
  H  H71  1  0.98754600  0.49377300  0.28472700  1
  H  H72  1  0.67912067  0.83956033  0.04860633  1
  H  H73  1  0.43217933  0.56782067  0.46849667  1
  H  H74  1  0.43217933  0.86435867  0.46849667  1
  H  H75  1  0.13564133  0.56782067  0.46849667  1
  H  H76  1  0.53102533  0.76551267  0.86483667  1
  H  H77  1  0.23448733  0.76551267  0.86483667  1
  H  H78  1  0.23448733  0.46897467  0.86483667  1
  H  H79  1  0.16043967  0.83956033  0.04860633  1
  H  H80  1  0.16043967  0.32087933  0.04860633  1
  Cl  Cl81  1  0.00000000  0.00000000  0.50000000  1
  Cl  Cl82  1  0.66666667  0.33333333  0.83333333  1
  Cl  Cl83  1  0.33333333  0.66666667  0.16666667  1
