# generated using pymatgen
data_Ca5P8
_symmetry_space_group_name_H-M   'P 1'
_cell_length_a   6.93211000
_cell_length_b   11.92042600
_cell_length_c   7.51671781
_cell_angle_alpha   90.00000000
_cell_angle_beta   108.17757920
_cell_angle_gamma   90.00000000
_symmetry_Int_Tables_number   1
_chemical_formula_structural   Ca5P8
_chemical_formula_sum   'Ca10 P16'
_cell_volume   590.13603614
_cell_formula_units_Z   2
loop_
 _symmetry_equiv_pos_site_id
 _symmetry_equiv_pos_as_xyz
  1  'x, y, z'
loop_
 _atom_site_type_symbol
 _atom_site_label
 _atom_site_symmetry_multiplicity
 _atom_site_fract_x
 _atom_site_fract_y
 _atom_site_fract_z
 _atom_site_occupancy
  Ca  Ca0  1  0.50000000  0.00000000  0.50000000  1
  Ca  Ca1  1  0.50000000  0.67526100  0.50000000  1
  Ca  Ca2  1  0.50000000  0.32473900  0.50000000  1
  Ca  Ca3  1  0.50000000  0.16535000  0.00000000  1
  Ca  Ca4  1  0.50000000  0.83465000  0.00000000  1
  Ca  Ca5  1  0.00000000  0.50000000  0.50000000  1
  Ca  Ca6  1  0.00000000  0.17526100  0.50000000  1
  Ca  Ca7  1  0.00000000  0.82473900  0.50000000  1
  Ca  Ca8  1  0.00000000  0.66535000  0.00000000  1
  Ca  Ca9  1  0.00000000  0.33465000  0.00000000  1
  P  P10  1  0.22226800  0.00000000  0.75802500  1
  P  P11  1  0.77773200  0.00000000  0.24197500  1
  P  P12  1  0.76829050  0.15288250  0.76024700  1
  P  P13  1  0.23170950  0.15288250  0.23975300  1
  P  P14  1  0.23170950  0.84711750  0.23975300  1
  P  P15  1  0.76829050  0.84711750  0.76024700  1
  P  P16  1  0.94758100  0.00000000  0.83652400  1
  P  P17  1  0.05241900  0.00000000  0.16347600  1
  P  P18  1  0.72226800  0.50000000  0.75802500  1
  P  P19  1  0.27773200  0.50000000  0.24197500  1
  P  P20  1  0.26829050  0.65288250  0.76024700  1
  P  P21  1  0.73170950  0.65288250  0.23975300  1
  P  P22  1  0.73170950  0.34711750  0.23975300  1
  P  P23  1  0.26829050  0.34711750  0.76024700  1
  P  P24  1  0.44758100  0.50000000  0.83652400  1
  P  P25  1  0.55241900  0.50000000  0.16347600  1
