# generated using pymatgen
data_CaAl2Si2(H2O5)2
_symmetry_space_group_name_H-M   'P 1'
_cell_length_a   5.94890000
_cell_length_b   8.84400300
_cell_length_c   13.17551700
_cell_angle_alpha   90.00000000
_cell_angle_beta   90.00000000
_cell_angle_gamma   90.00000000
_symmetry_Int_Tables_number   1
_chemical_formula_structural   CaAl2Si2(H2O5)2
_chemical_formula_sum   'Ca4 Al8 Si8 H16 O40'
_cell_volume   693.19147891
_cell_formula_units_Z   4
loop_
 _symmetry_equiv_pos_site_id
 _symmetry_equiv_pos_as_xyz
  1  'x, y, z'
loop_
 _atom_site_type_symbol
 _atom_site_label
 _atom_site_symmetry_multiplicity
 _atom_site_fract_x
 _atom_site_fract_y
 _atom_site_fract_z
 _atom_site_occupancy
  Ca  Ca0  1  0.23412500  0.58275400  0.24805700  1
  Ca  Ca1  1  0.73412500  0.41724600  0.75194300  1
  Ca  Ca2  1  0.23412500  0.91724600  0.74805700  1
  Ca  Ca3  1  0.73412500  0.08275400  0.25194300  1
  Al  Al4  1  0.49741700  0.00052800  0.50092000  1
  Al  Al5  1  0.00390600  0.99632800  0.00193800  1
  Al  Al6  1  0.50390600  0.00367200  0.99806200  1
  Al  Al7  1  0.00390600  0.50367200  0.50193800  1
  Al  Al8  1  0.50390600  0.49632800  0.49806200  1
  Al  Al9  1  0.99741700  0.99947200  0.49908000  1
  Al  Al10  1  0.99741700  0.50052800  0.99908000  1
  Al  Al11  1  0.49741700  0.49947200  0.00092000  1
  Si  Si12  1  0.25108300  0.22575300  0.13431900  1
  Si  Si13  1  0.24752400  0.27147400  0.86869000  1
  Si  Si14  1  0.74752400  0.72852600  0.13131000  1
  Si  Si15  1  0.74752400  0.77147400  0.63131000  1
  Si  Si16  1  0.24752400  0.22852600  0.36869000  1
  Si  Si17  1  0.75108300  0.72575300  0.36568100  1
  Si  Si18  1  0.75108300  0.77424700  0.86568100  1
  Si  Si19  1  0.25108300  0.27424700  0.63431900  1
  H  H20  1  0.27568900  0.83391500  0.10579900  1
  H  H21  1  0.77568900  0.16608500  0.89420100  1
  H  H22  1  0.27568900  0.66608500  0.60579900  1
  H  H23  1  0.77568900  0.33391500  0.39420100  1
  H  H24  1  0.24951600  0.78149600  0.47646000  1
  H  H25  1  0.74951600  0.21850400  0.52354000  1
  H  H26  1  0.24951600  0.71850400  0.97646000  1
  H  H27  1  0.74951600  0.28149600  0.02354000  1
  H  H28  1  0.17837700  0.94449900  0.22339700  1
  H  H29  1  0.67837700  0.05550100  0.77660300  1
  H  H30  1  0.17837700  0.55550100  0.72339700  1
  H  H31  1  0.67837700  0.44449900  0.27660300  1
  H  H32  1  0.25595800  0.87721900  0.33041700  1
  H  H33  1  0.75595800  0.12278100  0.66958300  1
  H  H34  1  0.25595800  0.62278100  0.83041700  1
  H  H35  1  0.75595800  0.37721900  0.16958300  1
  O  O36  1  0.53223400  0.61305000  0.37437100  1
  O  O37  1  0.76110900  0.13984300  0.74619800  1
  O  O38  1  0.26008500  0.87910900  0.03866400  1
  O  O39  1  0.76110900  0.36015700  0.24619800  1
  O  O40  1  0.75662800  0.79911700  0.24874900  1
  O  O41  1  0.25662800  0.20088300  0.75125100  1
  O  O42  1  0.75662800  0.70088300  0.74874900  1
  O  O43  1  0.25662800  0.29911700  0.25125100  1
  O  O44  1  0.03223400  0.11305000  0.12562900  1
  O  O45  1  0.53223400  0.88695000  0.87437100  1
  O  O46  1  0.03223400  0.38695000  0.62562900  1
  O  O47  1  0.26110900  0.86015700  0.25380200  1
  O  O48  1  0.02023600  0.12650800  0.38179900  1
  O  O49  1  0.52023600  0.87349200  0.61820100  1
  O  O50  1  0.02023600  0.37349200  0.88179900  1
  O  O51  1  0.52023600  0.62650800  0.11820100  1
  O  O52  1  0.47511300  0.37109400  0.88569300  1
  O  O53  1  0.97511300  0.62890600  0.11430700  1
  O  O54  1  0.47511300  0.12890600  0.38569300  1
  O  O55  1  0.97511300  0.87109400  0.61430700  1
  O  O56  1  0.47800000  0.37451400  0.61687600  1
  O  O57  1  0.97800000  0.62548600  0.38312400  1
  O  O58  1  0.47800000  0.12548600  0.11687600  1
  O  O59  1  0.97800000  0.87451400  0.88312400  1
  O  O60  1  0.74766700  0.88618500  0.06260900  1
  O  O61  1  0.24766700  0.11381500  0.93739100  1
  O  O62  1  0.74766700  0.61381500  0.56260900  1
  O  O63  1  0.24766700  0.38618500  0.43739100  1
  O  O64  1  0.74330500  0.88342400  0.43432200  1
  O  O65  1  0.24330500  0.11657600  0.56567800  1
  O  O66  1  0.74330500  0.61657600  0.93432200  1
  O  O67  1  0.24330500  0.38342400  0.06567800  1
  O  O68  1  0.74942800  0.38805000  0.04986000  1
  O  O69  1  0.24942800  0.61195000  0.95014000  1
  O  O70  1  0.74942800  0.11195000  0.54986000  1
  O  O71  1  0.24942800  0.88805000  0.45014000  1
  O  O72  1  0.76008500  0.37910900  0.46133600  1
  O  O73  1  0.26008500  0.62089100  0.53866400  1
  O  O74  1  0.76008500  0.12089100  0.96133600  1
  O  O75  1  0.26110900  0.63984300  0.75380200  1
