# generated using pymatgen
data_ZnH2SeO4
_symmetry_space_group_name_H-M   'P 1'
_cell_length_a   4.85865400
_cell_length_b   13.80636600
_cell_length_c   7.34526425
_cell_angle_alpha   90.00000000
_cell_angle_beta   128.26061242
_cell_angle_gamma   90.00000000
_symmetry_Int_Tables_number   1
_chemical_formula_structural   ZnH2SeO4
_chemical_formula_sum   'Zn4 H8 Se4 O16'
_cell_volume   386.88715717
_cell_formula_units_Z   4
loop_
 _symmetry_equiv_pos_site_id
 _symmetry_equiv_pos_as_xyz
  1  'x, y, z'
loop_
 _atom_site_type_symbol
 _atom_site_label
 _atom_site_symmetry_multiplicity
 _atom_site_fract_x
 _atom_site_fract_y
 _atom_site_fract_z
 _atom_site_occupancy
  Zn  Zn0  1  0.32097700  0.73113800  0.62719700  1
  Zn  Zn1  1  0.67902300  0.23113800  0.87280300  1
  Zn  Zn2  1  0.67902300  0.26886200  0.37280300  1
  Zn  Zn3  1  0.32097700  0.76886200  0.12719700  1
  H  H4  1  0.78792300  0.88165300  0.96333000  1
  H  H5  1  0.21207700  0.38165300  0.53667000  1
  H  H6  1  0.21207700  0.11834700  0.03667000  1
  H  H7  1  0.78792300  0.61834700  0.46333000  1
  H  H8  1  0.96261700  0.86797700  0.22866100  1
  H  H9  1  0.03738300  0.36797700  0.27133900  1
  H  H10  1  0.03738300  0.13202300  0.77133900  1
  H  H11  1  0.96261700  0.63202300  0.72866100  1
  Se  Se12  1  0.89174700  0.60712100  0.12054700  1
  Se  Se13  1  0.10825300  0.10712100  0.37945300  1
  Se  Se14  1  0.10825300  0.39287900  0.87945300  1
  Se  Se15  1  0.89174700  0.89287900  0.62054700  1
  O  O16  1  0.24594300  0.68084200  0.33516400  1
  O  O17  1  0.75405700  0.18084200  0.16483600  1
  O  O18  1  0.75405700  0.31915800  0.66483600  1
  O  O19  1  0.24594300  0.81915800  0.83516400  1
  O  O20  1  0.80742700  0.82670500  0.38636600  1
  O  O21  1  0.19257300  0.32670500  0.11363400  1
  O  O22  1  0.19257300  0.17329500  0.61363400  1
  O  O23  1  0.80742700  0.67329500  0.88636600  1
  O  O24  1  0.56292400  0.86322900  0.63139400  1
  O  O25  1  0.43707600  0.36322900  0.86860600  1
  O  O26  1  0.43707600  0.13677100  0.36860600  1
  O  O27  1  0.56292400  0.63677100  0.13139400  1
  O  O28  1  0.01548300  0.61742300  0.62061500  1
  O  O29  1  0.98451700  0.11742300  0.87938500  1
  O  O30  1  0.98451700  0.38257700  0.37938500  1
  O  O31  1  0.01548300  0.88257700  0.12061500  1
