# generated using pymatgen
data_SnAsF7
_symmetry_space_group_name_H-M   'P 1'
_cell_length_a   9.34924816
_cell_length_b   9.34924816
_cell_length_c   17.16601743
_cell_angle_alpha   90.00000000
_cell_angle_beta   90.00000000
_cell_angle_gamma   120.00000000
_symmetry_Int_Tables_number   1
_chemical_formula_structural   SnAsF7
_chemical_formula_sum   'Sn9 As9 F63'
_cell_volume   1299.43199652
_cell_formula_units_Z   9
loop_
 _symmetry_equiv_pos_site_id
 _symmetry_equiv_pos_as_xyz
  1  'x, y, z'
loop_
 _atom_site_type_symbol
 _atom_site_label
 _atom_site_symmetry_multiplicity
 _atom_site_fract_x
 _atom_site_fract_y
 _atom_site_fract_z
 _atom_site_occupancy
  Sn  Sn0  1  0.07484033  0.66666667  0.16666667  1
  Sn  Sn1  1  0.33333333  0.40817367  0.16666667  1
  Sn  Sn2  1  0.59182633  0.92515967  0.16666667  1
  Sn  Sn3  1  0.74150700  0.00000000  0.50000000  1
  Sn  Sn4  1  0.00000000  0.74150700  0.50000000  1
  Sn  Sn5  1  0.25849300  0.25849300  0.50000000  1
  Sn  Sn6  1  0.40817367  0.33333333  0.83333333  1
  Sn  Sn7  1  0.66666667  0.07484033  0.83333333  1
  Sn  Sn8  1  0.92515967  0.59182633  0.83333333  1
  As  As9  1  0.33333333  0.66666667  0.36759967  1
  As  As10  1  0.33333333  0.66666667  0.96573367  1
  As  As11  1  0.00000000  0.00000000  0.00000000  1
  As  As12  1  0.00000000  0.00000000  0.70093300  1
  As  As13  1  1.00000000  0.00000000  0.29906700  1
  As  As14  1  0.66666667  0.33333333  0.33333333  1
  As  As15  1  0.66666667  0.33333333  0.03426633  1
  As  As16  1  0.66666667  0.33333333  0.63240033  1
  As  As17  1  0.33333333  0.66666667  0.66666667  1
  F  F18  1  0.33333333  0.84591867  0.16666667  1
  F  F19  1  0.15408133  0.48741467  0.16666667  1
  F  F20  1  0.51258533  0.66666667  0.16666667  1
  F  F21  1  0.32905033  0.50854367  0.30697067  1
  F  F22  1  0.49145633  0.82050667  0.30697067  1
  F  F23  1  0.17949333  0.67094967  0.30697067  1
  F  F24  1  0.08895300  0.90998900  0.06000200  1
  F  F25  1  0.82103600  0.91104700  0.06000200  1
  F  F26  1  0.09001100  0.17896400  0.06000200  1
  F  F27  1  0.57665567  0.42228633  0.27333133  1
  F  F28  1  0.84563067  0.42334433  0.27333133  1
  F  F29  1  0.57771367  0.15436933  0.27333133  1
  F  F30  1  0.48965000  0.66844800  0.90756100  1
  F  F31  1  0.17879800  0.51035000  0.90756100  1
  F  F32  1  0.33155200  0.82120200  0.90756100  1
  F  F33  1  0.33511467  0.82298333  0.42577233  1
  F  F34  1  0.48786867  0.66488533  0.42577233  1
  F  F35  1  0.17701667  0.51213133  0.42577233  1
  F  F36  1  0.33761633  0.51282667  0.02636267  1
  F  F37  1  0.17521033  0.66238367  0.02636267  1
  F  F38  1  0.48717333  0.82478967  0.02636267  1
  F  F39  1  0.00000000  0.17925200  0.50000000  1
  F  F40  1  0.82074800  0.82074800  0.50000000  1
  F  F41  1  0.17925200  0.00000000  0.50000000  1
  F  F42  1  0.99571700  0.84187700  0.64030400  1
  F  F43  1  0.15812300  0.15384000  0.64030400  1
  F  F44  1  0.84616000  0.00428300  0.64030400  1
  F  F45  1  0.75561967  0.24332233  0.39333533  1
  F  F46  1  0.48770267  0.24438033  0.39333533  1
  F  F47  1  0.75667767  0.51229733  0.39333533  1
  F  F48  1  0.24332233  0.75561967  0.60666467  1
  F  F49  1  0.51229733  0.75667767  0.60666467  1
  F  F50  1  0.24438033  0.48770267  0.60666467  1
  F  F51  1  0.15631667  0.00178133  0.24089433  1
  F  F52  1  0.84546467  0.84368333  0.24089433  1
  F  F53  1  0.99821867  0.15453533  0.24089433  1
  F  F54  1  0.00178133  0.15631667  0.75910567  1
  F  F55  1  0.15453533  0.99821867  0.75910567  1
  F  F56  1  0.84368333  0.84546467  0.75910567  1
  F  F57  1  0.00428300  0.84616000  0.35969600  1
  F  F58  1  0.84187700  0.99571700  0.35969600  1
  F  F59  1  0.15384000  0.15812300  0.35969600  1
  F  F60  1  0.66666667  0.51258533  0.83333333  1
  F  F61  1  0.48741467  0.15408133  0.83333333  1
  F  F62  1  0.84591867  0.33333333  0.83333333  1
  F  F63  1  0.66238367  0.17521033  0.97363733  1
  F  F64  1  0.82478967  0.48717333  0.97363733  1
  F  F65  1  0.51282667  0.33761633  0.97363733  1
  F  F66  1  0.42228633  0.57665567  0.72666867  1
  F  F67  1  0.15436933  0.57771367  0.72666867  1
  F  F68  1  0.42334433  0.84563067  0.72666867  1
  F  F69  1  0.90998900  0.08895300  0.93999800  1
  F  F70  1  0.17896400  0.09001100  0.93999800  1
  F  F71  1  0.91104700  0.82103600  0.93999800  1
  F  F72  1  0.82298333  0.33511467  0.57422767  1
  F  F73  1  0.51213133  0.17701667  0.57422767  1
  F  F74  1  0.66488533  0.48786867  0.57422767  1
  F  F75  1  0.66844800  0.48965000  0.09243900  1
  F  F76  1  0.82120200  0.33155200  0.09243900  1
  F  F77  1  0.51035000  0.17879800  0.09243900  1
  F  F78  1  0.67094967  0.17949333  0.69302933  1
  F  F79  1  0.50854367  0.32905033  0.69302933  1
  F  F80  1  0.82050667  0.49145633  0.69302933  1
