# generated using pymatgen
data_Hg2AsCl2
_symmetry_space_group_name_H-M   'P 1'
_cell_length_a   14.29945200
_cell_length_b   8.49908400
_cell_length_c   9.21522407
_cell_angle_alpha   90.00000000
_cell_angle_beta   99.15704049
_cell_angle_gamma   90.00000000
_symmetry_Int_Tables_number   1
_chemical_formula_structural   Hg2AsCl2
_chemical_formula_sum   'Hg16 As8 Cl16'
_cell_volume   1105.67410224
_cell_formula_units_Z   8
loop_
 _symmetry_equiv_pos_site_id
 _symmetry_equiv_pos_as_xyz
  1  'x, y, z'
loop_
 _atom_site_type_symbol
 _atom_site_label
 _atom_site_symmetry_multiplicity
 _atom_site_fract_x
 _atom_site_fract_y
 _atom_site_fract_z
 _atom_site_occupancy
  Hg  Hg0  1  0.52151800  0.25404600  0.75750300  1
  Hg  Hg1  1  0.47848200  0.25404600  0.24249700  1
  Hg  Hg2  1  0.47848200  0.74595400  0.24249700  1
  Hg  Hg3  1  0.52151800  0.74595400  0.75750300  1
  Hg  Hg4  1  0.72358900  0.00000000  0.04659200  1
  Hg  Hg5  1  0.27641100  0.00000000  0.95340800  1
  Hg  Hg6  1  0.21728700  0.00000000  0.49024900  1
  Hg  Hg7  1  0.78271300  0.00000000  0.50975100  1
  Hg  Hg8  1  0.02151800  0.75404600  0.75750300  1
  Hg  Hg9  1  0.97848200  0.75404600  0.24249700  1
  Hg  Hg10  1  0.97848200  0.24595400  0.24249700  1
  Hg  Hg11  1  0.02151800  0.24595400  0.75750300  1
  Hg  Hg12  1  0.22358900  0.50000000  0.04659200  1
  Hg  Hg13  1  0.77641100  0.50000000  0.95340800  1
  Hg  Hg14  1  0.71728700  0.50000000  0.49024900  1
  Hg  Hg15  1  0.28271300  0.50000000  0.50975100  1
  As  As16  1  0.95989300  0.00000000  0.60890500  1
  As  As17  1  0.04010700  0.00000000  0.39109500  1
  As  As18  1  0.55432000  0.00000000  0.90947900  1
  As  As19  1  0.44568000  0.00000000  0.09052100  1
  As  As20  1  0.45989300  0.50000000  0.60890500  1
  As  As21  1  0.54010700  0.50000000  0.39109500  1
  As  As22  1  0.05432000  0.50000000  0.90947900  1
  As  As23  1  0.94568000  0.50000000  0.09052100  1
  Cl  Cl24  1  0.22801300  0.78030600  0.73880700  1
  Cl  Cl25  1  0.77198700  0.78030600  0.26119300  1
  Cl  Cl26  1  0.77198700  0.21969400  0.26119300  1
  Cl  Cl27  1  0.22801300  0.21969400  0.73880700  1
  Cl  Cl28  1  0.11103300  0.00000000  0.00952700  1
  Cl  Cl29  1  0.88896700  0.00000000  0.99047300  1
  Cl  Cl30  1  0.61071600  0.00000000  0.48010000  1
  Cl  Cl31  1  0.38928400  0.00000000  0.51990000  1
  Cl  Cl32  1  0.72801300  0.28030600  0.73880700  1
  Cl  Cl33  1  0.27198700  0.28030600  0.26119300  1
  Cl  Cl34  1  0.27198700  0.71969400  0.26119300  1
  Cl  Cl35  1  0.72801300  0.71969400  0.73880700  1
  Cl  Cl36  1  0.61103300  0.50000000  0.00952700  1
  Cl  Cl37  1  0.38896700  0.50000000  0.99047300  1
  Cl  Cl38  1  0.11071600  0.50000000  0.48010000  1
  Cl  Cl39  1  0.88928400  0.50000000  0.51990000  1
