# generated using pymatgen
data_CaAlSiHO5
_symmetry_space_group_name_H-M   'P 1'
_cell_length_a   5.75151900
_cell_length_b   7.11997700
_cell_length_c   8.60503100
_cell_angle_alpha   90.00000000
_cell_angle_beta   90.00000000
_cell_angle_gamma   90.00000000
_symmetry_Int_Tables_number   1
_chemical_formula_structural   CaAlSiHO5
_chemical_formula_sum   'Ca4 Al4 Si4 H4 O20'
_cell_volume   352.38189664
_cell_formula_units_Z   4
loop_
 _symmetry_equiv_pos_site_id
 _symmetry_equiv_pos_as_xyz
  1  'x, y, z'
loop_
 _atom_site_type_symbol
 _atom_site_label
 _atom_site_symmetry_multiplicity
 _atom_site_fract_x
 _atom_site_fract_y
 _atom_site_fract_z
 _atom_site_occupancy
  Ca  Ca0  1  0.46970500  0.63630600  0.16436100  1
  Ca  Ca1  1  0.96970500  0.86369400  0.83563900  1
  Ca  Ca2  1  0.53029500  0.13630600  0.33563900  1
  Ca  Ca3  1  0.03029500  0.36369400  0.66436100  1
  Al  Al4  1  0.24282700  0.23766200  0.00533400  1
  Al  Al5  1  0.74282700  0.26233800  0.99466600  1
  Al  Al6  1  0.25717300  0.76233800  0.50533400  1
  Al  Al7  1  0.75717300  0.73766200  0.49466600  1
  Si  Si8  1  0.98758000  0.37913700  0.31018600  1
  Si  Si9  1  0.01242000  0.87913700  0.18981400  1
  Si  Si10  1  0.48758000  0.12086300  0.68981400  1
  Si  Si11  1  0.51242000  0.62086300  0.81018600  1
  H  H12  1  0.47993600  0.47716200  0.49307400  1
  H  H13  1  0.97993600  0.02283800  0.50692600  1
  H  H14  1  0.52006400  0.97716200  0.00692600  1
  H  H15  1  0.02006400  0.52283800  0.99307400  1
  O  O16  1  0.49440500  0.60444300  0.43579500  1
  O  O17  1  0.99440500  0.89555700  0.56420500  1
  O  O18  1  0.50559500  0.10444300  0.06420500  1
  O  O19  1  0.00559500  0.39555700  0.93579500  1
  O  O20  1  0.75832100  0.38643100  0.19291000  1
  O  O21  1  0.25832100  0.11356900  0.80709000  1
  O  O22  1  0.24167900  0.88643100  0.30709000  1
  O  O23  1  0.74167900  0.61356900  0.69291000  1
  O  O24  1  0.49130000  0.42999300  0.92880100  1
  O  O25  1  0.99130000  0.07000700  0.07119900  1
  O  O26  1  0.50870000  0.92999300  0.57119900  1
  O  O27  1  0.00870000  0.57000700  0.42880100  1
  O  O28  1  0.57219200  0.78885300  0.93294400  1
  O  O29  1  0.07219200  0.71114700  0.06705600  1
  O  O30  1  0.42780800  0.28885300  0.56705600  1
  O  O31  1  0.92780800  0.21114700  0.43294400  1
  O  O32  1  0.26777700  0.64862200  0.71070300  1
  O  O33  1  0.76777700  0.85137800  0.28929700  1
  O  O34  1  0.73222300  0.14862200  0.78929700  1
  O  O35  1  0.23222300  0.35137800  0.21070300  1
