# generated using pymatgen
data_P3BrCl14
_symmetry_space_group_name_H-M   'P 1'
_cell_length_a   9.05439200
_cell_length_b   9.05439200
_cell_length_c   12.70731800
_cell_angle_alpha   90.00000000
_cell_angle_beta   90.00000000
_cell_angle_gamma   90.00000000
_symmetry_Int_Tables_number   1
_chemical_formula_structural   P3BrCl14
_chemical_formula_sum   'P6 Br2 Cl28'
_cell_volume   1041.77152840
_cell_formula_units_Z   2
loop_
 _symmetry_equiv_pos_site_id
 _symmetry_equiv_pos_as_xyz
  1  'x, y, z'
loop_
 _atom_site_type_symbol
 _atom_site_label
 _atom_site_symmetry_multiplicity
 _atom_site_fract_x
 _atom_site_fract_y
 _atom_site_fract_z
 _atom_site_occupancy
  P  P0  1  0.50000000  0.00000000  0.24894400  1
  P  P1  1  0.00000000  0.00000000  0.49640400  1
  P  P2  1  0.00000000  0.50000000  0.24894400  1
  P  P3  1  0.00000000  0.50000000  0.74894400  1
  P  P4  1  0.50000000  0.50000000  0.99640400  1
  P  P5  1  0.50000000  0.00000000  0.74894400  1
  Br  Br6  1  0.00000000  0.00000000  0.00054300  1
  Br  Br7  1  0.50000000  0.50000000  0.50054300  1
  Cl  Cl8  1  0.00000000  0.00000000  0.32633300  1
  Cl  Cl9  1  0.53564550  0.17427250  0.33837850  1
  Cl  Cl10  1  0.82572750  0.53564550  0.33837850  1
  Cl  Cl11  1  0.17427250  0.46435450  0.33837850  1
  Cl  Cl12  1  0.46435450  0.82572750  0.33837850  1
  Cl  Cl13  1  0.32572000  0.03598900  0.15955900  1
  Cl  Cl14  1  0.96401100  0.32572000  0.15955900  1
  Cl  Cl15  1  0.03598900  0.67428000  0.15955900  1
  Cl  Cl16  1  0.67428000  0.96401100  0.15955900  1
  Cl  Cl17  1  0.28826350  0.38730750  0.99644950  1
  Cl  Cl18  1  0.61269250  0.28826350  0.99644950  1
  Cl  Cl19  1  0.88730750  0.21173650  0.49644950  1
  Cl  Cl20  1  0.21173650  0.11269250  0.49644950  1
  Cl  Cl21  1  0.00000000  0.00000000  0.66658700  1
  Cl  Cl22  1  0.50000000  0.50000000  0.82633300  1
  Cl  Cl23  1  0.03564550  0.67427250  0.83837850  1
  Cl  Cl24  1  0.32572750  0.03564550  0.83837850  1
  Cl  Cl25  1  0.67427250  0.96435450  0.83837850  1
  Cl  Cl26  1  0.96435450  0.32572750  0.83837850  1
  Cl  Cl27  1  0.82572000  0.53598900  0.65955900  1
  Cl  Cl28  1  0.46401100  0.82572000  0.65955900  1
  Cl  Cl29  1  0.53598900  0.17428000  0.65955900  1
  Cl  Cl30  1  0.17428000  0.46401100  0.65955900  1
  Cl  Cl31  1  0.78826350  0.88730750  0.49644950  1
  Cl  Cl32  1  0.11269250  0.78826350  0.49644950  1
  Cl  Cl33  1  0.38730750  0.71173650  0.99644950  1
  Cl  Cl34  1  0.71173650  0.61269250  0.99644950  1
  Cl  Cl35  1  0.50000000  0.50000000  0.16658700  1
