# generated using pymatgen
data_P2O5
_symmetry_space_group_name_H-M   'P 1'
_cell_length_a   4.94032800
_cell_length_b   7.38709900
_cell_length_c   9.65020600
_cell_angle_alpha   90.00000000
_cell_angle_beta   90.00000000
_cell_angle_gamma   90.00000000
_symmetry_Int_Tables_number   1
_chemical_formula_structural   P2O5
_chemical_formula_sum   'P8 O20'
_cell_volume   352.18129598
_cell_formula_units_Z   4
loop_
 _symmetry_equiv_pos_site_id
 _symmetry_equiv_pos_as_xyz
  1  'x, y, z'
loop_
 _atom_site_type_symbol
 _atom_site_label
 _atom_site_symmetry_multiplicity
 _atom_site_fract_x
 _atom_site_fract_y
 _atom_site_fract_z
 _atom_site_occupancy
  P  P0  1  0.25000000  0.71310400  0.24961600  1
  P  P1  1  0.75000000  0.28689600  0.75038400  1
  P  P2  1  0.75000000  0.21310400  0.25038400  1
  P  P3  1  0.25000000  0.78689600  0.74961600  1
  P  P4  1  0.25000000  0.34924300  0.39450100  1
  P  P5  1  0.75000000  0.65075700  0.60549900  1
  P  P6  1  0.75000000  0.84924300  0.10549900  1
  P  P7  1  0.25000000  0.15075700  0.89450100  1
  O  O8  1  0.25000000  0.50002600  0.27700300  1
  O  O9  1  0.75000000  0.49997400  0.72299700  1
  O  O10  1  0.75000000  0.00002600  0.22299700  1
  O  O11  1  0.25000000  0.99997400  0.77700300  1
  O  O12  1  0.25000000  0.83799600  0.36615400  1
  O  O13  1  0.75000000  0.16200400  0.63384600  1
  O  O14  1  0.75000000  0.33799600  0.13384600  1
  O  O15  1  0.25000000  0.66200400  0.86615400  1
  O  O16  1  0.25000000  0.40439400  0.53996500  1
  O  O17  1  0.75000000  0.59560600  0.46003500  1
  O  O18  1  0.75000000  0.90439400  0.96003500  1
  O  O19  1  0.25000000  0.09560600  0.03996500  1
  O  O20  1  0.99874300  0.72371800  0.14618300  1
  O  O21  1  0.49874300  0.27628200  0.85381700  1
  O  O22  1  0.00125700  0.22371800  0.35381700  1
  O  O23  1  0.50125700  0.77628200  0.64618300  1
  O  O24  1  0.00125700  0.27628200  0.85381700  1
  O  O25  1  0.50125700  0.72371800  0.14618300  1
  O  O26  1  0.99874300  0.77628200  0.64618300  1
  O  O27  1  0.49874300  0.22371800  0.35381700  1
