# generated using pymatgen
data_CdH8C4(S2N3)2
_symmetry_space_group_name_H-M   'P 1'
_cell_length_a   4.16783600
_cell_length_b   7.91261951
_cell_length_c   10.20254719
_cell_angle_alpha   90.98160334
_cell_angle_beta   99.08975060
_cell_angle_gamma   103.81238158
_symmetry_Int_Tables_number   1
_chemical_formula_structural   CdH8C4(S2N3)2
_chemical_formula_sum   'Cd1 H8 C4 S4 N6'
_cell_volume   322.10371565
_cell_formula_units_Z   1
loop_
 _symmetry_equiv_pos_site_id
 _symmetry_equiv_pos_as_xyz
  1  'x, y, z'
loop_
 _atom_site_type_symbol
 _atom_site_label
 _atom_site_symmetry_multiplicity
 _atom_site_fract_x
 _atom_site_fract_y
 _atom_site_fract_z
 _atom_site_occupancy
  Cd  Cd0  1  0.00000000  0.00000000  0.00000000  1
  H  H1  1  0.40030100  0.52100500  0.86780200  1
  H  H2  1  0.59969900  0.47899500  0.13219800  1
  H  H3  1  0.38121900  0.49319000  0.69663000  1
  H  H4  1  0.61878100  0.50681000  0.30337000  1
  H  H5  1  0.66723500  0.10063800  0.72112000  1
  H  H6  1  0.33276500  0.89936200  0.27888000  1
  H  H7  1  0.50655400  0.24084900  0.61043400  1
  H  H8  1  0.49344600  0.75915100  0.38956600  1
  C  C9  1  0.53704000  0.30364700  0.80840100  1
  C  C10  1  0.46296000  0.69635300  0.19159900  1
  C  C11  1  0.92606500  0.82310800  0.69230400  1
  C  C12  1  0.07393500  0.17689200  0.30769600  1
  S  S13  1  0.97314800  0.70003100  0.57231400  1
  S  S14  1  0.02685200  0.29996900  0.42768600  1
  S  S15  1  0.62004000  0.24260300  0.97092800  1
  S  S16  1  0.37996000  0.75739700  0.02907200  1
  N  N17  1  0.58144800  0.21121000  0.70582700  1
  N  N18  1  0.57550000  0.55313300  0.21126700  1
  N  N19  1  0.42450000  0.44686700  0.78873300  1
  N  N20  1  0.41855200  0.78879000  0.29417300  1
  N  N21  1  0.88697000  0.91511000  0.77917700  1
  N  N22  1  0.11303000  0.08489000  0.22082300  1
