# generated using pymatgen
data_InSe
_symmetry_space_group_name_H-M   'P 1'
_cell_length_a   4.09491424
_cell_length_b   4.09491424
_cell_length_c   26.88972752
_cell_angle_alpha   90.00000000
_cell_angle_beta   90.00000000
_cell_angle_gamma   120.00000000
_symmetry_Int_Tables_number   1
_chemical_formula_structural   InSe
_chemical_formula_sum   'In6 Se6'
_cell_volume   390.48706683
_cell_formula_units_Z   6
loop_
 _symmetry_equiv_pos_site_id
 _symmetry_equiv_pos_as_xyz
  1  'x, y, z'
loop_
 _atom_site_type_symbol
 _atom_site_label
 _atom_site_symmetry_multiplicity
 _atom_site_fract_x
 _atom_site_fract_y
 _atom_site_fract_z
 _atom_site_occupancy
  In  In0  1  0.66666667  0.33333333  0.22461133  1
  In  In1  1  0.66666667  0.33333333  0.32989733  1
  In  In2  1  0.33333333  0.66666667  0.55794467  1
  In  In3  1  0.33333333  0.66666667  0.66323067  1
  In  In4  1  0.00000000  0.00000000  0.89127800  1
  In  In5  1  0.00000000  0.00000000  0.99656400  1
  Se  Se6  1  0.33333333  0.66666667  0.04369267  1
  Se  Se7  1  0.00000000  0.00000000  0.17743200  1
  Se  Se8  1  0.00000000  0.00000000  0.37702600  1
  Se  Se9  1  0.66666667  0.33333333  0.51076533  1
  Se  Se10  1  0.66666667  0.33333333  0.71035933  1
  Se  Se11  1  0.33333333  0.66666667  0.84409867  1
