# generated using pymatgen
data_La(SiP3)2
_symmetry_space_group_name_H-M   'P 1'
_cell_length_a   10.20243400
_cell_length_b   28.34495000
_cell_length_c   10.45976200
_cell_angle_alpha   90.00000000
_cell_angle_beta   90.00000000
_cell_angle_gamma   90.00000000
_symmetry_Int_Tables_number   1
_chemical_formula_structural   La(SiP3)2
_chemical_formula_sum   'La16 Si32 P96'
_cell_volume   3024.83223100
_cell_formula_units_Z   16
loop_
 _symmetry_equiv_pos_site_id
 _symmetry_equiv_pos_as_xyz
  1  'x, y, z'
loop_
 _atom_site_type_symbol
 _atom_site_label
 _atom_site_symmetry_multiplicity
 _atom_site_fract_x
 _atom_site_fract_y
 _atom_site_fract_z
 _atom_site_occupancy
  La  La0  1  0.50000000  0.95873600  0.57568400  1
  La  La1  1  0.00000000  0.54126400  0.07568400  1
  La  La2  1  0.00000000  0.73412600  0.61434000  1
  La  La3  1  0.50000000  0.76587400  0.11434000  1
  La  La4  1  0.00000000  0.81024900  0.09569500  1
  La  La5  1  0.50000000  0.68975100  0.59569500  1
  La  La6  1  0.00000000  0.91890800  0.50026000  1
  La  La7  1  0.50000000  0.58109200  0.00026000  1
  La  La8  1  0.00000000  0.45873600  0.57568400  1
  La  La9  1  0.50000000  0.04126400  0.07568400  1
  La  La10  1  0.50000000  0.23412600  0.61434000  1
  La  La11  1  0.00000000  0.26587400  0.11434000  1
  La  La12  1  0.50000000  0.31024900  0.09569500  1
  La  La13  1  0.00000000  0.18975100  0.59569500  1
  La  La14  1  0.50000000  0.41890800  0.50026000  1
  La  La15  1  0.00000000  0.08109200  0.00026000  1
  Si  Si16  1  0.66079350  0.91940950  0.17736600  1
  Si  Si17  1  0.32247550  0.83496850  0.71840600  1
  Si  Si18  1  0.17752450  0.66503150  0.21840600  1
  Si  Si19  1  0.67752450  0.83496850  0.71840600  1
  Si  Si20  1  0.82247550  0.66503150  0.21840600  1
  Si  Si21  1  0.17158250  0.67830250  0.88509800  1
  Si  Si22  1  0.32841750  0.82169750  0.38509800  1
  Si  Si23  1  0.82841750  0.67830250  0.88509800  1
  Si  Si24  1  0.67158250  0.82169750  0.38509800  1
  Si  Si25  1  0.83920650  0.58059050  0.67736600  1
  Si  Si26  1  0.33920650  0.91940950  0.17736600  1
  Si  Si27  1  0.16079350  0.58059050  0.67736600  1
  Si  Si28  1  0.67061400  0.56640500  0.35842500  1
  Si  Si29  1  0.82938600  0.93359500  0.85842500  1
  Si  Si30  1  0.32938600  0.56640500  0.35842500  1
  Si  Si31  1  0.17061400  0.93359500  0.85842500  1
  Si  Si32  1  0.16079350  0.41940950  0.17736600  1
  Si  Si33  1  0.82247550  0.33496850  0.71840600  1
  Si  Si34  1  0.67752450  0.16503150  0.21840600  1
  Si  Si35  1  0.17752450  0.33496850  0.71840600  1
  Si  Si36  1  0.32247550  0.16503150  0.21840600  1
  Si  Si37  1  0.67158250  0.17830250  0.88509800  1
  Si  Si38  1  0.82841750  0.32169750  0.38509800  1
  Si  Si39  1  0.32841750  0.17830250  0.88509800  1
  Si  Si40  1  0.17158250  0.32169750  0.38509800  1
  Si  Si41  1  0.33920650  0.08059050  0.67736600  1
  Si  Si42  1  0.83920650  0.41940950  0.17736600  1
  Si  Si43  1  0.66079350  0.08059050  0.67736600  1
  Si  Si44  1  0.17061400  0.06640500  0.35842500  1
  Si  Si45  1  0.32938600  0.43359500  0.85842500  1
  Si  Si46  1  0.82938600  0.06640500  0.35842500  1
  Si  Si47  1  0.67061400  0.43359500  0.85842500  1
  P  P48  1  0.16515100  0.76669000  0.38545700  1
  P  P49  1  0.50000000  0.77319100  0.40324500  1
  P  P50  1  0.00000000  0.72680900  0.90324500  1
  P  P51  1  0.50000000  0.95779900  0.27827800  1
  P  P52  1  0.00000000  0.54220100  0.77827800  1
  P  P53  1  0.00000000  0.57755700  0.35622200  1
  P  P54  1  0.50000000  0.92244300  0.85622200  1
  P  P55  1  0.50000000  0.84387700  0.85296600  1
  P  P56  1  0.65452500  0.64580100  0.35375500  1
  P  P57  1  0.84547500  0.85419900  0.85375500  1
  P  P58  1  0.34547500  0.64580100  0.35375500  1
  P  P59  1  0.15452500  0.85419900  0.85375500  1
  P  P60  1  0.70036500  0.52930600  0.17171000  1
  P  P61  1  0.79963500  0.97069400  0.67171000  1
  P  P62  1  0.29963500  0.52930600  0.17171000  1
  P  P63  1  0.20036500  0.97069400  0.67171000  1
  P  P64  1  0.70433350  0.84343150  0.17792000  1
  P  P65  1  0.79566650  0.65656850  0.67792000  1
  P  P66  1  0.29566650  0.84343150  0.17792000  1
  P  P67  1  0.20433350  0.65656850  0.67792000  1
  P  P68  1  0.79229050  0.74213050  0.18819700  1
  P  P69  1  0.70770950  0.75786950  0.68819700  1
  P  P70  1  0.20770950  0.74213050  0.18819700  1
  P  P71  1  0.29229050  0.75786950  0.68819700  1
  P  P72  1  0.79321500  0.62243600  0.03701000  1
  P  P73  1  0.70678500  0.87756400  0.53701000  1
  P  P74  1  0.20678500  0.62243600  0.03701000  1
  P  P75  1  0.29321500  0.87756400  0.53701000  1
  P  P76  1  0.83484900  0.76669000  0.38545700  1
  P  P77  1  0.66515100  0.73331000  0.88545700  1
  P  P78  1  0.00000000  0.65612300  0.35296600  1
  P  P79  1  0.33484900  0.73331000  0.88545700  1
  P  P80  1  0.84029900  0.95806000  0.25292500  1
  P  P81  1  0.65970100  0.54194000  0.75292500  1
  P  P82  1  0.15970100  0.95806000  0.25292500  1
  P  P83  1  0.34029900  0.54194000  0.75292500  1
  P  P84  1  0.84679650  0.54699950  0.47884700  1
  P  P85  1  0.65320350  0.95300050  0.97884700  1
  P  P86  1  0.00000000  0.81762300  0.37918800  1
  P  P87  1  0.34679650  0.95300050  0.97884700  1
  P  P88  1  0.50000000  0.53097200  0.46261000  1
  P  P89  1  0.00000000  0.96902800  0.96261000  1
  P  P90  1  0.50000000  0.57484500  0.63894200  1
  P  P91  1  0.00000000  0.92515500  0.13894200  1
  P  P92  1  0.50000000  0.65472900  0.20771000  1
  P  P93  1  0.00000000  0.84527100  0.70771000  1
  P  P94  1  0.50000000  0.68237700  0.87918800  1
  P  P95  1  0.15320350  0.54699950  0.47884700  1
  P  P96  1  0.66515100  0.26669000  0.38545700  1
  P  P97  1  0.00000000  0.27319100  0.40324500  1
  P  P98  1  0.50000000  0.22680900  0.90324500  1
  P  P99  1  0.00000000  0.45779900  0.27827800  1
  P  P100  1  0.50000000  0.04220100  0.77827800  1
  P  P101  1  0.50000000  0.07755700  0.35622200  1
  P  P102  1  0.00000000  0.42244300  0.85622200  1
  P  P103  1  0.00000000  0.34387700  0.85296600  1
  P  P104  1  0.15452500  0.14580100  0.35375500  1
  P  P105  1  0.34547500  0.35419900  0.85375500  1
  P  P106  1  0.84547500  0.14580100  0.35375500  1
  P  P107  1  0.65452500  0.35419900  0.85375500  1
  P  P108  1  0.20036500  0.02930600  0.17171000  1
  P  P109  1  0.29963500  0.47069400  0.67171000  1
  P  P110  1  0.79963500  0.02930600  0.17171000  1
  P  P111  1  0.70036500  0.47069400  0.67171000  1
  P  P112  1  0.20433350  0.34343150  0.17792000  1
  P  P113  1  0.29566650  0.15656850  0.67792000  1
  P  P114  1  0.79566650  0.34343150  0.17792000  1
  P  P115  1  0.70433350  0.15656850  0.67792000  1
  P  P116  1  0.29229050  0.24213050  0.18819700  1
  P  P117  1  0.20770950  0.25786950  0.68819700  1
  P  P118  1  0.70770950  0.24213050  0.18819700  1
  P  P119  1  0.79229050  0.25786950  0.68819700  1
  P  P120  1  0.29321500  0.12243600  0.03701000  1
  P  P121  1  0.20678500  0.37756400  0.53701000  1
  P  P122  1  0.70678500  0.12243600  0.03701000  1
  P  P123  1  0.79321500  0.37756400  0.53701000  1
  P  P124  1  0.33484900  0.26669000  0.38545700  1
  P  P125  1  0.16515100  0.23331000  0.88545700  1
  P  P126  1  0.50000000  0.15612300  0.35296600  1
  P  P127  1  0.83484900  0.23331000  0.88545700  1
  P  P128  1  0.34029900  0.45806000  0.25292500  1
  P  P129  1  0.15970100  0.04194000  0.75292500  1
  P  P130  1  0.65970100  0.45806000  0.25292500  1
  P  P131  1  0.84029900  0.04194000  0.75292500  1
  P  P132  1  0.34679650  0.04699950  0.47884700  1
  P  P133  1  0.15320350  0.45300050  0.97884700  1
  P  P134  1  0.50000000  0.31762300  0.37918800  1
  P  P135  1  0.84679650  0.45300050  0.97884700  1
  P  P136  1  0.00000000  0.03097200  0.46261000  1
  P  P137  1  0.50000000  0.46902800  0.96261000  1
  P  P138  1  0.00000000  0.07484500  0.63894200  1
  P  P139  1  0.50000000  0.42515500  0.13894200  1
  P  P140  1  0.00000000  0.15472900  0.20771000  1
  P  P141  1  0.50000000  0.34527100  0.70771000  1
  P  P142  1  0.00000000  0.18237700  0.87918800  1
  P  P143  1  0.65320350  0.04699950  0.47884700  1
