# generated using pymatgen
data_Na4IrO4
_symmetry_space_group_name_H-M   'P 1'
_cell_length_a   7.21399400
_cell_length_b   7.21399400
_cell_length_c   4.76657600
_cell_angle_alpha   90.00000000
_cell_angle_beta   90.00000000
_cell_angle_gamma   90.00000000
_symmetry_Int_Tables_number   1
_chemical_formula_structural   Na4IrO4
_chemical_formula_sum   'Na8 Ir2 O8'
_cell_volume   248.06076318
_cell_formula_units_Z   2
loop_
 _symmetry_equiv_pos_site_id
 _symmetry_equiv_pos_as_xyz
  1  'x, y, z'
loop_
 _atom_site_type_symbol
 _atom_site_label
 _atom_site_symmetry_multiplicity
 _atom_site_fract_x
 _atom_site_fract_y
 _atom_site_fract_z
 _atom_site_occupancy
  Na  Na0  1  0.69731700  0.90742000  0.50000000  1
  Na  Na1  1  0.40742000  0.80268300  0.00000000  1
  Na  Na2  1  0.30268300  0.09258000  0.50000000  1
  Na  Na3  1  0.59258000  0.19731700  0.00000000  1
  Na  Na4  1  0.19731700  0.40742000  0.00000000  1
  Na  Na5  1  0.90742000  0.30268300  0.50000000  1
  Na  Na6  1  0.80268300  0.59258000  0.00000000  1
  Na  Na7  1  0.09258000  0.69731700  0.50000000  1
  Ir  Ir8  1  0.00000000  0.00000000  0.00000000  1
  Ir  Ir9  1  0.50000000  0.50000000  0.50000000  1
  O  O10  1  0.74409600  0.91645100  0.00000000  1
  O  O11  1  0.25590400  0.08354900  0.00000000  1
  O  O12  1  0.58354900  0.24409600  0.50000000  1
  O  O13  1  0.41645100  0.75590400  0.50000000  1
  O  O14  1  0.24409600  0.41645100  0.50000000  1
  O  O15  1  0.75590400  0.58354900  0.50000000  1
  O  O16  1  0.08354900  0.74409600  0.00000000  1
  O  O17  1  0.91645100  0.25590400  0.00000000  1
