# generated using pymatgen
data_SmH3(CO2)3
_symmetry_space_group_name_H-M   'P 1'
_cell_length_a   10.61695187
_cell_length_b   10.61695187
_cell_length_c   4.07907768
_cell_angle_alpha   90.00000000
_cell_angle_beta   90.00000000
_cell_angle_gamma   120.00000000
_symmetry_Int_Tables_number   1
_chemical_formula_structural   SmH3(CO2)3
_chemical_formula_sum   'Sm3 H9 C9 O18'
_cell_volume   398.19179298
_cell_formula_units_Z   3
loop_
 _symmetry_equiv_pos_site_id
 _symmetry_equiv_pos_as_xyz
  1  'x, y, z'
loop_
 _atom_site_type_symbol
 _atom_site_label
 _atom_site_symmetry_multiplicity
 _atom_site_fract_x
 _atom_site_fract_y
 _atom_site_fract_z
 _atom_site_occupancy
  Sm  Sm0  1  0.00000000  0.00000000  0.84100600  1
  Sm  Sm1  1  0.66666667  0.33333333  0.17433933  1
  Sm  Sm2  1  0.33333333  0.66666667  0.50767267  1
  H  H3  1  0.34408033  0.17204017  0.63842267  1
  H  H4  1  0.16129317  0.83870683  0.30508933  1
  H  H5  1  0.16129317  0.32258633  0.30508933  1
  H  H6  1  0.01074700  0.50537350  0.97175600  1
  H  H7  1  0.82795983  0.17204017  0.63842267  1
  H  H8  1  0.82795983  0.65591967  0.63842267  1
  H  H9  1  0.67741367  0.83870683  0.30508933  1
  H  H10  1  0.49462650  0.50537350  0.97175600  1
  H  H11  1  0.49462650  0.98925300  0.97175600  1
  C  C12  1  0.17989233  0.35978467  0.04776767  1
  C  C13  1  0.30688200  0.15344100  0.38110100  1
  C  C14  1  0.17989233  0.82010767  0.04776767  1
  C  C15  1  0.84655900  0.69311800  0.38110100  1
  C  C16  1  0.97354867  0.48677433  0.71443433  1
  C  C17  1  0.84655900  0.15344100  0.38110100  1
  C  C18  1  0.51322567  0.02645133  0.71443433  1
  C  C19  1  0.64021533  0.82010767  0.04776767  1
  C  C20  1  0.51322567  0.48677433  0.71443433  1
  O  O21  1  0.16923400  0.08461700  0.33402500  1
  O  O22  1  0.13278833  0.26557667  0.82170467  1
  O  O23  1  0.13278833  0.86721167  0.82170467  1
  O  O24  1  0.24871633  0.49743267  0.00069167  1
  O  O25  1  0.24871633  0.75128367  0.00069167  1
  O  O26  1  0.40109000  0.20054500  0.15503800  1
  O  O27  1  0.83590067  0.41795033  0.66735833  1
  O  O28  1  0.79945500  0.59891000  0.15503800  1
  O  O29  1  0.79945500  0.20054500  0.15503800  1
  O  O30  1  0.91538300  0.83076600  0.33402500  1
  O  O31  1  0.91538300  0.08461700  0.33402500  1
  O  O32  1  0.06775667  0.53387833  0.48837133  1
  O  O33  1  0.50256733  0.75128367  0.00069167  1
  O  O34  1  0.46612167  0.93224333  0.48837133  1
  O  O35  1  0.46612167  0.53387833  0.48837133  1
  O  O36  1  0.58204967  0.16409933  0.66735833  1
  O  O37  1  0.58204967  0.41795033  0.66735833  1
  O  O38  1  0.73442333  0.86721167  0.82170467  1
