# generated using pymatgen
data_Li2TiO3
_symmetry_space_group_name_H-M   'P 1'
_cell_length_a   5.09996400
_cell_length_b   8.85270600
_cell_length_c   9.83459528
_cell_angle_alpha   90.00000000
_cell_angle_beta   100.20560728
_cell_angle_gamma   90.00000000
_symmetry_Int_Tables_number   1
_chemical_formula_structural   Li2TiO3
_chemical_formula_sum   'Li16 Ti8 O24'
_cell_volume   436.99193059
_cell_formula_units_Z   8
loop_
 _symmetry_equiv_pos_site_id
 _symmetry_equiv_pos_as_xyz
  1  'x, y, z'
loop_
 _atom_site_type_symbol
 _atom_site_label
 _atom_site_symmetry_multiplicity
 _atom_site_fract_x
 _atom_site_fract_y
 _atom_site_fract_z
 _atom_site_occupancy
  Li  Li0  1  0.73983700  0.57982800  0.99962300  1
  Li  Li1  1  0.26016300  0.57982800  0.50037700  1
  Li  Li2  1  0.76016300  0.92017200  0.00037700  1
  Li  Li3  1  0.23983700  0.92017200  0.49962300  1
  Li  Li4  1  0.75000000  0.75000000  0.50000000  1
  Li  Li5  1  0.25000000  0.75000000  0.00000000  1
  Li  Li6  1  0.50000000  0.58434200  0.25000000  1
  Li  Li7  1  0.00000000  0.91565800  0.75000000  1
  Li  Li8  1  0.23983700  0.07982800  0.99962300  1
  Li  Li9  1  0.76016300  0.07982800  0.50037700  1
  Li  Li10  1  0.26016300  0.42017200  0.00037700  1
  Li  Li11  1  0.73983700  0.42017200  0.49962300  1
  Li  Li12  1  0.25000000  0.25000000  0.50000000  1
  Li  Li13  1  0.75000000  0.25000000  0.00000000  1
  Li  Li14  1  0.00000000  0.08434200  0.25000000  1
  Li  Li15  1  0.50000000  0.41565800  0.75000000  1
  Ti  Ti16  1  0.50000000  0.91741500  0.25000000  1
  Ti  Ti17  1  0.50000000  0.75039400  0.75000000  1
  Ti  Ti18  1  0.00000000  0.74960600  0.25000000  1
  Ti  Ti19  1  0.00000000  0.58258500  0.75000000  1
  Ti  Ti20  1  0.00000000  0.41741500  0.25000000  1
  Ti  Ti21  1  0.00000000  0.25039400  0.75000000  1
  Ti  Ti22  1  0.50000000  0.24960600  0.25000000  1
  Ti  Ti23  1  0.50000000  0.08258500  0.75000000  1
  O  O24  1  0.63928650  0.59394650  0.63443600  1
  O  O25  1  0.64056300  0.76351400  0.13690300  1
  O  O26  1  0.36071350  0.59394650  0.86556400  1
  O  O27  1  0.86071350  0.90605350  0.36556400  1
  O  O28  1  0.10526100  0.58449700  0.13696200  1
  O  O29  1  0.35943700  0.76351400  0.36309700  1
  O  O30  1  0.85943700  0.73648600  0.86309700  1
  O  O31  1  0.14056300  0.73648600  0.63690300  1
  O  O32  1  0.60526100  0.91550300  0.63696200  1
  O  O33  1  0.89473900  0.58449700  0.36303800  1
  O  O34  1  0.39473900  0.91550300  0.86303800  1
  O  O35  1  0.13928650  0.90605350  0.13443600  1
  O  O36  1  0.13928650  0.09394650  0.63443600  1
  O  O37  1  0.14056300  0.26351400  0.13690300  1
  O  O38  1  0.86071350  0.09394650  0.86556400  1
  O  O39  1  0.36071350  0.40605350  0.36556400  1
  O  O40  1  0.60526100  0.08449700  0.13696200  1
  O  O41  1  0.85943700  0.26351400  0.36309700  1
  O  O42  1  0.35943700  0.23648600  0.86309700  1
  O  O43  1  0.64056300  0.23648600  0.63690300  1
  O  O44  1  0.10526100  0.41550300  0.63696200  1
  O  O45  1  0.39473900  0.08449700  0.36303800  1
  O  O46  1  0.89473900  0.41550300  0.86303800  1
  O  O47  1  0.63928650  0.40605350  0.13443600  1
