# generated using pymatgen
data_Cu4P2O9
_symmetry_space_group_name_H-M   'P 1'
_cell_length_a   6.38098100
_cell_length_b   8.15510400
_cell_length_c   13.63420200
_cell_angle_alpha   90.00000000
_cell_angle_beta   90.00000000
_cell_angle_gamma   90.00000000
_symmetry_Int_Tables_number   1
_chemical_formula_structural   Cu4P2O9
_chemical_formula_sum   'Cu16 P8 O36'
_cell_volume   709.49065476
_cell_formula_units_Z   4
loop_
 _symmetry_equiv_pos_site_id
 _symmetry_equiv_pos_as_xyz
  1  'x, y, z'
loop_
 _atom_site_type_symbol
 _atom_site_label
 _atom_site_symmetry_multiplicity
 _atom_site_fract_x
 _atom_site_fract_y
 _atom_site_fract_z
 _atom_site_occupancy
  Cu  Cu0  1  0.25000000  0.14489800  0.05206500  1
  Cu  Cu1  1  0.75000000  0.85510200  0.94793500  1
  Cu  Cu2  1  0.25000000  0.64489800  0.44793500  1
  Cu  Cu3  1  0.75000000  0.35510200  0.55206500  1
  Cu  Cu4  1  0.25000000  0.43716900  0.91208200  1
  Cu  Cu5  1  0.75000000  0.56283100  0.08791800  1
  Cu  Cu6  1  0.25000000  0.93716900  0.58791800  1
  Cu  Cu7  1  0.75000000  0.06283100  0.41208200  1
  Cu  Cu8  1  0.99276700  0.64732600  0.65711600  1
  Cu  Cu9  1  0.49276700  0.35267400  0.34288400  1
  Cu  Cu10  1  0.50723300  0.14732600  0.84288400  1
  Cu  Cu11  1  0.00723300  0.85267400  0.15711600  1
  Cu  Cu12  1  0.00723300  0.35267400  0.34288400  1
  Cu  Cu13  1  0.50723300  0.64732600  0.65711600  1
  Cu  Cu14  1  0.49276700  0.85267400  0.15711600  1
  Cu  Cu15  1  0.99276700  0.14732600  0.84288400  1
  P  P16  1  0.75000000  0.64994300  0.41516400  1
  P  P17  1  0.25000000  0.35005700  0.58483600  1
  P  P18  1  0.75000000  0.14994300  0.08483600  1
  P  P19  1  0.25000000  0.85005700  0.91516400  1
  P  P20  1  0.75000000  0.49676400  0.84318200  1
  P  P21  1  0.25000000  0.50323600  0.15681800  1
  P  P22  1  0.75000000  0.99676400  0.65681800  1
  P  P23  1  0.25000000  0.00323600  0.34318200  1
  O  O24  1  0.25000000  0.20213500  0.90622600  1
  O  O25  1  0.75000000  0.79786500  0.09377400  1
  O  O26  1  0.25000000  0.70213500  0.59377400  1
  O  O27  1  0.75000000  0.29786500  0.40622600  1
  O  O28  1  0.55037800  0.88789600  0.65123600  1
  O  O29  1  0.05037800  0.11210400  0.34876400  1
  O  O30  1  0.94962200  0.38789600  0.84876400  1
  O  O31  1  0.44962200  0.61210400  0.15123600  1
  O  O32  1  0.44962200  0.11210400  0.34876400  1
  O  O33  1  0.94962200  0.88789600  0.65123600  1
  O  O34  1  0.05037800  0.61210400  0.15123600  1
  O  O35  1  0.55037800  0.38789600  0.84876400  1
  O  O36  1  0.25000000  0.90266700  0.24451400  1
  O  O37  1  0.75000000  0.09733300  0.75548600  1
  O  O38  1  0.45259600  0.91459100  0.86255500  1
  O  O39  1  0.25000000  0.40266700  0.25548600  1
  O  O40  1  0.25000000  0.88165000  0.43032200  1
  O  O41  1  0.75000000  0.11835000  0.56967800  1
  O  O42  1  0.25000000  0.38165000  0.06967800  1
  O  O43  1  0.75000000  0.61835000  0.93032200  1
  O  O44  1  0.54740400  0.08540900  0.13744500  1
  O  O45  1  0.04740400  0.91459100  0.86255500  1
  O  O46  1  0.95259600  0.58540900  0.36255500  1
  O  O47  1  0.45259600  0.41459100  0.63744500  1
  O  O48  1  0.75000000  0.83457000  0.41024800  1
  O  O49  1  0.25000000  0.16543000  0.58975200  1
  O  O50  1  0.75000000  0.33457000  0.08975200  1
  O  O51  1  0.25000000  0.66543000  0.91024800  1
  O  O52  1  0.75000000  0.59007700  0.52444200  1
  O  O53  1  0.25000000  0.40992300  0.47555800  1
  O  O54  1  0.75000000  0.09007700  0.97555800  1
  O  O55  1  0.25000000  0.90992300  0.02444200  1
  O  O56  1  0.54740400  0.58540900  0.36255500  1
  O  O57  1  0.04740400  0.41459100  0.63744500  1
  O  O58  1  0.95259600  0.08540900  0.13744500  1
  O  O59  1  0.75000000  0.59733300  0.74451400  1
