# generated using pymatgen
data_Sr2NCl
_symmetry_space_group_name_H-M   'P 1'
_cell_length_a   3.91453446
_cell_length_b   3.91453446
_cell_length_c   21.32200271
_cell_angle_alpha   90.00000000
_cell_angle_beta   90.00000000
_cell_angle_gamma   120.00000000
_symmetry_Int_Tables_number   1
_chemical_formula_structural   Sr2NCl
_chemical_formula_sum   'Sr6 N3 Cl3'
_cell_volume   282.95597388
_cell_formula_units_Z   3
loop_
 _symmetry_equiv_pos_site_id
 _symmetry_equiv_pos_as_xyz
  1  'x, y, z'
loop_
 _atom_site_type_symbol
 _atom_site_label
 _atom_site_symmetry_multiplicity
 _atom_site_fract_x
 _atom_site_fract_y
 _atom_site_fract_z
 _atom_site_occupancy
  Sr  Sr0  1  0.00000000  0.00000000  0.22993500  1
  Sr  Sr1  1  0.66666667  0.33333333  0.10339833  1
  Sr  Sr2  1  0.66666667  0.33333333  0.56326833  1
  Sr  Sr3  1  0.33333333  0.66666667  0.43673167  1
  Sr  Sr4  1  0.33333333  0.66666667  0.89660167  1
  Sr  Sr5  1  0.00000000  0.00000000  0.77006500  1
  N  N6  1  0.33333333  0.66666667  0.16666667  1
  N  N7  1  1.00000000  1.00000000  0.50000000  1
  N  N8  1  0.66666667  0.33333333  0.83333333  1
  Cl  Cl9  1  0.00000000  0.00000000  0.00000000  1
  Cl  Cl10  1  0.66666667  0.33333333  0.33333333  1
  Cl  Cl11  1  0.33333333  0.66666667  0.66666667  1
