# generated using pymatgen
data_Rb3H(SO4)2
_symmetry_space_group_name_H-M   'P 1'
_cell_length_a   15.52378000
_cell_length_b   6.01119600
_cell_length_c   10.33024273
_cell_angle_alpha   90.00000000
_cell_angle_beta   102.49155949
_cell_angle_gamma   90.00000000
_symmetry_Int_Tables_number   1
_chemical_formula_structural   Rb3H(SO4)2
_chemical_formula_sum   'Rb12 H4 S8 O32'
_cell_volume   941.16243837
_cell_formula_units_Z   4
loop_
 _symmetry_equiv_pos_site_id
 _symmetry_equiv_pos_as_xyz
  1  'x, y, z'
loop_
 _atom_site_type_symbol
 _atom_site_label
 _atom_site_symmetry_multiplicity
 _atom_site_fract_x
 _atom_site_fract_y
 _atom_site_fract_z
 _atom_site_occupancy
  Rb  Rb0  1  0.81016850  0.77654850  0.84768900  1
  Rb  Rb1  1  0.68983150  0.27654850  0.65231100  1
  Rb  Rb2  1  0.68983150  0.72345150  0.15231100  1
  Rb  Rb3  1  0.81016850  0.22345150  0.34768900  1
  Rb  Rb4  1  0.00000000  0.75589800  0.25000000  1
  Rb  Rb5  1  0.00000000  0.24410200  0.75000000  1
  Rb  Rb6  1  0.31016850  0.27654850  0.84768900  1
  Rb  Rb7  1  0.18983150  0.77654850  0.65231100  1
  Rb  Rb8  1  0.18983150  0.22345150  0.15231100  1
  Rb  Rb9  1  0.31016850  0.72345150  0.34768900  1
  Rb  Rb10  1  0.50000000  0.25589800  0.25000000  1
  Rb  Rb11  1  0.50000000  0.74410200  0.75000000  1
  H  H12  1  0.00000000  0.50000000  0.50000000  1
  H  H13  1  0.00000000  0.50000000  0.00000000  1
  H  H14  1  0.50000000  0.00000000  0.50000000  1
  H  H15  1  0.50000000  0.00000000  0.00000000  1
  S  S16  1  0.61515400  0.78349700  0.46484300  1
  S  S17  1  0.88484600  0.28349700  0.03515700  1
  S  S18  1  0.88484600  0.71650300  0.53515700  1
  S  S19  1  0.61515400  0.21650300  0.96484300  1
  S  S20  1  0.11515400  0.28349700  0.46484300  1
  S  S21  1  0.38484600  0.78349700  0.03515700  1
  S  S22  1  0.38484600  0.21650300  0.53515700  1
  S  S23  1  0.11515400  0.71650300  0.96484300  1
  O  O24  1  0.62470200  0.57240300  0.39661100  1
  O  O25  1  0.87529800  0.07240300  0.10338900  1
  O  O26  1  0.87529800  0.92759700  0.60338900  1
  O  O27  1  0.62470200  0.42759700  0.89661100  1
  O  O28  1  0.65156950  0.76917450  0.60971200  1
  O  O29  1  0.84843050  0.26917450  0.89028800  1
  O  O30  1  0.84843050  0.73082550  0.39028800  1
  O  O31  1  0.65156950  0.23082550  0.10971200  1
  O  O32  1  0.51412150  0.17253650  0.94607500  1
  O  O33  1  0.98587850  0.67253650  0.55392500  1
  O  O34  1  0.98587850  0.32746350  0.05392500  1
  O  O35  1  0.51412150  0.82746350  0.44607500  1
  O  O36  1  0.65266300  0.02519000  0.90522100  1
  O  O37  1  0.84733700  0.52519000  0.59477900  1
  O  O38  1  0.84733700  0.47481000  0.09477900  1
  O  O39  1  0.65266300  0.97481000  0.40522100  1
  O  O40  1  0.12470200  0.07240300  0.39661100  1
  O  O41  1  0.37529800  0.57240300  0.10338900  1
  O  O42  1  0.37529800  0.42759700  0.60338900  1
  O  O43  1  0.12470200  0.92759700  0.89661100  1
  O  O44  1  0.15156950  0.26917450  0.60971200  1
  O  O45  1  0.34843050  0.76917450  0.89028800  1
  O  O46  1  0.34843050  0.23082550  0.39028800  1
  O  O47  1  0.15156950  0.73082550  0.10971200  1
  O  O48  1  0.01412150  0.67253650  0.94607500  1
  O  O49  1  0.48587850  0.17253650  0.55392500  1
  O  O50  1  0.48587850  0.82746350  0.05392500  1
  O  O51  1  0.01412150  0.32746350  0.44607500  1
  O  O52  1  0.15266300  0.52519000  0.90522100  1
  O  O53  1  0.34733700  0.02519000  0.59477900  1
  O  O54  1  0.34733700  0.97481000  0.09477900  1
  O  O55  1  0.15266300  0.47481000  0.40522100  1
