# generated using pymatgen
data_PNCl2
_symmetry_space_group_name_H-M   'P 1'
_cell_length_a   6.55379400
_cell_length_b   13.75048000
_cell_length_c   14.74003200
_cell_angle_alpha   90.00000000
_cell_angle_beta   90.00000000
_cell_angle_gamma   90.00000000
_symmetry_Int_Tables_number   1
_chemical_formula_structural   PNCl2
_chemical_formula_sum   'P12 N12 Cl24'
_cell_volume   1328.33945212
_cell_formula_units_Z   12
loop_
 _symmetry_equiv_pos_site_id
 _symmetry_equiv_pos_as_xyz
  1  'x, y, z'
loop_
 _atom_site_type_symbol
 _atom_site_label
 _atom_site_symmetry_multiplicity
 _atom_site_fract_x
 _atom_site_fract_y
 _atom_site_fract_z
 _atom_site_occupancy
  P  P0  1  0.93797900  0.35092500  0.09451500  1
  P  P1  1  0.43797900  0.64907500  0.40548500  1
  P  P2  1  0.06202100  0.85092500  0.90548500  1
  P  P3  1  0.56202100  0.14907500  0.59451500  1
  P  P4  1  0.06202100  0.64907500  0.90548500  1
  P  P5  1  0.56202100  0.35092500  0.59451500  1
  P  P6  1  0.93797900  0.14907500  0.09451500  1
  P  P7  1  0.43797900  0.85092500  0.40548500  1
  P  P8  1  0.90982500  0.75000000  0.05380600  1
  P  P9  1  0.40982500  0.25000000  0.44619400  1
  P  P10  1  0.09017500  0.25000000  0.94619400  1
  P  P11  1  0.59017500  0.75000000  0.55380600  1
  N  N12  1  0.04386200  0.34988100  0.99719800  1
  N  N13  1  0.54386200  0.65011900  0.50280200  1
  N  N14  1  0.95613800  0.84988100  0.00280200  1
  N  N15  1  0.45613800  0.15011900  0.49719800  1
  N  N16  1  0.95613800  0.65011900  0.00280200  1
  N  N17  1  0.45613800  0.34988100  0.49719800  1
  N  N18  1  0.04386200  0.15011900  0.99719800  1
  N  N19  1  0.54386200  0.84988100  0.50280200  1
  N  N20  1  0.10339000  0.75000000  0.85523200  1
  N  N21  1  0.60339000  0.25000000  0.64476800  1
  N  N22  1  0.89661000  0.25000000  0.14476800  1
  N  N23  1  0.39661000  0.75000000  0.35523200  1
  Cl  Cl24  1  0.44216300  0.75000000  0.67390400  1
  Cl  Cl25  1  0.94216300  0.25000000  0.82609600  1
  Cl  Cl26  1  0.55783700  0.25000000  0.32609600  1
  Cl  Cl27  1  0.05783700  0.75000000  0.17390400  1
  Cl  Cl28  1  0.88362600  0.75000000  0.59406400  1
  Cl  Cl29  1  0.38362600  0.25000000  0.90593600  1
  Cl  Cl30  1  0.11637400  0.25000000  0.40593600  1
  Cl  Cl31  1  0.61637400  0.75000000  0.09406400  1
  Cl  Cl32  1  0.17232300  0.92476800  0.41360600  1
  Cl  Cl33  1  0.67232300  0.07523200  0.08639400  1
  Cl  Cl34  1  0.82767700  0.42476800  0.58639400  1
  Cl  Cl35  1  0.32767700  0.57523200  0.91360600  1
  Cl  Cl36  1  0.82767700  0.07523200  0.58639400  1
  Cl  Cl37  1  0.32767700  0.92476800  0.91360600  1
  Cl  Cl38  1  0.17232300  0.57523200  0.41360600  1
  Cl  Cl39  1  0.67232300  0.42476800  0.08639400  1
  Cl  Cl40  1  0.60203900  0.93648600  0.32213600  1
  Cl  Cl41  1  0.10203900  0.06351400  0.17786400  1
  Cl  Cl42  1  0.39796100  0.43648600  0.67786400  1
  Cl  Cl43  1  0.89796100  0.56351400  0.82213600  1
  Cl  Cl44  1  0.39796100  0.06351400  0.67786400  1
  Cl  Cl45  1  0.89796100  0.93648600  0.82213600  1
  Cl  Cl46  1  0.60203900  0.56351400  0.32213600  1
  Cl  Cl47  1  0.10203900  0.43648600  0.17786400  1
