# generated using pymatgen
data_CaPbF6
_symmetry_space_group_name_H-M   'P 1'
_cell_length_a   8.72400400
_cell_length_b   8.72400400
_cell_length_c   8.72400400
_cell_angle_alpha   90.00000000
_cell_angle_beta   90.00000000
_cell_angle_gamma   90.00000000
_symmetry_Int_Tables_number   1
_chemical_formula_structural   CaPbF6
_chemical_formula_sum   'Ca4 Pb4 F24'
_cell_volume   663.96864072
_cell_formula_units_Z   4
loop_
 _symmetry_equiv_pos_site_id
 _symmetry_equiv_pos_as_xyz
  1  'x, y, z'
loop_
 _atom_site_type_symbol
 _atom_site_label
 _atom_site_symmetry_multiplicity
 _atom_site_fract_x
 _atom_site_fract_y
 _atom_site_fract_z
 _atom_site_occupancy
  Ca  Ca0  1  0.50000000  0.00000000  0.00000000  1
  Ca  Ca1  1  0.50000000  0.50000000  0.50000000  1
  Ca  Ca2  1  0.00000000  0.00000000  0.50000000  1
  Ca  Ca3  1  0.00000000  0.50000000  0.00000000  1
  Pb  Pb4  1  0.00000000  0.00000000  0.00000000  1
  Pb  Pb5  1  0.00000000  0.50000000  0.50000000  1
  Pb  Pb6  1  0.50000000  0.00000000  0.50000000  1
  Pb  Pb7  1  0.50000000  0.50000000  0.00000000  1
  F  F8  1  0.50000000  0.25967900  0.00000000  1
  F  F9  1  0.50000000  0.00000000  0.74032100  1
  F  F10  1  0.50000000  0.74032100  0.00000000  1
  F  F11  1  0.75967900  0.00000000  0.00000000  1
  F  F12  1  0.24032100  0.00000000  0.00000000  1
  F  F13  1  0.00000000  0.00000000  0.75967900  1
  F  F14  1  0.50000000  0.75967900  0.50000000  1
  F  F15  1  0.50000000  0.50000000  0.24032100  1
  F  F16  1  0.50000000  0.24032100  0.50000000  1
  F  F17  1  0.75967900  0.50000000  0.50000000  1
  F  F18  1  0.24032100  0.50000000  0.50000000  1
  F  F19  1  0.00000000  0.50000000  0.25967900  1
  F  F20  1  0.00000000  0.25967900  0.50000000  1
  F  F21  1  0.00000000  0.00000000  0.24032100  1
  F  F22  1  0.00000000  0.74032100  0.50000000  1
  F  F23  1  0.25967900  0.00000000  0.50000000  1
  F  F24  1  0.74032100  0.00000000  0.50000000  1
  F  F25  1  0.50000000  0.00000000  0.25967900  1
  F  F26  1  0.00000000  0.75967900  0.00000000  1
  F  F27  1  0.00000000  0.50000000  0.74032100  1
  F  F28  1  0.00000000  0.24032100  0.00000000  1
  F  F29  1  0.25967900  0.50000000  0.00000000  1
  F  F30  1  0.74032100  0.50000000  0.00000000  1
  F  F31  1  0.50000000  0.50000000  0.75967900  1
