# generated using pymatgen
data_NaAg3O2
_symmetry_space_group_name_H-M   'P 1'
_cell_length_a   6.05810400
_cell_length_b   6.26049800
_cell_length_c   10.59256400
_cell_angle_alpha   90.00000000
_cell_angle_beta   90.00000000
_cell_angle_gamma   90.00000000
_symmetry_Int_Tables_number   1
_chemical_formula_structural   NaAg3O2
_chemical_formula_sum   'Na4 Ag12 O8'
_cell_volume   401.74150525
_cell_formula_units_Z   4
loop_
 _symmetry_equiv_pos_site_id
 _symmetry_equiv_pos_as_xyz
  1  'x, y, z'
loop_
 _atom_site_type_symbol
 _atom_site_label
 _atom_site_symmetry_multiplicity
 _atom_site_fract_x
 _atom_site_fract_y
 _atom_site_fract_z
 _atom_site_occupancy
  Na  Na0  1  0.25000000  0.50000000  0.00000000  1
  Na  Na1  1  0.75000000  0.50000000  0.00000000  1
  Na  Na2  1  0.75000000  0.00000000  0.50000000  1
  Na  Na3  1  0.25000000  0.00000000  0.50000000  1
  Ag  Ag4  1  0.75000000  0.75000000  0.25000000  1
  Ag  Ag5  1  0.25000000  0.25000000  0.25000000  1
  Ag  Ag6  1  0.25000000  0.75000000  0.25000000  1
  Ag  Ag7  1  0.50000000  0.00000000  0.00000000  1
  Ag  Ag8  1  0.00000000  0.00000000  0.00000000  1
  Ag  Ag9  1  0.75000000  0.25000000  0.25000000  1
  Ag  Ag10  1  0.25000000  0.25000000  0.75000000  1
  Ag  Ag11  1  0.75000000  0.75000000  0.75000000  1
  Ag  Ag12  1  0.75000000  0.25000000  0.75000000  1
  Ag  Ag13  1  0.00000000  0.50000000  0.50000000  1
  Ag  Ag14  1  0.50000000  0.50000000  0.50000000  1
  Ag  Ag15  1  0.25000000  0.75000000  0.75000000  1
  O  O16  1  0.00000000  0.21214500  0.38972500  1
  O  O17  1  0.50000000  0.78785500  0.38972500  1
  O  O18  1  0.00000000  0.71214500  0.11027500  1
  O  O19  1  0.50000000  0.28785500  0.11027500  1
  O  O20  1  0.50000000  0.71214500  0.88972500  1
  O  O21  1  0.00000000  0.28785500  0.88972500  1
  O  O22  1  0.50000000  0.21214500  0.61027500  1
  O  O23  1  0.00000000  0.78785500  0.61027500  1
