# generated using pymatgen
data_Ca2Hf7O16
_symmetry_space_group_name_H-M   'P 1'
_cell_length_a   6.35733994
_cell_length_b   6.35733994
_cell_length_c   26.49936085
_cell_angle_alpha   90.00000000
_cell_angle_beta   90.00000000
_cell_angle_gamma   120.00000000
_symmetry_Int_Tables_number   1
_chemical_formula_structural   Ca2Hf7O16
_chemical_formula_sum   'Ca6 Hf21 O48'
_cell_volume   927.50636714
_cell_formula_units_Z   3
loop_
 _symmetry_equiv_pos_site_id
 _symmetry_equiv_pos_as_xyz
  1  'x, y, z'
loop_
 _atom_site_type_symbol
 _atom_site_label
 _atom_site_symmetry_multiplicity
 _atom_site_fract_x
 _atom_site_fract_y
 _atom_site_fract_z
 _atom_site_occupancy
  Ca  Ca0  1  0.00000000  0.00000000  0.33300100  1
  Ca  Ca1  1  0.66666667  0.33333333  0.00033233  1
  Ca  Ca2  1  0.66666667  0.33333333  0.66633433  1
  Ca  Ca3  1  0.33333333  0.66666667  0.33366567  1
  Ca  Ca4  1  0.33333333  0.66666667  0.99966767  1
  Ca  Ca5  1  0.00000000  0.00000000  0.66699900  1
  Hf  Hf6  1  0.62855367  0.62744333  0.11421533  1
  Hf  Hf7  1  0.99888967  0.37144633  0.11421533  1
  Hf  Hf8  1  0.37255667  0.00111033  0.11421533  1
  Hf  Hf9  1  0.03811300  0.70589000  0.21911800  1
  Hf  Hf10  1  0.66777700  0.96188700  0.21911800  1
  Hf  Hf11  1  0.29411000  0.33222300  0.21911800  1
  Hf  Hf12  1  0.00000000  0.00000000  0.00000000  1
  Hf  Hf13  1  0.29522033  0.96077667  0.44754867  1
  Hf  Hf14  1  0.66555633  0.70477967  0.44754867  1
  Hf  Hf15  1  0.03922333  0.33444367  0.44754867  1
  Hf  Hf16  1  0.70477967  0.03922333  0.55245133  1
  Hf  Hf17  1  0.33444367  0.29522033  0.55245133  1
  Hf  Hf18  1  0.96077667  0.66555633  0.55245133  1
  Hf  Hf19  1  0.66666667  0.33333333  0.33333333  1
  Hf  Hf20  1  0.96188700  0.29411000  0.78088200  1
  Hf  Hf21  1  0.33222300  0.03811300  0.78088200  1
  Hf  Hf22  1  0.70589000  0.66777700  0.78088200  1
  Hf  Hf23  1  0.37144633  0.37255667  0.88578467  1
  Hf  Hf24  1  0.00111033  0.62855367  0.88578467  1
  Hf  Hf25  1  0.62744333  0.99888967  0.88578467  1
  Hf  Hf26  1  0.33333333  0.66666667  0.66666667  1
  O  O27  1  0.65243067  0.60806833  0.19708433  1
  O  O28  1  0.95563767  0.34756933  0.19708433  1
  O  O29  1  0.39193167  0.04436233  0.19708433  1
  O  O30  1  0.01423600  0.72526500  0.13624900  1
  O  O31  1  0.71102900  0.98576400  0.13624900  1
  O  O32  1  0.27473500  0.28897100  0.13624900  1
  O  O33  1  0.72171300  0.71218500  0.04073400  1
  O  O34  1  0.99047200  0.27828700  0.04073400  1
  O  O35  1  0.28781500  0.00952800  0.04073400  1
  O  O36  1  0.66666667  0.33333333  0.09592333  1
  O  O37  1  0.00000000  0.00000000  0.23741000  1
  O  O38  1  0.33333333  0.66666667  0.24067167  1
  O  O39  1  0.33333333  0.66666667  0.09266167  1
  O  O40  1  0.37885167  0.32380533  0.29259933  1
  O  O41  1  0.67619467  0.05504633  0.29259933  1
  O  O42  1  0.94495367  0.62114833  0.29259933  1
  O  O43  1  0.31909733  0.94140167  0.53041767  1
  O  O44  1  0.62230433  0.68090267  0.53041767  1
  O  O45  1  0.05859833  0.37769567  0.53041767  1
  O  O46  1  0.68090267  0.05859833  0.46958233  1
  O  O47  1  0.37769567  0.31909733  0.46958233  1
  O  O48  1  0.94140167  0.62230433  0.46958233  1
  O  O49  1  0.38837967  0.04551833  0.37406733  1
  O  O50  1  0.65713867  0.61162033  0.37406733  1
  O  O51  1  0.95448167  0.34286133  0.37406733  1
  O  O52  1  0.33333333  0.66666667  0.42925667  1
  O  O53  1  0.66666667  0.33333333  0.57074333  1
  O  O54  1  0.00000000  0.00000000  0.57400500  1
  O  O55  1  0.00000000  0.00000000  0.42599500  1
  O  O56  1  0.04551833  0.65713867  0.62593267  1
  O  O57  1  0.34286133  0.38837967  0.62593267  1
  O  O58  1  0.61162033  0.95448167  0.62593267  1
  O  O59  1  0.98576400  0.27473500  0.86375100  1
  O  O60  1  0.28897100  0.01423600  0.86375100  1
  O  O61  1  0.72526500  0.71102900  0.86375100  1
  O  O62  1  0.34756933  0.39193167  0.80291567  1
  O  O63  1  0.04436233  0.65243067  0.80291567  1
  O  O64  1  0.60806833  0.95563767  0.80291567  1
  O  O65  1  0.05504633  0.37885167  0.70740067  1
  O  O66  1  0.32380533  0.94495367  0.70740067  1
  O  O67  1  0.62114833  0.67619467  0.70740067  1
  O  O68  1  0.00000000  0.00000000  0.76259000  1
  O  O69  1  0.33333333  0.66666667  0.90407667  1
  O  O70  1  0.66666667  0.33333333  0.90733833  1
  O  O71  1  0.66666667  0.33333333  0.75932833  1
  O  O72  1  0.71218500  0.99047200  0.95926600  1
  O  O73  1  0.00952800  0.72171300  0.95926600  1
  O  O74  1  0.27828700  0.28781500  0.95926600  1
