# generated using pymatgen
data_H5BrNO
_symmetry_space_group_name_H-M   'P 1'
_cell_length_a   6.72730500
_cell_length_b   7.33065100
_cell_length_c   7.83034279
_cell_angle_alpha   90.00000000
_cell_angle_beta   111.67391282
_cell_angle_gamma   90.00000000
_symmetry_Int_Tables_number   1
_chemical_formula_structural   H5BrNO
_chemical_formula_sum   'H20 Br4 N4 O4'
_cell_volume   358.85645156
_cell_formula_units_Z   4
loop_
 _symmetry_equiv_pos_site_id
 _symmetry_equiv_pos_as_xyz
  1  'x, y, z'
loop_
 _atom_site_type_symbol
 _atom_site_label
 _atom_site_symmetry_multiplicity
 _atom_site_fract_x
 _atom_site_fract_y
 _atom_site_fract_z
 _atom_site_occupancy
  H  H0  1  0.87044900  0.80472800  0.86569300  1
  H  H1  1  0.12955100  0.30472800  0.63430700  1
  H  H2  1  0.12955100  0.19527200  0.13430700  1
  H  H3  1  0.87044900  0.69527200  0.36569300  1
  H  H4  1  0.76166800  0.90702200  0.98590100  1
  H  H5  1  0.23833200  0.40702200  0.51409900  1
  H  H6  1  0.23833200  0.09297800  0.01409900  1
  H  H7  1  0.76166800  0.59297800  0.48590100  1
  H  H8  1  0.59655500  0.95730400  0.69932100  1
  H  H9  1  0.40344500  0.45730400  0.80067900  1
  H  H10  1  0.40344500  0.04269600  0.30067900  1
  H  H11  1  0.59655500  0.54269600  0.19932100  1
  H  H12  1  0.40523600  0.37178300  0.09517000  1
  H  H13  1  0.59476400  0.87178300  0.40483000  1
  H  H14  1  0.59476400  0.62821700  0.90483000  1
  H  H15  1  0.40523600  0.12821700  0.59517000  1
  H  H16  1  0.34482500  0.64705900  0.90447300  1
  H  H17  1  0.65517500  0.14705900  0.59552700  1
  H  H18  1  0.65517500  0.35294100  0.09552700  1
  H  H19  1  0.34482500  0.85294100  0.40447300  1
  Br  Br20  1  0.16031100  0.60711500  0.29054600  1
  Br  Br21  1  0.83968900  0.10711500  0.20945400  1
  Br  Br22  1  0.83968900  0.39288500  0.70945400  1
  Br  Br23  1  0.16031100  0.89288500  0.79054600  1
  N  N24  1  0.53340800  0.45043000  0.08550800  1
  N  N25  1  0.46659200  0.95043000  0.41449200  1
  N  N26  1  0.53340800  0.04957000  0.58550800  1
  N  N27  1  0.46659200  0.54957000  0.91449200  1
  O  O28  1  0.72935900  0.82273300  0.87755000  1
  O  O29  1  0.27064100  0.17726700  0.12245000  1
  O  O30  1  0.27064100  0.32273300  0.62245000  1
  O  O31  1  0.72935900  0.67726700  0.37755000  1
