# generated using pymatgen
data_PRhO4
_symmetry_space_group_name_H-M   'P 1'
_cell_length_a   6.47758800
_cell_length_b   10.56281000
_cell_length_c   13.32724200
_cell_angle_alpha   90.00000000
_cell_angle_beta   90.00000000
_cell_angle_gamma   90.00000000
_symmetry_Int_Tables_number   1
_chemical_formula_structural   PRhO4
_chemical_formula_sum   'P12 Rh12 O48'
_cell_volume   911.87030568
_cell_formula_units_Z   12
loop_
 _symmetry_equiv_pos_site_id
 _symmetry_equiv_pos_as_xyz
  1  'x, y, z'
loop_
 _atom_site_type_symbol
 _atom_site_label
 _atom_site_symmetry_multiplicity
 _atom_site_fract_x
 _atom_site_fract_y
 _atom_site_fract_z
 _atom_site_occupancy
  P  P0  1  0.75000000  0.75000000  0.07575600  1
  P  P1  1  0.25000000  0.75000000  0.92424400  1
  P  P2  1  0.25000000  0.25000000  0.92424400  1
  P  P3  1  0.75000000  0.25000000  0.07575600  1
  P  P4  1  0.58078700  0.50000000  0.75000000  1
  P  P5  1  0.41921300  0.50000000  0.25000000  1
  P  P6  1  0.25000000  0.25000000  0.57575600  1
  P  P7  1  0.75000000  0.25000000  0.42424400  1
  P  P8  1  0.75000000  0.75000000  0.42424400  1
  P  P9  1  0.25000000  0.75000000  0.57575600  1
  P  P10  1  0.08078700  0.00000000  0.25000000  1
  P  P11  1  0.91921300  0.00000000  0.75000000  1
  Rh  Rh12  1  0.25000000  0.75000000  0.13102700  1
  Rh  Rh13  1  0.75000000  0.75000000  0.86897300  1
  Rh  Rh14  1  0.75000000  0.25000000  0.86897300  1
  Rh  Rh15  1  0.25000000  0.25000000  0.13102700  1
  Rh  Rh16  1  0.50000000  0.50000000  0.00000000  1
  Rh  Rh17  1  0.00000000  0.00000000  0.00000000  1
  Rh  Rh18  1  0.75000000  0.25000000  0.63102700  1
  Rh  Rh19  1  0.25000000  0.25000000  0.36897300  1
  Rh  Rh20  1  0.25000000  0.75000000  0.36897300  1
  Rh  Rh21  1  0.75000000  0.75000000  0.63102700  1
  Rh  Rh22  1  0.00000000  0.00000000  0.50000000  1
  Rh  Rh23  1  0.50000000  0.50000000  0.50000000  1
  O  O24  1  0.77658950  0.86271950  0.99329450  1
  O  O25  1  0.27658950  0.63728050  0.00670550  1
  O  O26  1  0.22341050  0.86271950  0.00670550  1
  O  O27  1  0.72341050  0.63728050  0.99329450  1
  O  O28  1  0.22341050  0.13728050  0.00670550  1
  O  O29  1  0.72341050  0.36271950  0.99329450  1
  O  O30  1  0.77658950  0.13728050  0.99329450  1
  O  O31  1  0.27658950  0.36271950  0.00670550  1
  O  O32  1  0.43858200  0.22382800  0.86125900  1
  O  O33  1  0.93858200  0.27617200  0.13874100  1
  O  O34  1  0.56141800  0.22382800  0.13874100  1
  O  O35  1  0.06141800  0.27617200  0.86125900  1
  O  O36  1  0.54849900  0.50000000  0.34596200  1
  O  O37  1  0.54849900  0.50000000  0.15403800  1
  O  O38  1  0.45150100  0.50000000  0.65403800  1
  O  O39  1  0.45150100  0.50000000  0.84596200  1
  O  O40  1  0.72692800  0.62182700  0.75000000  1
  O  O41  1  0.72692800  0.37817300  0.75000000  1
  O  O42  1  0.27307200  0.62182700  0.25000000  1
  O  O43  1  0.27307200  0.37817300  0.25000000  1
  O  O44  1  0.93858200  0.72382800  0.13874100  1
  O  O45  1  0.43858200  0.77617200  0.86125900  1
  O  O46  1  0.06141800  0.72382800  0.86125900  1
  O  O47  1  0.56141800  0.77617200  0.13874100  1
  O  O48  1  0.27658950  0.36271950  0.49329450  1
  O  O49  1  0.77658950  0.13728050  0.50670550  1
  O  O50  1  0.72341050  0.36271950  0.50670550  1
  O  O51  1  0.22341050  0.13728050  0.49329450  1
  O  O52  1  0.72341050  0.63728050  0.50670550  1
  O  O53  1  0.22341050  0.86271950  0.49329450  1
  O  O54  1  0.27658950  0.63728050  0.49329450  1
  O  O55  1  0.77658950  0.86271950  0.50670550  1
  O  O56  1  0.93858200  0.72382800  0.36125900  1
  O  O57  1  0.43858200  0.77617200  0.63874100  1
  O  O58  1  0.06141800  0.72382800  0.63874100  1
  O  O59  1  0.56141800  0.77617200  0.36125900  1
  O  O60  1  0.04849900  0.00000000  0.84596200  1
  O  O61  1  0.04849900  0.00000000  0.65403800  1
  O  O62  1  0.95150100  0.00000000  0.15403800  1
  O  O63  1  0.95150100  0.00000000  0.34596200  1
  O  O64  1  0.22692800  0.12182700  0.25000000  1
  O  O65  1  0.22692800  0.87817300  0.25000000  1
  O  O66  1  0.77307200  0.12182700  0.75000000  1
  O  O67  1  0.77307200  0.87817300  0.75000000  1
  O  O68  1  0.43858200  0.22382800  0.63874100  1
  O  O69  1  0.93858200  0.27617200  0.36125900  1
  O  O70  1  0.56141800  0.22382800  0.36125900  1
  O  O71  1  0.06141800  0.27617200  0.63874100  1
