# generated using pymatgen
data_PtPbF6
_symmetry_space_group_name_H-M   'P 1'
_cell_length_a   7.44035818
_cell_length_b   7.44035818
_cell_length_c   7.18404526
_cell_angle_alpha   90.00000000
_cell_angle_beta   90.00000000
_cell_angle_gamma   120.00000000
_symmetry_Int_Tables_number   1
_chemical_formula_structural   PtPbF6
_chemical_formula_sum   'Pt3 Pb3 F18'
_cell_volume   344.41921898
_cell_formula_units_Z   3
loop_
 _symmetry_equiv_pos_site_id
 _symmetry_equiv_pos_as_xyz
  1  'x, y, z'
loop_
 _atom_site_type_symbol
 _atom_site_label
 _atom_site_symmetry_multiplicity
 _atom_site_fract_x
 _atom_site_fract_y
 _atom_site_fract_z
 _atom_site_occupancy
  Pt  Pt0  1  0.00000000  0.00000000  0.00000000  1
  Pt  Pt1  1  0.66666667  0.33333333  0.33333333  1
  Pt  Pt2  1  0.33333333  0.66666667  0.66666667  1
  Pb  Pb3  1  0.00000000  0.00000000  0.50000000  1
  Pb  Pb4  1  0.66666667  0.33333333  0.83333333  1
  Pb  Pb5  1  0.33333333  0.66666667  0.16666667  1
  F  F6  1  0.21557567  0.78442433  0.49103633  1
  F  F7  1  0.21557567  0.43115133  0.49103633  1
  F  F8  1  0.78442433  0.56884867  0.50896367  1
  F  F9  1  0.78442433  0.21557567  0.50896367  1
  F  F10  1  0.43115133  0.21557567  0.50896367  1
  F  F11  1  0.56884867  0.78442433  0.49103633  1
  F  F12  1  0.88224233  0.11775767  0.82436967  1
  F  F13  1  0.88224233  0.76448467  0.82436967  1
  F  F14  1  0.45109100  0.90218200  0.84229700  1
  F  F15  1  0.45109100  0.54890900  0.84229700  1
  F  F16  1  0.09781800  0.54890900  0.84229700  1
  F  F17  1  0.23551533  0.11775767  0.82436967  1
  F  F18  1  0.54890900  0.45109100  0.15770300  1
  F  F19  1  0.54890900  0.09781800  0.15770300  1
  F  F20  1  0.11775767  0.23551533  0.17563033  1
  F  F21  1  0.11775767  0.88224233  0.17563033  1
  F  F22  1  0.76448467  0.88224233  0.17563033  1
  F  F23  1  0.90218200  0.45109100  0.15770300  1
