# generated using pymatgen
data_H12OsN5Cl3O
_symmetry_space_group_name_H-M   'P 1'
_cell_length_a   7.62919800
_cell_length_b   7.62919800
_cell_length_c   8.66085200
_cell_angle_alpha   90.00000000
_cell_angle_beta   90.00000000
_cell_angle_gamma   90.00000000
_symmetry_Int_Tables_number   1
_chemical_formula_structural   H12OsN5Cl3O
_chemical_formula_sum   'H24 Os2 N10 Cl6 O2'
_cell_volume   504.10196436
_cell_formula_units_Z   2
loop_
 _symmetry_equiv_pos_site_id
 _symmetry_equiv_pos_as_xyz
  1  'x, y, z'
loop_
 _atom_site_type_symbol
 _atom_site_label
 _atom_site_symmetry_multiplicity
 _atom_site_fract_x
 _atom_site_fract_y
 _atom_site_fract_z
 _atom_site_occupancy
  H  H0  1  0.22541650  0.22541650  0.90615150  1
  H  H1  1  0.27458350  0.72541650  0.40615150  1
  H  H2  1  0.72541650  0.27458350  0.40615150  1
  H  H3  1  0.27458350  0.27458350  0.40615150  1
  H  H4  1  0.34290250  0.18724750  0.57272250  1
  H  H5  1  0.15709750  0.31275250  0.07272250  1
  H  H6  1  0.68724750  0.15709750  0.07272250  1
  H  H7  1  0.81275250  0.34290250  0.57272250  1
  H  H8  1  0.18724750  0.34290250  0.57272250  1
  H  H9  1  0.15709750  0.68724750  0.07272250  1
  H  H10  1  0.31275250  0.15709750  0.07272250  1
  H  H11  1  0.34290250  0.81275250  0.57272250  1
  H  H12  1  0.72541650  0.72541650  0.40615150  1
  H  H13  1  0.77458350  0.22541650  0.90615150  1
  H  H14  1  0.22541650  0.77458350  0.90615150  1
  H  H15  1  0.77458350  0.77458350  0.90615150  1
  H  H16  1  0.84290250  0.68724750  0.07272250  1
  H  H17  1  0.65709750  0.81275250  0.57272250  1
  H  H18  1  0.18724750  0.65709750  0.57272250  1
  H  H19  1  0.31275250  0.84290250  0.07272250  1
  H  H20  1  0.68724750  0.84290250  0.07272250  1
  H  H21  1  0.65709750  0.18724750  0.57272250  1
  H  H22  1  0.81275250  0.65709750  0.57272250  1
  H  H23  1  0.84290250  0.31275250  0.07272250  1
  Os  Os24  1  0.00000000  0.00000000  0.03208700  1
  Os  Os25  1  0.50000000  0.50000000  0.53208700  1
  N  N26  1  0.00000000  0.00000000  0.23419200  1
  N  N27  1  0.30179000  0.30179000  0.51948200  1
  N  N28  1  0.69821000  0.30179000  0.51948200  1
  N  N29  1  0.30179000  0.69821000  0.51948200  1
  N  N30  1  0.19821000  0.19821000  0.01948200  1
  N  N31  1  0.50000000  0.50000000  0.73419200  1
  N  N32  1  0.80179000  0.80179000  0.01948200  1
  N  N33  1  0.19821000  0.80179000  0.01948200  1
  N  N34  1  0.80179000  0.19821000  0.01948200  1
  N  N35  1  0.69821000  0.69821000  0.51948200  1
  Cl  Cl36  1  0.00000000  0.50000000  0.23041700  1
  Cl  Cl37  1  0.50000000  0.00000000  0.23041700  1
  Cl  Cl38  1  0.00000000  0.00000000  0.76256100  1
  Cl  Cl39  1  0.50000000  0.00000000  0.73041700  1
  Cl  Cl40  1  0.00000000  0.50000000  0.73041700  1
  Cl  Cl41  1  0.50000000  0.50000000  0.26256100  1
  O  O42  1  0.00000000  0.00000000  0.37080900  1
  O  O43  1  0.50000000  0.50000000  0.87080900  1
