# generated using pymatgen
data_In2O3
_symmetry_space_group_name_H-M   'P 1'
_cell_length_a   5.58561033
_cell_length_b   5.58561033
_cell_length_c   14.74820835
_cell_angle_alpha   90.00000000
_cell_angle_beta   90.00000000
_cell_angle_gamma   120.00000000
_symmetry_Int_Tables_number   1
_chemical_formula_structural   In2O3
_chemical_formula_sum   'In12 O18'
_cell_volume   398.48425417
_cell_formula_units_Z   6
loop_
 _symmetry_equiv_pos_site_id
 _symmetry_equiv_pos_as_xyz
  1  'x, y, z'
loop_
 _atom_site_type_symbol
 _atom_site_label
 _atom_site_symmetry_multiplicity
 _atom_site_fract_x
 _atom_site_fract_y
 _atom_site_fract_z
 _atom_site_occupancy
  In  In0  1  0.66666667  0.33333333  0.19054833  1
  In  In1  1  0.33333333  0.66666667  0.30945167  1
  In  In2  1  0.33333333  0.66666667  0.02388167  1
  In  In3  1  0.00000000  0.00000000  0.14278500  1
  In  In4  1  0.33333333  0.66666667  0.52388167  1
  In  In5  1  0.00000000  0.00000000  0.64278500  1
  In  In6  1  0.00000000  0.00000000  0.35721500  1
  In  In7  1  0.66666667  0.33333333  0.47611833  1
  In  In8  1  0.00000000  0.00000000  0.85721500  1
  In  In9  1  0.66666667  0.33333333  0.97611833  1
  In  In10  1  0.66666667  0.33333333  0.69054833  1
  In  In11  1  0.33333333  0.66666667  0.80945167  1
  O  O12  1  0.36994567  0.03661233  0.08333333  1
  O  O13  1  0.70327900  1.00000000  0.25000000  1
  O  O14  1  0.00000000  0.70327900  0.25000000  1
  O  O15  1  0.66666667  0.63005433  0.08333333  1
  O  O16  1  0.29672100  0.29672100  0.25000000  1
  O  O17  1  0.96338767  0.33333333  0.08333333  1
  O  O18  1  0.03661233  0.36994567  0.41666667  1
  O  O19  1  0.36994567  0.33333333  0.58333333  1
  O  O20  1  0.66666667  0.03661233  0.58333333  1
  O  O21  1  0.33333333  0.96338767  0.41666667  1
  O  O22  1  0.96338767  0.63005433  0.58333333  1
  O  O23  1  0.63005433  0.66666667  0.41666667  1
  O  O24  1  0.70327900  0.70327900  0.75000000  1
  O  O25  1  0.03661233  0.66666667  0.91666667  1
  O  O26  1  0.33333333  0.36994567  0.91666667  1
  O  O27  1  0.00000000  0.29672100  0.75000000  1
  O  O28  1  0.63005433  0.96338767  0.91666667  1
  O  O29  1  0.29672100  0.00000000  0.75000000  1
