# generated using pymatgen
data_Er2O3
_symmetry_space_group_name_H-M   'P 1'
_cell_length_a   13.94745200
_cell_length_b   3.46044400
_cell_length_c   8.56523456
_cell_angle_alpha   90.00000000
_cell_angle_beta   100.37872138
_cell_angle_gamma   90.00000000
_symmetry_Int_Tables_number   1
_chemical_formula_structural   Er2O3
_chemical_formula_sum   'Er12 O18'
_cell_volume   406.63190961
_cell_formula_units_Z   6
loop_
 _symmetry_equiv_pos_site_id
 _symmetry_equiv_pos_as_xyz
  1  'x, y, z'
loop_
 _atom_site_type_symbol
 _atom_site_label
 _atom_site_symmetry_multiplicity
 _atom_site_fract_x
 _atom_site_fract_y
 _atom_site_fract_z
 _atom_site_occupancy
  Er  Er0  1  0.96791100  0.50000000  0.18596800  1
  Er  Er1  1  0.53208900  0.00000000  0.81403200  1
  Er  Er2  1  0.69139600  0.50000000  0.13717300  1
  Er  Er3  1  0.80860400  0.00000000  0.86282700  1
  Er  Er4  1  0.63514800  0.50000000  0.48763200  1
  Er  Er5  1  0.86485200  0.00000000  0.51236800  1
  Er  Er6  1  0.46791100  0.00000000  0.18596800  1
  Er  Er7  1  0.03208900  0.50000000  0.81403200  1
  Er  Er8  1  0.19139600  0.00000000  0.13717300  1
  Er  Er9  1  0.30860400  0.50000000  0.86282700  1
  Er  Er10  1  0.13514800  0.00000000  0.48763200  1
  Er  Er11  1  0.36485200  0.50000000  0.51236800  1
  O  O12  1  0.79304800  0.50000000  0.37739500  1
  O  O13  1  0.70695200  0.00000000  0.62260500  1
  O  O14  1  0.52966300  0.50000000  0.65708400  1
  O  O15  1  0.97033700  0.00000000  0.34291600  1
  O  O16  1  0.82544700  0.50000000  0.03097800  1
  O  O17  1  0.67455300  0.00000000  0.96902200  1
  O  O18  1  0.00000000  0.00000000  0.00000000  1
  O  O19  1  0.62761300  0.00000000  0.28150200  1
  O  O20  1  0.87238700  0.50000000  0.71849800  1
  O  O21  1  0.29304800  0.00000000  0.37739500  1
  O  O22  1  0.20695200  0.50000000  0.62260500  1
  O  O23  1  0.02966300  0.00000000  0.65708400  1
  O  O24  1  0.47033700  0.50000000  0.34291600  1
  O  O25  1  0.32544700  0.00000000  0.03097800  1
  O  O26  1  0.17455300  0.50000000  0.96902200  1
  O  O27  1  0.50000000  0.50000000  0.00000000  1
  O  O28  1  0.12761300  0.50000000  0.28150200  1
  O  O29  1  0.37238700  0.00000000  0.71849800  1
