# generated using pymatgen
data_CuPO4
_symmetry_space_group_name_H-M   'P 1'
_cell_length_a   5.45960000
_cell_length_b   9.57555800
_cell_length_c   10.85098200
_cell_angle_alpha   90.00000000
_cell_angle_beta   90.00000000
_cell_angle_gamma   90.00000000
_symmetry_Int_Tables_number   1
_chemical_formula_structural   CuPO4
_chemical_formula_sum   'Cu8 P8 O32'
_cell_volume   567.27541126
_cell_formula_units_Z   8
loop_
 _symmetry_equiv_pos_site_id
 _symmetry_equiv_pos_as_xyz
  1  'x, y, z'
loop_
 _atom_site_type_symbol
 _atom_site_label
 _atom_site_symmetry_multiplicity
 _atom_site_fract_x
 _atom_site_fract_y
 _atom_site_fract_z
 _atom_site_occupancy
  Cu  Cu0  1  0.50000000  0.52600600  0.00000000  1
  Cu  Cu1  1  0.25000000  0.77600600  0.75000000  1
  Cu  Cu2  1  0.50000000  0.02600600  0.50000000  1
  Cu  Cu3  1  0.25000000  0.27600600  0.25000000  1
  Cu  Cu4  1  0.00000000  0.02600600  0.00000000  1
  Cu  Cu5  1  0.75000000  0.27600600  0.75000000  1
  Cu  Cu6  1  0.00000000  0.52600600  0.50000000  1
  Cu  Cu7  1  0.75000000  0.77600600  0.25000000  1
  P  P8  1  0.50000000  0.88923400  0.00000000  1
  P  P9  1  0.75000000  0.63923400  0.75000000  1
  P  P10  1  0.50000000  0.38923400  0.50000000  1
  P  P11  1  0.75000000  0.13923400  0.25000000  1
  P  P12  1  0.00000000  0.38923400  0.00000000  1
  P  P13  1  0.25000000  0.13923400  0.75000000  1
  P  P14  1  0.00000000  0.88923400  0.50000000  1
  P  P15  1  0.25000000  0.63923400  0.25000000  1
  O  O16  1  0.36948200  0.53227750  0.15922350  1
  O  O17  1  0.30786250  0.98018250  0.06813800  1
  O  O18  1  0.69213750  0.98018250  0.93186200  1
  O  O19  1  0.94213750  0.73018250  0.81813800  1
  O  O20  1  0.05786250  0.73018250  0.18186200  1
  O  O21  1  0.61948200  0.78227750  0.09077650  1
  O  O22  1  0.63051800  0.53227750  0.84077650  1
  O  O23  1  0.38051800  0.78227750  0.90922350  1
  O  O24  1  0.36948200  0.03227750  0.65922350  1
  O  O25  1  0.30786250  0.48018250  0.56813800  1
  O  O26  1  0.69213750  0.48018250  0.43186200  1
  O  O27  1  0.94213750  0.23018250  0.31813800  1
  O  O28  1  0.05786250  0.23018250  0.68186200  1
  O  O29  1  0.61948200  0.28227750  0.59077650  1
  O  O30  1  0.63051800  0.03227750  0.34077650  1
  O  O31  1  0.38051800  0.28227750  0.40922350  1
  O  O32  1  0.86948200  0.03227750  0.15922350  1
  O  O33  1  0.80786250  0.48018250  0.06813800  1
  O  O34  1  0.19213750  0.48018250  0.93186200  1
  O  O35  1  0.44213750  0.23018250  0.81813800  1
  O  O36  1  0.55786250  0.23018250  0.18186200  1
  O  O37  1  0.11948200  0.28227750  0.09077650  1
  O  O38  1  0.13051800  0.03227750  0.84077650  1
  O  O39  1  0.88051800  0.28227750  0.90922350  1
  O  O40  1  0.86948200  0.53227750  0.65922350  1
  O  O41  1  0.80786250  0.98018250  0.56813800  1
  O  O42  1  0.19213750  0.98018250  0.43186200  1
  O  O43  1  0.44213750  0.73018250  0.31813800  1
  O  O44  1  0.55786250  0.73018250  0.68186200  1
  O  O45  1  0.11948200  0.78227750  0.59077650  1
  O  O46  1  0.13051800  0.53227750  0.34077650  1
  O  O47  1  0.88051800  0.78227750  0.40922350  1
