# generated using pymatgen
data_Bi7RhBr8
_symmetry_space_group_name_H-M   'P 1'
_cell_length_a   9.49126700
_cell_length_b   15.43339600
_cell_length_c   18.93311829
_cell_angle_alpha   90.00000000
_cell_angle_beta   117.90556272
_cell_angle_gamma   90.00000000
_symmetry_Int_Tables_number   1
_chemical_formula_structural   Bi7RhBr8
_chemical_formula_sum   'Bi28 Rh4 Br32'
_cell_volume   2450.88322225
_cell_formula_units_Z   4
loop_
 _symmetry_equiv_pos_site_id
 _symmetry_equiv_pos_as_xyz
  1  'x, y, z'
loop_
 _atom_site_type_symbol
 _atom_site_label
 _atom_site_symmetry_multiplicity
 _atom_site_fract_x
 _atom_site_fract_y
 _atom_site_fract_z
 _atom_site_occupancy
  Bi  Bi0  1  0.31360000  0.06245200  0.36112800  1
  Bi  Bi1  1  0.37066600  0.71395300  0.15247200  1
  Bi  Bi2  1  0.37066600  0.78604700  0.65247200  1
  Bi  Bi3  1  0.62933400  0.28604700  0.84752800  1
  Bi  Bi4  1  0.03814300  0.26352300  0.32898500  1
  Bi  Bi5  1  0.96185700  0.76352300  0.17101500  1
  Bi  Bi6  1  0.96185700  0.73647700  0.67101500  1
  Bi  Bi7  1  0.03814300  0.23647700  0.82898500  1
  Bi  Bi8  1  0.45398700  0.20502000  0.49904800  1
  Bi  Bi9  1  0.54601300  0.70502000  0.00095200  1
  Bi  Bi10  1  0.54601300  0.79498000  0.50095200  1
  Bi  Bi11  1  0.45398700  0.29498000  0.99904800  1
  Bi  Bi12  1  0.62933400  0.21395300  0.34752800  1
  Bi  Bi13  1  0.68640000  0.56245200  0.13887200  1
  Bi  Bi14  1  0.68640000  0.93754800  0.63887200  1
  Bi  Bi15  1  0.31360000  0.43754800  0.86112800  1
  Bi  Bi16  1  0.19765600  0.15923400  0.19093200  1
  Bi  Bi17  1  0.80234400  0.65923400  0.30906800  1
  Bi  Bi18  1  0.80234400  0.84076600  0.80906800  1
  Bi  Bi19  1  0.19765600  0.34076600  0.69093200  1
  Bi  Bi20  1  0.26429400  0.36030000  0.22224200  1
  Bi  Bi21  1  0.73570600  0.86030000  0.27775800  1
  Bi  Bi22  1  0.73570600  0.63970000  0.77775800  1
  Bi  Bi23  1  0.26429400  0.13970000  0.72224200  1
  Bi  Bi24  1  0.43479000  0.39042100  0.41775400  1
  Bi  Bi25  1  0.56521000  0.89042100  0.08224600  1
  Bi  Bi26  1  0.56521000  0.60957900  0.58224600  1
  Bi  Bi27  1  0.43479000  0.10957900  0.91775400  1
  Rh  Rh28  1  0.33385900  0.23661600  0.33848500  1
  Rh  Rh29  1  0.66614100  0.73661600  0.16151500  1
  Rh  Rh30  1  0.66614100  0.76338400  0.66151500  1
  Rh  Rh31  1  0.33385900  0.26338400  0.83848500  1
  Br  Br32  1  0.67605400  0.05252200  0.43602800  1
  Br  Br33  1  0.32394600  0.55252200  0.06397200  1
  Br  Br34  1  0.32394600  0.94747800  0.56397200  1
  Br  Br35  1  0.67605400  0.44747800  0.93602800  1
  Br  Br36  1  0.47889600  0.11080800  0.18789900  1
  Br  Br37  1  0.52110400  0.61080800  0.31210100  1
  Br  Br38  1  0.52110400  0.88919200  0.81210100  1
  Br  Br39  1  0.47889600  0.38919200  0.68789900  1
  Br  Br40  1  0.57351300  0.36126000  0.23180400  1
  Br  Br41  1  0.42648700  0.86126000  0.26819600  1
  Br  Br42  1  0.42648700  0.63874000  0.76819600  1
  Br  Br43  1  0.57351300  0.13874000  0.73180400  1
  Br  Br44  1  0.77746500  0.34112700  0.47091000  1
  Br  Br45  1  0.22253500  0.84112700  0.02909000  1
  Br  Br46  1  0.22253500  0.65887300  0.52909000  1
  Br  Br47  1  0.11981700  0.06034100  0.89486900  1
  Br  Br48  1  0.16956700  0.21577000  0.50776500  1
  Br  Br49  1  0.83043300  0.71577000  0.99223500  1
  Br  Br50  1  0.83043300  0.78423000  0.49223500  1
  Br  Br51  1  0.16956700  0.28423000  0.00776500  1
  Br  Br52  1  0.96964400  0.07494800  0.30615900  1
  Br  Br53  1  0.03035600  0.57494800  0.19384100  1
  Br  Br54  1  0.03035600  0.92505200  0.69384100  1
  Br  Br55  1  0.96964400  0.42505200  0.80615900  1
  Br  Br56  1  0.90323900  0.31437500  0.16400500  1
  Br  Br57  1  0.09676100  0.81437500  0.33599500  1
  Br  Br58  1  0.09676100  0.68562500  0.83599500  1
  Br  Br59  1  0.90323900  0.18562500  0.66400500  1
  Br  Br60  1  0.11981700  0.43965900  0.39486900  1
  Br  Br61  1  0.88018300  0.93965900  0.10513100  1
  Br  Br62  1  0.88018300  0.56034100  0.60513100  1
  Br  Br63  1  0.77746500  0.15887300  0.97091000  1
