# generated using pymatgen
data_Ti3(BiO3)4
_symmetry_space_group_name_H-M   'P 1'
_cell_length_a   5.53592600
_cell_length_b   33.41571200
_cell_length_c   5.47042500
_cell_angle_alpha   90.00000000
_cell_angle_beta   90.00000000
_cell_angle_gamma   90.00000000
_symmetry_Int_Tables_number   1
_chemical_formula_structural   Ti3(BiO3)4
_chemical_formula_sum   'Ti12 Bi16 O48'
_cell_volume   1011.95701095
_cell_formula_units_Z   4
loop_
 _symmetry_equiv_pos_site_id
 _symmetry_equiv_pos_as_xyz
  1  'x, y, z'
loop_
 _atom_site_type_symbol
 _atom_site_label
 _atom_site_symmetry_multiplicity
 _atom_site_fract_x
 _atom_site_fract_y
 _atom_site_fract_z
 _atom_site_occupancy
  Ti  Ti0  1  0.04569450  0.12720850  0.49663700  1
  Ti  Ti1  1  0.54569450  0.37279150  0.50336300  1
  Ti  Ti2  1  0.54569450  0.12720850  0.00336300  1
  Ti  Ti3  1  0.04569450  0.37279150  0.99663700  1
  Ti  Ti4  1  0.03888500  0.00000000  0.50000000  1
  Ti  Ti5  1  0.53888500  0.00000000  0.00000000  1
  Ti  Ti6  1  0.54569450  0.62720850  0.49663700  1
  Ti  Ti7  1  0.04569450  0.87279150  0.50336300  1
  Ti  Ti8  1  0.04569450  0.62720850  0.00336300  1
  Ti  Ti9  1  0.54569450  0.87279150  0.99663700  1
  Ti  Ti10  1  0.53888500  0.50000000  0.50000000  1
  Ti  Ti11  1  0.03888500  0.50000000  0.00000000  1
  Bi  Bi12  1  0.96868750  0.21149250  0.97480700  1
  Bi  Bi13  1  0.46868750  0.28850750  0.02519300  1
  Bi  Bi14  1  0.46868750  0.21149250  0.52519300  1
  Bi  Bi15  1  0.96868750  0.28850750  0.47480700  1
  Bi  Bi16  1  0.99685150  0.06597050  0.99695200  1
  Bi  Bi17  1  0.49685150  0.43402950  0.00304800  1
  Bi  Bi18  1  0.49685150  0.06597050  0.50304800  1
  Bi  Bi19  1  0.99685150  0.43402950  0.49695200  1
  Bi  Bi20  1  0.46868750  0.71149250  0.97480700  1
  Bi  Bi21  1  0.96868750  0.78850750  0.02519300  1
  Bi  Bi22  1  0.96868750  0.71149250  0.52519300  1
  Bi  Bi23  1  0.46868750  0.78850750  0.47480700  1
  Bi  Bi24  1  0.49685150  0.56597050  0.99695200  1
  Bi  Bi25  1  0.99685150  0.93402950  0.00304800  1
  Bi  Bi26  1  0.99685150  0.56597050  0.50304800  1
  Bi  Bi27  1  0.49685150  0.93402950  0.49695200  1
  O  O28  1  0.35909500  0.12390300  0.29656300  1
  O  O29  1  0.85909500  0.37609700  0.70343700  1
  O  O30  1  0.85909500  0.12390300  0.20343700  1
  O  O31  1  0.35909500  0.37609700  0.79656300  1
  O  O32  1  0.29295600  0.10914700  0.77672500  1
  O  O33  1  0.79295600  0.39085300  0.22327500  1
  O  O34  1  0.79295600  0.10914700  0.72327500  1
  O  O35  1  0.29295600  0.39085300  0.27672500  1
  O  O36  1  0.05515000  0.17929800  0.56421600  1
  O  O37  1  0.55515000  0.32070200  0.43578400  1
  O  O38  1  0.55515000  0.17929800  0.93578400  1
  O  O39  1  0.05515000  0.32070200  0.06421600  1
  O  O40  1  0.09142400  0.05792900  0.42349400  1
  O  O41  1  0.59142400  0.44207100  0.57650600  1
  O  O42  1  0.32486950  0.48979650  0.24709900  1
  O  O43  1  0.82486950  0.01020350  0.75290100  1
  O  O44  1  0.82486950  0.48979650  0.25290100  1
  O  O45  1  0.32486950  0.01020350  0.74709900  1
  O  O46  1  0.74272950  0.24920350  0.24112600  1
  O  O47  1  0.24272950  0.25079650  0.75887400  1
  O  O48  1  0.24272950  0.24920350  0.25887400  1
  O  O49  1  0.74272950  0.25079650  0.74112600  1
  O  O50  1  0.09142400  0.44207100  0.92349400  1
  O  O51  1  0.59142400  0.05792900  0.07650600  1
  O  O52  1  0.85909500  0.62390300  0.29656300  1
  O  O53  1  0.35909500  0.87609700  0.70343700  1
  O  O54  1  0.35909500  0.62390300  0.20343700  1
  O  O55  1  0.85909500  0.87609700  0.79656300  1
  O  O56  1  0.79295600  0.60914700  0.77672500  1
  O  O57  1  0.29295600  0.89085300  0.22327500  1
  O  O58  1  0.29295600  0.60914700  0.72327500  1
  O  O59  1  0.79295600  0.89085300  0.27672500  1
  O  O60  1  0.55515000  0.67929800  0.56421600  1
  O  O61  1  0.05515000  0.82070200  0.43578400  1
  O  O62  1  0.05515000  0.67929800  0.93578400  1
  O  O63  1  0.55515000  0.82070200  0.06421600  1
  O  O64  1  0.59142400  0.55792900  0.42349400  1
  O  O65  1  0.09142400  0.94207100  0.57650600  1
  O  O66  1  0.82486950  0.98979650  0.24709900  1
  O  O67  1  0.32486950  0.51020350  0.75290100  1
  O  O68  1  0.32486950  0.98979650  0.25290100  1
  O  O69  1  0.82486950  0.51020350  0.74709900  1
  O  O70  1  0.24272950  0.74920350  0.24112600  1
  O  O71  1  0.74272950  0.75079650  0.75887400  1
  O  O72  1  0.74272950  0.74920350  0.25887400  1
  O  O73  1  0.24272950  0.75079650  0.74112600  1
  O  O74  1  0.59142400  0.94207100  0.92349400  1
  O  O75  1  0.09142400  0.55792900  0.07650600  1
