# generated using pymatgen
data_Nb2Se4O13
_symmetry_space_group_name_H-M   'P 1'
_cell_length_a   7.75754200
_cell_length_b   6.89968300
_cell_length_c   11.69262319
_cell_angle_alpha   90.00000000
_cell_angle_beta   109.17605665
_cell_angle_gamma   90.00000000
_symmetry_Int_Tables_number   1
_chemical_formula_structural   Nb2Se4O13
_chemical_formula_sum   'Nb4 Se8 O26'
_cell_volume   591.11706544
_cell_formula_units_Z   2
loop_
 _symmetry_equiv_pos_site_id
 _symmetry_equiv_pos_as_xyz
  1  'x, y, z'
loop_
 _atom_site_type_symbol
 _atom_site_label
 _atom_site_symmetry_multiplicity
 _atom_site_fract_x
 _atom_site_fract_y
 _atom_site_fract_z
 _atom_site_occupancy
  Nb  Nb0  1  0.05873400  0.49289700  0.39663800  1
  Nb  Nb1  1  0.55873400  0.50710300  0.39663800  1
  Nb  Nb2  1  0.17416600  0.00438800  0.04815500  1
  Nb  Nb3  1  0.67416600  0.99561200  0.04815500  1
  Se  Se4  1  0.10776700  0.51448500  0.70729100  1
  Se  Se5  1  0.60776700  0.48551500  0.70729100  1
  Se  Se6  1  0.95231400  0.07169600  0.72267600  1
  Se  Se7  1  0.45231400  0.92830400  0.72267600  1
  Se  Se8  1  0.32386700  0.06317800  0.38240700  1
  Se  Se9  1  0.82386700  0.93682200  0.38240700  1
  Se  Se10  1  0.41179300  0.56216300  0.06138200  1
  Se  Se11  1  0.91179300  0.43783700  0.06138200  1
  O  O12  1  0.50001600  0.09876200  0.63790400  1
  O  O13  1  0.00001600  0.90123800  0.63790400  1
  O  O14  1  0.30033700  0.57904300  0.81254700  1
  O  O15  1  0.80033700  0.42095700  0.81254700  1
  O  O16  1  0.13461200  0.24503200  0.72277100  1
  O  O17  1  0.63461200  0.75496800  0.72277100  1
  O  O18  1  0.33654900  0.57761000  0.40232000  1
  O  O19  1  0.83654900  0.42239000  0.40232000  1
  O  O20  1  0.17729800  0.52470300  0.57667700  1
  O  O21  1  0.67729800  0.47529700  0.57667700  1
  O  O22  1  0.16054000  0.21643900  0.40462900  1
  O  O23  1  0.66054000  0.78356100  0.40462900  1
  O  O24  1  0.72746300  0.98710700  0.23078300  1
  O  O25  1  0.22746300  0.01289300  0.23078300  1
  O  O26  1  0.73055900  0.28377200  0.05897300  1
  O  O27  1  0.23055900  0.71622800  0.05897300  1
  O  O28  1  0.07612000  0.28405000  0.04241300  1
  O  O29  1  0.57612000  0.71595000  0.04241300  1
  O  O30  1  0.56140700  0.01759200  0.86992700  1
  O  O31  1  0.06140700  0.98240800  0.86992700  1
  O  O32  1  0.90018400  0.92321700  0.05133400  1
  O  O33  1  0.40018400  0.07678300  0.05133400  1
  O  O34  1  0.00227500  0.47979600  0.21533100  1
  O  O35  1  0.50227500  0.52020400  0.21533100  1
  O  O36  1  0.50029900  0.21918300  0.37984100  1
  O  O37  1  0.00029900  0.78081700  0.37984100  1
