# generated using pymatgen
data_CsS
_symmetry_space_group_name_H-M   'P 1'
_cell_length_a   5.28606000
_cell_length_b   7.35482000
_cell_length_c   9.10189600
_cell_angle_alpha   90.00000000
_cell_angle_beta   90.00000000
_cell_angle_gamma   90.00000000
_symmetry_Int_Tables_number   1
_chemical_formula_structural   CsS
_chemical_formula_sum   'Cs4 S4'
_cell_volume   353.86369299
_cell_formula_units_Z   4
loop_
 _symmetry_equiv_pos_site_id
 _symmetry_equiv_pos_as_xyz
  1  'x, y, z'
loop_
 _atom_site_type_symbol
 _atom_site_label
 _atom_site_symmetry_multiplicity
 _atom_site_fract_x
 _atom_site_fract_y
 _atom_site_fract_z
 _atom_site_occupancy
  Cs  Cs0  1  0.00000000  0.50000000  0.27275100  1
  Cs  Cs1  1  0.00000000  0.50000000  0.72724900  1
  Cs  Cs2  1  0.50000000  0.00000000  0.77275100  1
  Cs  Cs3  1  0.50000000  0.00000000  0.22724900  1
  S  S4  1  0.00000000  0.14436300  0.00000000  1
  S  S5  1  0.00000000  0.85563700  0.00000000  1
  S  S6  1  0.50000000  0.64436300  0.50000000  1
  S  S7  1  0.50000000  0.35563700  0.50000000  1
