# generated using pymatgen
data_Cd3(PO4)2
_symmetry_space_group_name_H-M   'P 1'
_cell_length_a   11.60495600
_cell_length_b   15.65493600
_cell_length_c   7.76665200
_cell_angle_alpha   90.00000000
_cell_angle_beta   90.00000000
_cell_angle_gamma   90.00000000
_symmetry_Int_Tables_number   1
_chemical_formula_structural   Cd3(PO4)2
_chemical_formula_sum   'Cd24 P16 O64'
_cell_volume   1411.00528633
_cell_formula_units_Z   8
loop_
 _symmetry_equiv_pos_site_id
 _symmetry_equiv_pos_as_xyz
  1  'x, y, z'
loop_
 _atom_site_type_symbol
 _atom_site_label
 _atom_site_symmetry_multiplicity
 _atom_site_fract_x
 _atom_site_fract_y
 _atom_site_fract_z
 _atom_site_occupancy
  Cd  Cd0  1  0.50000000  0.39189800  0.00000000  1
  Cd  Cd1  1  0.50000000  0.10810200  0.50000000  1
  Cd  Cd2  1  0.50000000  0.60810200  0.00000000  1
  Cd  Cd3  1  0.50000000  0.89189800  0.50000000  1
  Cd  Cd4  1  0.17075750  0.14011850  0.44309300  1
  Cd  Cd5  1  0.32924250  0.85988150  0.94309300  1
  Cd  Cd6  1  0.67075750  0.85988150  0.05690700  1
  Cd  Cd7  1  0.82924250  0.14011850  0.55690700  1
  Cd  Cd8  1  0.82924250  0.85988150  0.55690700  1
  Cd  Cd9  1  0.67075750  0.14011850  0.05690700  1
  Cd  Cd10  1  0.32924250  0.14011850  0.94309300  1
  Cd  Cd11  1  0.17075750  0.85988150  0.44309300  1
  Cd  Cd12  1  0.00000000  0.89189800  0.00000000  1
  Cd  Cd13  1  0.00000000  0.60810200  0.50000000  1
  Cd  Cd14  1  0.00000000  0.10810200  0.00000000  1
  Cd  Cd15  1  0.00000000  0.39189800  0.50000000  1
  Cd  Cd16  1  0.67075750  0.64011850  0.44309300  1
  Cd  Cd17  1  0.82924250  0.35988150  0.94309300  1
  Cd  Cd18  1  0.17075750  0.35988150  0.05690700  1
  Cd  Cd19  1  0.32924250  0.64011850  0.55690700  1
  Cd  Cd20  1  0.32924250  0.35988150  0.55690700  1
  Cd  Cd21  1  0.17075750  0.64011850  0.05690700  1
  Cd  Cd22  1  0.82924250  0.64011850  0.94309300  1
  Cd  Cd23  1  0.67075750  0.35988150  0.44309300  1
  P  P24  1  0.81921700  0.00000000  0.29143300  1
  P  P25  1  0.68078300  0.00000000  0.79143300  1
  P  P26  1  0.31921700  0.00000000  0.20856700  1
  P  P27  1  0.18078300  0.00000000  0.70856700  1
  P  P28  1  0.56316600  0.25000000  0.75000000  1
  P  P29  1  0.43683400  0.25000000  0.25000000  1
  P  P30  1  0.43683400  0.75000000  0.25000000  1
  P  P31  1  0.56316600  0.75000000  0.75000000  1
  P  P32  1  0.31921700  0.50000000  0.29143300  1
  P  P33  1  0.18078300  0.50000000  0.79143300  1
  P  P34  1  0.81921700  0.50000000  0.20856700  1
  P  P35  1  0.68078300  0.50000000  0.70856700  1
  P  P36  1  0.06316600  0.75000000  0.75000000  1
  P  P37  1  0.93683400  0.75000000  0.25000000  1
  P  P38  1  0.93683400  0.25000000  0.25000000  1
  P  P39  1  0.06316600  0.25000000  0.75000000  1
  O  O40  1  0.89829200  0.00000000  0.12669800  1
  O  O41  1  0.60170800  0.00000000  0.62669800  1
  O  O42  1  0.39829200  0.00000000  0.37330200  1
  O  O43  1  0.10170800  0.00000000  0.87330200  1
  O  O44  1  0.88279400  0.00000000  0.46618800  1
  O  O45  1  0.61720600  0.00000000  0.96618800  1
  O  O46  1  0.38279400  0.00000000  0.03381200  1
  O  O47  1  0.11720600  0.00000000  0.53381200  1
  O  O48  1  0.63774350  0.26412850  0.91527800  1
  O  O49  1  0.36225650  0.23587150  0.41527800  1
  O  O50  1  0.63774350  0.23587150  0.58472200  1
  O  O51  1  0.36225650  0.26412850  0.08472200  1
  O  O52  1  0.36225650  0.73587150  0.08472200  1
  O  O53  1  0.63774350  0.76412850  0.58472200  1
  O  O54  1  0.36225650  0.76412850  0.41527800  1
  O  O55  1  0.63774350  0.73587150  0.91527800  1
  O  O56  1  0.48785100  0.33206600  0.73109300  1
  O  O57  1  0.51214900  0.16793400  0.23109300  1
  O  O58  1  0.48785100  0.16793400  0.76890700  1
  O  O59  1  0.51214900  0.33206600  0.26890700  1
  O  O60  1  0.25469000  0.91628600  0.70859500  1
  O  O61  1  0.24531000  0.08371400  0.20859500  1
  O  O62  1  0.75469000  0.08371400  0.79140500  1
  O  O63  1  0.74531000  0.91628600  0.29140500  1
  O  O64  1  0.74531000  0.08371400  0.29140500  1
  O  O65  1  0.75469000  0.91628600  0.79140500  1
  O  O66  1  0.24531000  0.91628600  0.20859500  1
  O  O67  1  0.25469000  0.08371400  0.70859500  1
  O  O68  1  0.48785100  0.66793400  0.73109300  1
  O  O69  1  0.51214900  0.83206600  0.23109300  1
  O  O70  1  0.48785100  0.83206600  0.76890700  1
  O  O71  1  0.51214900  0.66793400  0.26890700  1
  O  O72  1  0.39829200  0.50000000  0.12669800  1
  O  O73  1  0.10170800  0.50000000  0.62669800  1
  O  O74  1  0.89829200  0.50000000  0.37330200  1
  O  O75  1  0.60170800  0.50000000  0.87330200  1
  O  O76  1  0.38279400  0.50000000  0.46618800  1
  O  O77  1  0.11720600  0.50000000  0.96618800  1
  O  O78  1  0.88279400  0.50000000  0.03381200  1
  O  O79  1  0.61720600  0.50000000  0.53381200  1
  O  O80  1  0.13774350  0.76412850  0.91527800  1
  O  O81  1  0.86225650  0.73587150  0.41527800  1
  O  O82  1  0.13774350  0.73587150  0.58472200  1
  O  O83  1  0.86225650  0.76412850  0.08472200  1
  O  O84  1  0.86225650  0.23587150  0.08472200  1
  O  O85  1  0.13774350  0.26412850  0.58472200  1
  O  O86  1  0.86225650  0.26412850  0.41527800  1
  O  O87  1  0.13774350  0.23587150  0.91527800  1
  O  O88  1  0.98785100  0.83206600  0.73109300  1
  O  O89  1  0.01214900  0.66793400  0.23109300  1
  O  O90  1  0.98785100  0.66793400  0.76890700  1
  O  O91  1  0.01214900  0.83206600  0.26890700  1
  O  O92  1  0.75469000  0.41628600  0.70859500  1
  O  O93  1  0.74531000  0.58371400  0.20859500  1
  O  O94  1  0.25469000  0.58371400  0.79140500  1
  O  O95  1  0.24531000  0.41628600  0.29140500  1
  O  O96  1  0.24531000  0.58371400  0.29140500  1
  O  O97  1  0.25469000  0.41628600  0.79140500  1
  O  O98  1  0.74531000  0.41628600  0.20859500  1
  O  O99  1  0.75469000  0.58371400  0.70859500  1
  O  O100  1  0.98785100  0.16793400  0.73109300  1
  O  O101  1  0.01214900  0.33206600  0.23109300  1
  O  O102  1  0.98785100  0.33206600  0.76890700  1
  O  O103  1  0.01214900  0.16793400  0.26890700  1
