# generated using pymatgen
data_P4N3Cl11
_symmetry_space_group_name_H-M   'P 1'
_cell_length_a   10.88397236
_cell_length_b   10.88397236
_cell_length_c   15.00965899
_cell_angle_alpha   90.00000000
_cell_angle_beta   90.00000000
_cell_angle_gamma   120.00000000
_symmetry_Int_Tables_number   1
_chemical_formula_structural   P4N3Cl11
_chemical_formula_sum   'P12 N9 Cl33'
_cell_volume   1539.84255595
_cell_formula_units_Z   3
loop_
 _symmetry_equiv_pos_site_id
 _symmetry_equiv_pos_as_xyz
  1  'x, y, z'
loop_
 _atom_site_type_symbol
 _atom_site_label
 _atom_site_symmetry_multiplicity
 _atom_site_fract_x
 _atom_site_fract_y
 _atom_site_fract_z
 _atom_site_occupancy
  P  P0  1  0.33333333  0.66666667  0.04259267  1
  P  P1  1  0.52647933  0.55197667  0.05950067  1
  P  P2  1  0.44802333  0.97450267  0.05950067  1
  P  P3  1  0.02549733  0.47352067  0.05950067  1
  P  P4  1  0.00000000  0.00000000  0.37592600  1
  P  P5  1  0.19314600  0.88531000  0.39283400  1
  P  P6  1  0.11469000  0.30783600  0.39283400  1
  P  P7  1  0.69216400  0.80685400  0.39283400  1
  P  P8  1  0.66666667  0.33333333  0.70925933  1
  P  P9  1  0.85981267  0.21864333  0.72616733  1
  P  P10  1  0.78135667  0.64116933  0.72616733  1
  P  P11  1  0.35883067  0.14018733  0.72616733  1
  N  N12  1  0.17378567  0.60550933  0.07714333  1
  N  N13  1  0.39449067  0.56827633  0.07714333  1
  N  N14  1  0.43172367  0.82621433  0.07714333  1
  N  N15  1  0.84045233  0.93884267  0.41047667  1
  N  N16  1  0.06115733  0.90160967  0.41047667  1
  N  N17  1  0.09839033  0.15954767  0.41047667  1
  N  N18  1  0.50711900  0.27217600  0.74381000  1
  N  N19  1  0.72782400  0.23494300  0.74381000  1
  N  N20  1  0.76505700  0.49288100  0.74381000  1
  Cl  Cl21  1  0.33333333  0.66666667  0.90660467  1
  Cl  Cl22  1  0.55209767  0.10537733  0.16005933  1
  Cl  Cl23  1  0.89462267  0.44672033  0.16005933  1
  Cl  Cl24  1  0.55327967  0.44790233  0.16005933  1
  Cl  Cl25  1  0.26907833  0.98195667  0.04264567  1
  Cl  Cl26  1  0.01804333  0.28712167  0.04264567  1
  Cl  Cl27  1  0.71287833  0.73092167  0.04264567  1
  Cl  Cl28  1  0.23131133  0.40375467  0.28361167  1
  Cl  Cl29  1  0.59624533  0.82755667  0.28361167  1
  Cl  Cl30  1  0.17244333  0.76868867  0.28361167  1
  Cl  Cl31  1  0.33333333  0.66666667  0.65529167  1
  Cl  Cl32  1  0.00000000  0.00000000  0.23993800  1
  Cl  Cl33  1  0.21876433  0.43871067  0.49339267  1
  Cl  Cl34  1  0.56128933  0.78005367  0.49339267  1
  Cl  Cl35  1  0.21994633  0.78123567  0.49339267  1
  Cl  Cl36  1  0.93574500  0.31529000  0.37597900  1
  Cl  Cl37  1  0.68471000  0.62045500  0.37597900  1
  Cl  Cl38  1  0.37954500  0.06425500  0.37597900  1
  Cl  Cl39  1  0.89797800  0.73708800  0.61694500  1
  Cl  Cl40  1  0.26291200  0.16089000  0.61694500  1
  Cl  Cl41  1  0.83911000  0.10202200  0.61694500  1
  Cl  Cl42  1  0.00000000  0.00000000  0.98862500  1
  Cl  Cl43  1  0.66666667  0.33333333  0.57327133  1
  Cl  Cl44  1  0.88543100  0.77204400  0.82672600  1
  Cl  Cl45  1  0.22795600  0.11338700  0.82672600  1
  Cl  Cl46  1  0.88661300  0.11456900  0.82672600  1
  Cl  Cl47  1  0.60241167  0.64862333  0.70931233  1
  Cl  Cl48  1  0.35137667  0.95378833  0.70931233  1
  Cl  Cl49  1  0.04621167  0.39758833  0.70931233  1
  Cl  Cl50  1  0.56464467  0.07042133  0.95027833  1
  Cl  Cl51  1  0.92957867  0.49422333  0.95027833  1
  Cl  Cl52  1  0.50577667  0.43535533  0.95027833  1
  Cl  Cl53  1  0.66666667  0.33333333  0.32195833  1
