# generated using pymatgen
data_U(OF)2
_symmetry_space_group_name_H-M   'P 1'
_cell_length_a   4.24571027
_cell_length_b   4.24571027
_cell_length_c   16.90242358
_cell_angle_alpha   90.00000000
_cell_angle_beta   90.00000000
_cell_angle_gamma   120.00000000
_symmetry_Int_Tables_number   1
_chemical_formula_structural   U(OF)2
_chemical_formula_sum   'U3 O6 F6'
_cell_volume   263.86410909
_cell_formula_units_Z   3
loop_
 _symmetry_equiv_pos_site_id
 _symmetry_equiv_pos_as_xyz
  1  'x, y, z'
loop_
 _atom_site_type_symbol
 _atom_site_label
 _atom_site_symmetry_multiplicity
 _atom_site_fract_x
 _atom_site_fract_y
 _atom_site_fract_z
 _atom_site_occupancy
  U  U0  1  0.00000000  0.00000000  0.00000000  1
  U  U1  1  0.66666667  0.33333333  0.33333333  1
  U  U2  1  0.33333333  0.66666667  0.66666667  1
  O  O3  1  0.66666667  0.33333333  0.22812233  1
  O  O4  1  0.00000000  0.00000000  0.10521100  1
  O  O5  1  0.33333333  0.66666667  0.56145567  1
  O  O6  1  0.66666667  0.33333333  0.43854433  1
  O  O7  1  0.00000000  0.00000000  0.89478900  1
  O  O8  1  0.33333333  0.66666667  0.77187767  1
  F  F9  1  0.33333333  0.66666667  0.32725867  1
  F  F10  1  0.33333333  0.66666667  0.00607467  1
  F  F11  1  0.00000000  0.00000000  0.66059200  1
  F  F12  1  0.00000000  0.00000000  0.33940800  1
  F  F13  1  0.66666667  0.33333333  0.99392533  1
  F  F14  1  0.66666667  0.33333333  0.67274133  1
