# generated using pymatgen
data_Li4NCl
_symmetry_space_group_name_H-M   'P 1'
_cell_length_a   3.65939341
_cell_length_b   3.65939341
_cell_length_c   19.93005571
_cell_angle_alpha   90.00000000
_cell_angle_beta   90.00000000
_cell_angle_gamma   120.00000000
_symmetry_Int_Tables_number   1
_chemical_formula_structural   Li4NCl
_chemical_formula_sum   'Li12 N3 Cl3'
_cell_volume   231.13054677
_cell_formula_units_Z   3
loop_
 _symmetry_equiv_pos_site_id
 _symmetry_equiv_pos_as_xyz
  1  'x, y, z'
loop_
 _atom_site_type_symbol
 _atom_site_label
 _atom_site_symmetry_multiplicity
 _atom_site_fract_x
 _atom_site_fract_y
 _atom_site_fract_z
 _atom_site_occupancy
  Li  Li0  1  0.66666667  0.33333333  0.23616033  1
  Li  Li1  1  0.00000000  0.00000000  0.09717300  1
  Li  Li2  1  0.33333333  0.66666667  0.32157067  1
  Li  Li3  1  0.33333333  0.66666667  0.01176267  1
  Li  Li4  1  0.33333333  0.66666667  0.56949367  1
  Li  Li5  1  0.66666667  0.33333333  0.43050633  1
  Li  Li6  1  0.00000000  0.00000000  0.65490400  1
  Li  Li7  1  0.00000000  0.00000000  0.34509600  1
  Li  Li8  1  0.00000000  0.00000000  0.90282700  1
  Li  Li9  1  0.33333333  0.66666667  0.76383967  1
  Li  Li10  1  0.66666667  0.33333333  0.98823733  1
  Li  Li11  1  0.66666667  0.33333333  0.67842933  1
  N  N12  1  0.00000000  0.00000000  0.00000000  1
  N  N13  1  0.66666667  0.33333333  0.33333333  1
  N  N14  1  0.33333333  0.66666667  0.66666667  1
  Cl  Cl15  1  0.33333333  0.66666667  0.16666667  1
  Cl  Cl16  1  1.00000000  1.00000000  0.50000000  1
  Cl  Cl17  1  0.66666667  0.33333333  0.83333333  1
