# generated using pymatgen
data_USbO5
_symmetry_space_group_name_H-M   'P 1'
_cell_length_a   8.86078600
_cell_length_b   6.58829600
_cell_length_c   7.62156666
_cell_angle_alpha   90.00000000
_cell_angle_beta   115.33532425
_cell_angle_gamma   90.00000000
_symmetry_Int_Tables_number   1
_chemical_formula_structural   USbO5
_chemical_formula_sum   'U4 Sb4 O20'
_cell_volume   402.13421164
_cell_formula_units_Z   4
loop_
 _symmetry_equiv_pos_site_id
 _symmetry_equiv_pos_as_xyz
  1  'x, y, z'
loop_
 _atom_site_type_symbol
 _atom_site_label
 _atom_site_symmetry_multiplicity
 _atom_site_fract_x
 _atom_site_fract_y
 _atom_site_fract_z
 _atom_site_occupancy
  U  U0  1  0.00000000  0.52989600  0.75000000  1
  U  U1  1  0.00000000  0.47010400  0.25000000  1
  U  U2  1  0.50000000  0.02989600  0.75000000  1
  U  U3  1  0.50000000  0.97010400  0.25000000  1
  Sb  Sb4  1  0.00000000  0.00000000  0.00000000  1
  Sb  Sb5  1  0.00000000  0.00000000  0.50000000  1
  Sb  Sb6  1  0.50000000  0.50000000  0.00000000  1
  Sb  Sb7  1  0.50000000  0.50000000  0.50000000  1
  O  O8  1  0.24958350  0.51939750  0.87056900  1
  O  O9  1  0.75041650  0.48060250  0.12943100  1
  O  O10  1  0.75041650  0.51939750  0.62943100  1
  O  O11  1  0.24958350  0.48060250  0.37056900  1
  O  O12  1  0.00000000  0.91033500  0.75000000  1
  O  O13  1  0.00000000  0.08966500  0.25000000  1
  O  O14  1  0.00735200  0.30018200  0.96686600  1
  O  O15  1  0.99264800  0.69981800  0.03313400  1
  O  O16  1  0.00735200  0.69981800  0.46686600  1
  O  O17  1  0.99264800  0.30018200  0.53313400  1
  O  O18  1  0.74958350  0.01939750  0.87056900  1
  O  O19  1  0.25041650  0.98060250  0.12943100  1
  O  O20  1  0.25041650  0.01939750  0.62943100  1
  O  O21  1  0.74958350  0.98060250  0.37056900  1
  O  O22  1  0.50000000  0.41033500  0.75000000  1
  O  O23  1  0.50000000  0.58966500  0.25000000  1
  O  O24  1  0.50735200  0.80018200  0.96686600  1
  O  O25  1  0.49264800  0.19981800  0.03313400  1
  O  O26  1  0.50735200  0.19981800  0.46686600  1
  O  O27  1  0.49264800  0.80018200  0.53313400  1
