# generated using pymatgen
data_Ba3In2O5F2
_symmetry_space_group_name_H-M   'P 1'
_cell_length_a   4.24865400
_cell_length_b   4.24865400
_cell_length_c   23.19089000
_cell_angle_alpha   90.00000000
_cell_angle_beta   90.00000000
_cell_angle_gamma   90.00000000
_symmetry_Int_Tables_number   1
_chemical_formula_structural   Ba3In2O5F2
_chemical_formula_sum   'Ba6 In4 O10 F4'
_cell_volume   418.62016567
_cell_formula_units_Z   2
loop_
 _symmetry_equiv_pos_site_id
 _symmetry_equiv_pos_as_xyz
  1  'x, y, z'
loop_
 _atom_site_type_symbol
 _atom_site_label
 _atom_site_symmetry_multiplicity
 _atom_site_fract_x
 _atom_site_fract_y
 _atom_site_fract_z
 _atom_site_occupancy
  Ba  Ba0  1  0.50000000  0.50000000  0.00000000  1
  Ba  Ba1  1  0.50000000  0.50000000  0.17615200  1
  Ba  Ba2  1  0.00000000  0.00000000  0.32384800  1
  Ba  Ba3  1  0.00000000  0.00000000  0.50000000  1
  Ba  Ba4  1  0.00000000  0.00000000  0.67615200  1
  Ba  Ba5  1  0.50000000  0.50000000  0.82384800  1
  In  In6  1  0.50000000  0.50000000  0.40892200  1
  In  In7  1  0.00000000  0.00000000  0.09107800  1
  In  In8  1  0.00000000  0.00000000  0.90892200  1
  In  In9  1  0.50000000  0.50000000  0.59107800  1
  O  O10  1  0.00000000  0.50000000  0.10369500  1
  O  O11  1  0.50000000  0.00000000  0.10369500  1
  O  O12  1  0.00000000  0.00000000  0.00000000  1
  O  O13  1  0.50000000  0.00000000  0.39630500  1
  O  O14  1  0.00000000  0.50000000  0.39630500  1
  O  O15  1  0.50000000  0.00000000  0.60369500  1
  O  O16  1  0.00000000  0.50000000  0.60369500  1
  O  O17  1  0.50000000  0.50000000  0.50000000  1
  O  O18  1  0.00000000  0.50000000  0.89630500  1
  O  O19  1  0.50000000  0.00000000  0.89630500  1
  F  F20  1  0.00000000  0.00000000  0.20509400  1
  F  F21  1  0.50000000  0.50000000  0.29490600  1
  F  F22  1  0.50000000  0.50000000  0.70509400  1
  F  F23  1  0.00000000  0.00000000  0.79490600  1
