# generated using pymatgen
data_CsHF2
_symmetry_space_group_name_H-M   'P 1'
_cell_length_a   6.23919200
_cell_length_b   6.23919200
_cell_length_c   7.92818400
_cell_angle_alpha   90.00000000
_cell_angle_beta   90.00000000
_cell_angle_gamma   90.00000000
_symmetry_Int_Tables_number   1
_chemical_formula_structural   CsHF2
_chemical_formula_sum   'Cs4 H4 F8'
_cell_volume   308.62451596
_cell_formula_units_Z   4
loop_
 _symmetry_equiv_pos_site_id
 _symmetry_equiv_pos_as_xyz
  1  'x, y, z'
loop_
 _atom_site_type_symbol
 _atom_site_label
 _atom_site_symmetry_multiplicity
 _atom_site_fract_x
 _atom_site_fract_y
 _atom_site_fract_z
 _atom_site_occupancy
  Cs  Cs0  1  0.00000000  0.00000000  0.25000000  1
  Cs  Cs1  1  0.00000000  0.00000000  0.75000000  1
  Cs  Cs2  1  0.50000000  0.50000000  0.75000000  1
  Cs  Cs3  1  0.50000000  0.50000000  0.25000000  1
  H  H4  1  0.50000000  0.00000000  0.00000000  1
  H  H5  1  0.00000000  0.50000000  0.00000000  1
  H  H6  1  0.00000000  0.50000000  0.50000000  1
  H  H7  1  0.50000000  0.00000000  0.50000000  1
  F  F8  1  0.86923950  0.36923950  0.50000000  1
  F  F9  1  0.13076050  0.36923950  0.00000000  1
  F  F10  1  0.63076050  0.13076050  0.00000000  1
  F  F11  1  0.36923950  0.13076050  0.50000000  1
  F  F12  1  0.36923950  0.86923950  0.00000000  1
  F  F13  1  0.63076050  0.86923950  0.50000000  1
  F  F14  1  0.13076050  0.63076050  0.50000000  1
  F  F15  1  0.86923950  0.63076050  0.00000000  1
