# generated using pymatgen
data_In2Se3
_symmetry_space_group_name_H-M   'P 1'
_cell_length_a   4.13518608
_cell_length_b   4.13518608
_cell_length_c   25.85060824
_cell_angle_alpha   90.00000000
_cell_angle_beta   90.00000000
_cell_angle_gamma   120.00000000
_symmetry_Int_Tables_number   1
_chemical_formula_structural   In2Se3
_chemical_formula_sum   'In6 Se9'
_cell_volume   382.81726201
_cell_formula_units_Z   3
loop_
 _symmetry_equiv_pos_site_id
 _symmetry_equiv_pos_as_xyz
  1  'x, y, z'
loop_
 _atom_site_type_symbol
 _atom_site_label
 _atom_site_symmetry_multiplicity
 _atom_site_fract_x
 _atom_site_fract_y
 _atom_site_fract_z
 _atom_site_occupancy
  In  In0  1  0.00000000  0.00000000  0.20751300  1
  In  In1  1  0.66666667  0.33333333  0.12582033  1
  In  In2  1  0.66666667  0.33333333  0.54084633  1
  In  In3  1  0.33333333  0.66666667  0.45915367  1
  In  In4  1  0.33333333  0.66666667  0.87417967  1
  In  In5  1  0.00000000  0.00000000  0.79248700  1
  Se  Se6  1  0.33333333  0.66666667  0.06530167  1
  Se  Se7  1  0.33333333  0.66666667  0.26803167  1
  Se  Se8  1  0.00000000  0.00000000  0.00000000  1
  Se  Se9  1  0.00000000  0.00000000  0.39863500  1
  Se  Se10  1  0.00000000  0.00000000  0.60136500  1
  Se  Se11  1  0.66666667  0.33333333  0.33333333  1
  Se  Se12  1  0.66666667  0.33333333  0.73196833  1
  Se  Se13  1  0.66666667  0.33333333  0.93469833  1
  Se  Se14  1  0.33333333  0.66666667  0.66666667  1
