# generated using pymatgen
data_NaSi
_symmetry_space_group_name_H-M   'P 1'
_cell_length_a   12.12983000
_cell_length_b   6.58008200
_cell_length_c   11.06455784
_cell_angle_alpha   90.00000000
_cell_angle_beta   118.71422472
_cell_angle_gamma   90.00000000
_symmetry_Int_Tables_number   1
_chemical_formula_structural   NaSi
_chemical_formula_sum   'Na16 Si16'
_cell_volume   774.52065445
_cell_formula_units_Z   16
loop_
 _symmetry_equiv_pos_site_id
 _symmetry_equiv_pos_as_xyz
  1  'x, y, z'
loop_
 _atom_site_type_symbol
 _atom_site_label
 _atom_site_symmetry_multiplicity
 _atom_site_fract_x
 _atom_site_fract_y
 _atom_site_fract_z
 _atom_site_occupancy
  Na  Na0  1  0.63091650  0.90593150  0.45204000  1
  Na  Na1  1  0.36908350  0.90593150  0.04796000  1
  Na  Na2  1  0.36908350  0.09406850  0.54796000  1
  Na  Na3  1  0.63091650  0.09406850  0.95204000  1
  Na  Na4  1  0.14897950  0.16113450  0.14183400  1
  Na  Na5  1  0.35102050  0.66113450  0.35816600  1
  Na  Na6  1  0.85102050  0.83886550  0.85816600  1
  Na  Na7  1  0.64897950  0.33886550  0.64183400  1
  Na  Na8  1  0.13091650  0.40593150  0.45204000  1
  Na  Na9  1  0.86908350  0.40593150  0.04796000  1
  Na  Na10  1  0.86908350  0.59406850  0.54796000  1
  Na  Na11  1  0.13091650  0.59406850  0.95204000  1
  Na  Na12  1  0.64897950  0.66113450  0.14183400  1
  Na  Na13  1  0.85102050  0.16113450  0.35816600  1
  Na  Na14  1  0.35102050  0.33886550  0.85816600  1
  Na  Na15  1  0.14897950  0.83886550  0.64183400  1
  Si  Si16  1  0.40193950  0.46207850  0.14228600  1
  Si  Si17  1  0.59806050  0.46207850  0.35771400  1
  Si  Si18  1  0.59806050  0.53792150  0.85771400  1
  Si  Si19  1  0.40193950  0.53792150  0.64228600  1
  Si  Si20  1  0.43843900  0.20741000  0.31283700  1
  Si  Si21  1  0.56156100  0.20741000  0.18716300  1
  Si  Si22  1  0.56156100  0.79259000  0.68716300  1
  Si  Si23  1  0.43843900  0.79259000  0.81283700  1
  Si  Si24  1  0.90193950  0.96207850  0.14228600  1
  Si  Si25  1  0.09806050  0.96207850  0.35771400  1
  Si  Si26  1  0.09806050  0.03792150  0.85771400  1
  Si  Si27  1  0.90193950  0.03792150  0.64228600  1
  Si  Si28  1  0.93843900  0.70741000  0.31283700  1
  Si  Si29  1  0.06156100  0.70741000  0.18716300  1
  Si  Si30  1  0.06156100  0.29259000  0.68716300  1
  Si  Si31  1  0.93843900  0.29259000  0.81283700  1
