# generated using pymatgen
data_Rb2MnBr4
_symmetry_space_group_name_H-M   'P 1'
_cell_length_a   5.40936800
_cell_length_b   5.40936800
_cell_length_c   17.13421800
_cell_angle_alpha   90.00000000
_cell_angle_beta   90.00000000
_cell_angle_gamma   90.00000000
_symmetry_Int_Tables_number   1
_chemical_formula_structural   Rb2MnBr4
_chemical_formula_sum   'Rb4 Mn2 Br8'
_cell_volume   501.36884479
_cell_formula_units_Z   2
loop_
 _symmetry_equiv_pos_site_id
 _symmetry_equiv_pos_as_xyz
  1  'x, y, z'
loop_
 _atom_site_type_symbol
 _atom_site_label
 _atom_site_symmetry_multiplicity
 _atom_site_fract_x
 _atom_site_fract_y
 _atom_site_fract_z
 _atom_site_occupancy
  Rb  Rb0  1  0.00000000  0.00000000  0.35985200  1
  Rb  Rb1  1  0.50000000  0.50000000  0.14014800  1
  Rb  Rb2  1  0.50000000  0.50000000  0.85985200  1
  Rb  Rb3  1  0.00000000  0.00000000  0.64014800  1
  Mn  Mn4  1  0.00000000  0.00000000  0.00000000  1
  Mn  Mn5  1  0.50000000  0.50000000  0.50000000  1
  Br  Br6  1  0.00000000  0.00000000  0.15669500  1
  Br  Br7  1  0.00000000  0.50000000  0.00000000  1
  Br  Br8  1  0.50000000  0.50000000  0.34330500  1
  Br  Br9  1  0.50000000  0.00000000  0.00000000  1
  Br  Br10  1  0.50000000  0.50000000  0.65669500  1
  Br  Br11  1  0.50000000  0.00000000  0.50000000  1
  Br  Br12  1  0.00000000  0.00000000  0.84330500  1
  Br  Br13  1  0.00000000  0.50000000  0.50000000  1
