# generated using pymatgen
data_K2Ti2O5
_symmetry_space_group_name_H-M   'P 1'
_cell_length_a   11.52474400
_cell_length_b   3.80697200
_cell_length_c   6.73078759
_cell_angle_alpha   90.00000000
_cell_angle_beta   99.50716044
_cell_angle_gamma   90.00000000
_symmetry_Int_Tables_number   1
_chemical_formula_structural   K2Ti2O5
_chemical_formula_sum   'K4 Ti4 O10'
_cell_volume   291.25303656
_cell_formula_units_Z   2
loop_
 _symmetry_equiv_pos_site_id
 _symmetry_equiv_pos_as_xyz
  1  'x, y, z'
loop_
 _atom_site_type_symbol
 _atom_site_label
 _atom_site_symmetry_multiplicity
 _atom_site_fract_x
 _atom_site_fract_y
 _atom_site_fract_z
 _atom_site_occupancy
  K  K0  1  0.90129600  0.50000000  0.64810600  1
  K  K1  1  0.59870400  0.00000000  0.35189400  1
  K  K2  1  0.40129600  0.00000000  0.64810600  1
  K  K3  1  0.09870400  0.50000000  0.35189400  1
  Ti  Ti4  1  0.64737900  0.50000000  0.90817300  1
  Ti  Ti5  1  0.85262100  0.00000000  0.09182700  1
  Ti  Ti6  1  0.14737900  0.00000000  0.90817300  1
  Ti  Ti7  1  0.35262100  0.50000000  0.09182700  1
  O  O8  1  0.82209700  0.50000000  0.01083900  1
  O  O9  1  0.67790300  0.00000000  0.98916100  1
  O  O10  1  0.62566200  0.50000000  0.64738700  1
  O  O11  1  0.87433800  0.00000000  0.35261300  1
  O  O12  1  0.00000000  0.00000000  0.00000000  1
  O  O13  1  0.32209700  0.00000000  0.01083900  1
  O  O14  1  0.17790300  0.50000000  0.98916100  1
  O  O15  1  0.12566200  0.00000000  0.64738700  1
  O  O16  1  0.37433800  0.50000000  0.35261300  1
  O  O17  1  0.50000000  0.50000000  0.00000000  1
