# generated using pymatgen
data_Pr2NCl3
_symmetry_space_group_name_H-M   'P 1'
_cell_length_a   6.21937400
_cell_length_b   6.91991400
_cell_length_c   13.72484400
_cell_angle_alpha   90.00000000
_cell_angle_beta   90.00000000
_cell_angle_gamma   90.00000000
_symmetry_Int_Tables_number   1
_chemical_formula_structural   Pr2NCl3
_chemical_formula_sum   'Pr8 N4 Cl12'
_cell_volume   590.68342950
_cell_formula_units_Z   4
loop_
 _symmetry_equiv_pos_site_id
 _symmetry_equiv_pos_as_xyz
  1  'x, y, z'
loop_
 _atom_site_type_symbol
 _atom_site_label
 _atom_site_symmetry_multiplicity
 _atom_site_fract_x
 _atom_site_fract_y
 _atom_site_fract_z
 _atom_site_occupancy
  Pr  Pr0  1  0.00000000  0.17565400  0.09297800  1
  Pr  Pr1  1  0.50000000  0.32434600  0.40702200  1
  Pr  Pr2  1  0.00000000  0.67565400  0.40702200  1
  Pr  Pr3  1  0.50000000  0.82434600  0.09297800  1
  Pr  Pr4  1  0.50000000  0.67565400  0.59297800  1
  Pr  Pr5  1  0.00000000  0.82434600  0.90702200  1
  Pr  Pr6  1  0.50000000  0.17565400  0.90702200  1
  Pr  Pr7  1  0.00000000  0.32434600  0.59297800  1
  N  N8  1  0.25000000  0.00000000  0.00000000  1
  N  N9  1  0.75000000  0.00000000  0.00000000  1
  N  N10  1  0.75000000  0.50000000  0.50000000  1
  N  N11  1  0.25000000  0.50000000  0.50000000  1
  Cl  Cl12  1  0.50000000  0.67442550  0.29686550  1
  Cl  Cl13  1  0.00000000  0.82557450  0.20313450  1
  Cl  Cl14  1  0.75000000  0.50000000  0.00000000  1
  Cl  Cl15  1  0.25000000  0.50000000  0.00000000  1
  Cl  Cl16  1  0.00000000  0.32557450  0.29686550  1
  Cl  Cl17  1  0.50000000  0.17442550  0.20313450  1
  Cl  Cl18  1  0.00000000  0.17442550  0.79686550  1
  Cl  Cl19  1  0.50000000  0.32557450  0.70313450  1
  Cl  Cl20  1  0.25000000  0.00000000  0.50000000  1
  Cl  Cl21  1  0.75000000  0.00000000  0.50000000  1
  Cl  Cl22  1  0.50000000  0.82557450  0.79686550  1
  Cl  Cl23  1  0.00000000  0.67442550  0.70313450  1
