# generated using pymatgen
data_Ca5As4(HO2)10
_symmetry_space_group_name_H-M   'P 1'
_cell_length_a   18.96652800
_cell_length_b   9.87615000
_cell_length_c   10.33726468
_cell_angle_alpha   90.00000000
_cell_angle_beta   96.50280274
_cell_angle_gamma   90.00000000
_symmetry_Int_Tables_number   1
_chemical_formula_structural   Ca5As4(HO2)10
_chemical_formula_sum   'Ca20 As16 H40 O80'
_cell_volume   1923.88013520
_cell_formula_units_Z   4
loop_
 _symmetry_equiv_pos_site_id
 _symmetry_equiv_pos_as_xyz
  1  'x, y, z'
loop_
 _atom_site_type_symbol
 _atom_site_label
 _atom_site_symmetry_multiplicity
 _atom_site_fract_x
 _atom_site_fract_y
 _atom_site_fract_z
 _atom_site_occupancy
  Ca  Ca0  1  0.67526050  0.53168050  0.36095200  1
  Ca  Ca1  1  0.82473950  0.03168050  0.13904800  1
  Ca  Ca2  1  0.82473950  0.96831950  0.63904800  1
  Ca  Ca3  1  0.67526050  0.46831950  0.86095200  1
  Ca  Ca4  1  0.68188650  0.91794350  0.31494800  1
  Ca  Ca5  1  0.81811350  0.41794350  0.18505200  1
  Ca  Ca6  1  0.81811350  0.58205650  0.68505200  1
  Ca  Ca7  1  0.68188650  0.08205650  0.81494800  1
  Ca  Ca8  1  0.00000000  0.10252500  0.75000000  1
  Ca  Ca9  1  0.00000000  0.89747500  0.25000000  1
  Ca  Ca10  1  0.17526050  0.03168050  0.36095200  1
  Ca  Ca11  1  0.32473950  0.53168050  0.13904800  1
  Ca  Ca12  1  0.32473950  0.46831950  0.63904800  1
  Ca  Ca13  1  0.17526050  0.96831950  0.86095200  1
  Ca  Ca14  1  0.18188650  0.41794350  0.31494800  1
  Ca  Ca15  1  0.31811350  0.91794350  0.18505200  1
  Ca  Ca16  1  0.31811350  0.08205650  0.68505200  1
  Ca  Ca17  1  0.18188650  0.58205650  0.81494800  1
  Ca  Ca18  1  0.50000000  0.60252500  0.75000000  1
  Ca  Ca19  1  0.50000000  0.39747500  0.25000000  1
  As  As20  1  0.84162050  0.26229550  0.87660400  1
  As  As21  1  0.65837950  0.76229550  0.62339600  1
  As  As22  1  0.65837950  0.23770450  0.12339600  1
  As  As23  1  0.84162050  0.73770450  0.37660400  1
  As  As24  1  0.58501950  0.68366650  0.08367700  1
  As  As25  1  0.91498050  0.18366650  0.41632300  1
  As  As26  1  0.91498050  0.81633350  0.91632300  1
  As  As27  1  0.58501950  0.31633350  0.58367700  1
  As  As28  1  0.34162050  0.76229550  0.87660400  1
  As  As29  1  0.15837950  0.26229550  0.62339600  1
  As  As30  1  0.15837950  0.73770450  0.12339600  1
  As  As31  1  0.34162050  0.23770450  0.37660400  1
  As  As32  1  0.08501950  0.18366650  0.08367700  1
  As  As33  1  0.41498050  0.68366650  0.41632300  1
  As  As34  1  0.41498050  0.31633350  0.91632300  1
  As  As35  1  0.08501950  0.81633350  0.58367700  1
  H  H36  1  0.97007250  0.52349550  0.64904100  1
  H  H37  1  0.52992750  0.02349550  0.85095900  1
  H  H38  1  0.52992750  0.97650450  0.35095900  1
  H  H39  1  0.97007250  0.47650450  0.14904100  1
  H  H40  1  0.93692100  0.40313400  0.73294000  1
  H  H41  1  0.56307900  0.90313400  0.76706000  1
  H  H42  1  0.56307900  0.09686600  0.26706000  1
  H  H43  1  0.93692100  0.59686600  0.23294000  1
  H  H44  1  0.79400750  0.63930750  0.97708900  1
  H  H45  1  0.70599250  0.13930750  0.52291100  1
  H  H46  1  0.70599250  0.86069250  0.02291100  1
  H  H47  1  0.79400750  0.36069250  0.47708900  1
  H  H48  1  0.73466850  0.65518650  0.07615100  1
  H  H49  1  0.76533150  0.15518650  0.42384900  1
  H  H50  1  0.76533150  0.84481350  0.92384900  1
  H  H51  1  0.73466850  0.34481350  0.57615100  1
  H  H52  1  0.98233250  0.28909650  0.98745600  1
  H  H53  1  0.51766750  0.78909650  0.51254400  1
  H  H54  1  0.51766750  0.21090350  0.01254400  1
  H  H55  1  0.98233250  0.71090350  0.48745600  1
  H  H56  1  0.47007250  0.02349550  0.64904100  1
  H  H57  1  0.02992750  0.52349550  0.85095900  1
  H  H58  1  0.02992750  0.47650450  0.35095900  1
  H  H59  1  0.47007250  0.97650450  0.14904100  1
  H  H60  1  0.43692100  0.90313400  0.73294000  1
  H  H61  1  0.06307900  0.40313400  0.76706000  1
  H  H62  1  0.06307900  0.59686600  0.26706000  1
  H  H63  1  0.43692100  0.09686600  0.23294000  1
  H  H64  1  0.29400750  0.13930750  0.97708900  1
  H  H65  1  0.20599250  0.63930750  0.52291100  1
  H  H66  1  0.20599250  0.36069250  0.02291100  1
  H  H67  1  0.29400750  0.86069250  0.47708900  1
  H  H68  1  0.23466850  0.15518650  0.07615100  1
  H  H69  1  0.26533150  0.65518650  0.42384900  1
  H  H70  1  0.26533150  0.34481350  0.92384900  1
  H  H71  1  0.23466850  0.84481350  0.57615100  1
  H  H72  1  0.48233250  0.78909650  0.98745600  1
  H  H73  1  0.01766750  0.28909650  0.51254400  1
  H  H74  1  0.01766750  0.71090350  0.01254400  1
  H  H75  1  0.48233250  0.21090350  0.48745600  1
  O  O76  1  0.92665300  0.47919400  0.66991000  1
  O  O77  1  0.57334700  0.97919400  0.83009000  1
  O  O78  1  0.57334700  0.02080600  0.33009000  1
  O  O79  1  0.92665300  0.52080600  0.16991000  1
  O  O80  1  0.75991550  0.58789250  0.02680300  1
  O  O81  1  0.74008450  0.08789250  0.47319700  1
  O  O82  1  0.74008450  0.91210750  0.97319700  1
  O  O83  1  0.75991550  0.41210750  0.52680300  1
  O  O84  1  0.92989250  0.27293450  0.84708200  1
  O  O85  1  0.57010750  0.77293450  0.65291800  1
  O  O86  1  0.57010750  0.22706550  0.15291800  1
  O  O87  1  0.92989250  0.72706550  0.34708200  1
  O  O88  1  0.80072800  0.12498900  0.79835600  1
  O  O89  1  0.69927200  0.62498900  0.70164400  1
  O  O90  1  0.69927200  0.37501100  0.20164400  1
  O  O91  1  0.80072800  0.87501100  0.29835600  1
  O  O92  1  0.79578000  0.40611700  0.82531800  1
  O  O93  1  0.70422000  0.90611700  0.67468200  1
  O  O94  1  0.70422000  0.09388300  0.17468200  1
  O  O95  1  0.79578000  0.59388300  0.32531800  1
  O  O96  1  0.83814200  0.24281100  0.04158300  1
  O  O97  1  0.66185800  0.74281100  0.45841700  1
  O  O98  1  0.66185800  0.25718900  0.95841700  1
  O  O99  1  0.83814200  0.75718900  0.54158300  1
  O  O100  1  0.58544900  0.60581800  0.93601200  1
  O  O101  1  0.91455100  0.10581800  0.56398800  1
  O  O102  1  0.91455100  0.89418200  0.06398800  1
  O  O103  1  0.58544900  0.39418200  0.43601200  1
  O  O104  1  0.66302500  0.76924900  0.12984800  1
  O  O105  1  0.83697500  0.26924900  0.37015200  1
  O  O106  1  0.83697500  0.73075100  0.87015200  1
  O  O107  1  0.66302500  0.23075100  0.62984800  1
  O  O108  1  0.57562750  0.57132450  0.20505200  1
  O  O109  1  0.92437250  0.07132450  0.29494800  1
  O  O110  1  0.92437250  0.92867550  0.79494800  1
  O  O111  1  0.57562750  0.42867550  0.70505200  1
  O  O112  1  0.51506000  0.80300100  0.07156500  1
  O  O113  1  0.98494000  0.30300100  0.42843500  1
  O  O114  1  0.98494000  0.69699900  0.92843500  1
  O  O115  1  0.51506000  0.19699900  0.57156500  1
  O  O116  1  0.42665300  0.97919400  0.66991000  1
  O  O117  1  0.07334700  0.47919400  0.83009000  1
  O  O118  1  0.07334700  0.52080600  0.33009000  1
  O  O119  1  0.42665300  0.02080600  0.16991000  1
  O  O120  1  0.25991550  0.08789250  0.02680300  1
  O  O121  1  0.24008450  0.58789250  0.47319700  1
  O  O122  1  0.24008450  0.41210750  0.97319700  1
  O  O123  1  0.25991550  0.91210750  0.52680300  1
  O  O124  1  0.42989250  0.77293450  0.84708200  1
  O  O125  1  0.07010750  0.27293450  0.65291800  1
  O  O126  1  0.07010750  0.72706550  0.15291800  1
  O  O127  1  0.42989250  0.22706550  0.34708200  1
  O  O128  1  0.30072800  0.62498900  0.79835600  1
  O  O129  1  0.19927200  0.12498900  0.70164400  1
  O  O130  1  0.19927200  0.87501100  0.20164400  1
  O  O131  1  0.30072800  0.37501100  0.29835600  1
  O  O132  1  0.29578000  0.90611700  0.82531800  1
  O  O133  1  0.20422000  0.40611700  0.67468200  1
  O  O134  1  0.20422000  0.59388300  0.17468200  1
  O  O135  1  0.29578000  0.09388300  0.32531800  1
  O  O136  1  0.33814200  0.74281100  0.04158300  1
  O  O137  1  0.16185800  0.24281100  0.45841700  1
  O  O138  1  0.16185800  0.75718900  0.95841700  1
  O  O139  1  0.33814200  0.25718900  0.54158300  1
  O  O140  1  0.08544900  0.10581800  0.93601200  1
  O  O141  1  0.41455100  0.60581800  0.56398800  1
  O  O142  1  0.41455100  0.39418200  0.06398800  1
  O  O143  1  0.08544900  0.89418200  0.43601200  1
  O  O144  1  0.16302500  0.26924900  0.12984800  1
  O  O145  1  0.33697500  0.76924900  0.37015200  1
  O  O146  1  0.33697500  0.23075100  0.87015200  1
  O  O147  1  0.16302500  0.73075100  0.62984800  1
  O  O148  1  0.07562750  0.07132450  0.20505200  1
  O  O149  1  0.42437250  0.57132450  0.29494800  1
  O  O150  1  0.42437250  0.42867550  0.79494800  1
  O  O151  1  0.07562750  0.92867550  0.70505200  1
  O  O152  1  0.01506000  0.30300100  0.07156500  1
  O  O153  1  0.48494000  0.80300100  0.42843500  1
  O  O154  1  0.48494000  0.19699900  0.92843500  1
  O  O155  1  0.01506000  0.69699900  0.57156500  1
