# generated using pymatgen
data_RbLiCl2
_symmetry_space_group_name_H-M   'P 1'
_cell_length_a   4.18046400
_cell_length_b   14.59199600
_cell_length_c   7.31856200
_cell_angle_alpha   90.00000000
_cell_angle_beta   90.00000000
_cell_angle_gamma   90.00000000
_symmetry_Int_Tables_number   1
_chemical_formula_structural   RbLiCl2
_chemical_formula_sum   'Rb4 Li4 Cl8'
_cell_volume   446.44189834
_cell_formula_units_Z   4
loop_
 _symmetry_equiv_pos_site_id
 _symmetry_equiv_pos_as_xyz
  1  'x, y, z'
loop_
 _atom_site_type_symbol
 _atom_site_label
 _atom_site_symmetry_multiplicity
 _atom_site_fract_x
 _atom_site_fract_y
 _atom_site_fract_z
 _atom_site_occupancy
  Rb  Rb0  1  0.00000000  0.62931100  0.25000000  1
  Rb  Rb1  1  0.50000000  0.87068900  0.75000000  1
  Rb  Rb2  1  0.50000000  0.12931100  0.25000000  1
  Rb  Rb3  1  0.00000000  0.37068900  0.75000000  1
  Li  Li4  1  0.00000000  0.89609400  0.25000000  1
  Li  Li5  1  0.50000000  0.60390600  0.75000000  1
  Li  Li6  1  0.50000000  0.39609400  0.25000000  1
  Li  Li7  1  0.00000000  0.10390600  0.75000000  1
  Cl  Cl8  1  0.50000000  0.81000000  0.25000000  1
  Cl  Cl9  1  0.00000000  0.69000000  0.75000000  1
  Cl  Cl10  1  0.00000000  0.00000000  0.00000000  1
  Cl  Cl11  1  0.00000000  0.00000000  0.50000000  1
  Cl  Cl12  1  0.00000000  0.31000000  0.25000000  1
  Cl  Cl13  1  0.50000000  0.19000000  0.75000000  1
  Cl  Cl14  1  0.50000000  0.50000000  0.00000000  1
  Cl  Cl15  1  0.50000000  0.50000000  0.50000000  1
