# generated using pymatgen
data_GaH4NF4
_symmetry_space_group_name_H-M   'P 1'
_cell_length_a   5.36884600
_cell_length_b   5.36884600
_cell_length_c   12.99280000
_cell_angle_alpha   90.00000000
_cell_angle_beta   90.00000000
_cell_angle_gamma   90.00000000
_symmetry_Int_Tables_number   1
_chemical_formula_structural   GaH4NF4
_chemical_formula_sum   'Ga4 H16 N4 F16'
_cell_volume   374.51105938
_cell_formula_units_Z   4
loop_
 _symmetry_equiv_pos_site_id
 _symmetry_equiv_pos_as_xyz
  1  'x, y, z'
loop_
 _atom_site_type_symbol
 _atom_site_label
 _atom_site_symmetry_multiplicity
 _atom_site_fract_x
 _atom_site_fract_y
 _atom_site_fract_z
 _atom_site_occupancy
  Ga  Ga0  1  0.50000000  0.50000000  0.00000000  1
  Ga  Ga1  1  0.00000000  0.00000000  0.00000000  1
  Ga  Ga2  1  0.00000000  0.00000000  0.50000000  1
  Ga  Ga3  1  0.50000000  0.50000000  0.50000000  1
  H  H4  1  0.89030700  0.60969300  0.20345200  1
  H  H5  1  0.60969300  0.89030700  0.29654800  1
  H  H6  1  0.39030700  0.10969300  0.29654800  1
  H  H7  1  0.89030700  0.39030700  0.29654800  1
  H  H8  1  0.10969300  0.60969300  0.29654800  1
  H  H9  1  0.39030700  0.89030700  0.20345200  1
  H  H10  1  0.60969300  0.10969300  0.20345200  1
  H  H11  1  0.10969300  0.39030700  0.20345200  1
  H  H12  1  0.39030700  0.10969300  0.70345200  1
  H  H13  1  0.10969300  0.39030700  0.79654800  1
  H  H14  1  0.89030700  0.60969300  0.79654800  1
  H  H15  1  0.39030700  0.89030700  0.79654800  1
  H  H16  1  0.60969300  0.10969300  0.79654800  1
  H  H17  1  0.89030700  0.39030700  0.70345200  1
  H  H18  1  0.10969300  0.60969300  0.70345200  1
  H  H19  1  0.60969300  0.89030700  0.70345200  1
  N  N20  1  0.00000000  0.50000000  0.25000000  1
  N  N21  1  0.50000000  0.00000000  0.25000000  1
  N  N22  1  0.50000000  0.00000000  0.75000000  1
  N  N23  1  0.00000000  0.50000000  0.75000000  1
  F  F24  1  0.19039050  0.69039050  0.50000000  1
  F  F25  1  0.50000000  0.50000000  0.35641400  1
  F  F26  1  0.00000000  0.00000000  0.35641400  1
  F  F27  1  0.00000000  0.00000000  0.14358600  1
  F  F28  1  0.19039050  0.30960950  0.00000000  1
  F  F29  1  0.80960950  0.69039050  0.00000000  1
  F  F30  1  0.30960950  0.80960950  0.00000000  1
  F  F31  1  0.50000000  0.50000000  0.14358600  1
  F  F32  1  0.69039050  0.19039050  0.00000000  1
  F  F33  1  0.00000000  0.00000000  0.85641400  1
  F  F34  1  0.50000000  0.50000000  0.85641400  1
  F  F35  1  0.50000000  0.50000000  0.64358600  1
  F  F36  1  0.69039050  0.80960950  0.50000000  1
  F  F37  1  0.30960950  0.19039050  0.50000000  1
  F  F38  1  0.80960950  0.30960950  0.50000000  1
  F  F39  1  0.00000000  0.00000000  0.64358600  1
