# generated using pymatgen
data_Rb2Zn3O4
_symmetry_space_group_name_H-M   'P 1'
_cell_length_a   15.48269400
_cell_length_b   6.60865400
_cell_length_c   5.87011771
_cell_angle_alpha   90.00000000
_cell_angle_beta   102.01569588
_cell_angle_gamma   90.00000000
_symmetry_Int_Tables_number   1
_chemical_formula_structural   Rb2Zn3O4
_chemical_formula_sum   'Rb8 Zn12 O16'
_cell_volume   587.46966211
_cell_formula_units_Z   4
loop_
 _symmetry_equiv_pos_site_id
 _symmetry_equiv_pos_as_xyz
  1  'x, y, z'
loop_
 _atom_site_type_symbol
 _atom_site_label
 _atom_site_symmetry_multiplicity
 _atom_site_fract_x
 _atom_site_fract_y
 _atom_site_fract_z
 _atom_site_occupancy
  Rb  Rb0  1  0.11713950  0.86563050  0.99566000  1
  Rb  Rb1  1  0.38286050  0.36563050  0.50434000  1
  Rb  Rb2  1  0.38286050  0.63436950  0.00434000  1
  Rb  Rb3  1  0.11713950  0.13436950  0.49566000  1
  Rb  Rb4  1  0.61713950  0.36563050  0.99566000  1
  Rb  Rb5  1  0.88286050  0.86563050  0.50434000  1
  Rb  Rb6  1  0.88286050  0.13436950  0.00434000  1
  Rb  Rb7  1  0.61713950  0.63436950  0.49566000  1
  Zn  Zn8  1  0.19422750  0.38489950  0.08762700  1
  Zn  Zn9  1  0.30577250  0.88489950  0.41237300  1
  Zn  Zn10  1  0.00000000  0.51819700  0.25000000  1
  Zn  Zn11  1  0.00000000  0.48180300  0.75000000  1
  Zn  Zn12  1  0.30577250  0.11510050  0.91237300  1
  Zn  Zn13  1  0.19422750  0.61510050  0.58762700  1
  Zn  Zn14  1  0.69422750  0.88489950  0.08762700  1
  Zn  Zn15  1  0.80577250  0.38489950  0.41237300  1
  Zn  Zn16  1  0.50000000  0.01819700  0.25000000  1
  Zn  Zn17  1  0.50000000  0.98180300  0.75000000  1
  Zn  Zn18  1  0.80577250  0.61510050  0.91237300  1
  Zn  Zn19  1  0.69422750  0.11510050  0.58762700  1
  O  O20  1  0.26002200  0.11857900  0.20755300  1
  O  O21  1  0.23997800  0.61857900  0.29244700  1
  O  O22  1  0.23997800  0.38142100  0.79244700  1
  O  O23  1  0.26002200  0.88142100  0.70755300  1
  O  O24  1  0.43620750  0.84241050  0.45710400  1
  O  O25  1  0.06379250  0.34241050  0.04289600  1
  O  O26  1  0.43620750  0.15758950  0.95710400  1
  O  O27  1  0.06379250  0.65758950  0.54289600  1
  O  O28  1  0.76002200  0.61857900  0.20755300  1
  O  O29  1  0.73997800  0.11857900  0.29244700  1
  O  O30  1  0.73997800  0.88142100  0.79244700  1
  O  O31  1  0.76002200  0.38142100  0.70755300  1
  O  O32  1  0.93620750  0.34241050  0.45710400  1
  O  O33  1  0.56379250  0.84241050  0.04289600  1
  O  O34  1  0.93620750  0.65758950  0.95710400  1
  O  O35  1  0.56379250  0.15758950  0.54289600  1
