# generated using pymatgen
data_NaGaH4
_symmetry_space_group_name_H-M   'P 1'
_cell_length_a   6.53088200
_cell_length_b   7.08924600
_cell_length_c   7.08934700
_cell_angle_alpha   90.00000000
_cell_angle_beta   90.00000000
_cell_angle_gamma   90.00000000
_symmetry_Int_Tables_number   1
_chemical_formula_structural   NaGaH4
_chemical_formula_sum   'Na4 Ga4 H16'
_cell_volume   328.22988302
_cell_formula_units_Z   4
loop_
 _symmetry_equiv_pos_site_id
 _symmetry_equiv_pos_as_xyz
  1  'x, y, z'
loop_
 _atom_site_type_symbol
 _atom_site_label
 _atom_site_symmetry_multiplicity
 _atom_site_fract_x
 _atom_site_fract_y
 _atom_site_fract_z
 _atom_site_occupancy
  Na  Na0  1  0.33805100  0.00000000  0.25000000  1
  Na  Na1  1  0.66194900  0.00000000  0.75000000  1
  Na  Na2  1  0.83805100  0.50000000  0.25000000  1
  Na  Na3  1  0.16194900  0.50000000  0.75000000  1
  Ga  Ga4  1  0.83192300  0.00000000  0.25000000  1
  Ga  Ga5  1  0.16807700  0.00000000  0.75000000  1
  Ga  Ga6  1  0.33192300  0.50000000  0.25000000  1
  Ga  Ga7  1  0.66807700  0.50000000  0.75000000  1
  H  H8  1  0.52557300  0.31719000  0.75000000  1
  H  H9  1  0.47442700  0.68281000  0.25000000  1
  H  H10  1  0.52557300  0.68281000  0.75000000  1
  H  H11  1  0.47442700  0.31719000  0.25000000  1
  H  H12  1  0.68510500  0.00000000  0.43004400  1
  H  H13  1  0.31489500  0.00000000  0.93004400  1
  H  H14  1  0.68510500  0.00000000  0.06995600  1
  H  H15  1  0.31489500  0.00000000  0.56995600  1
  H  H16  1  0.02557300  0.81719000  0.75000000  1
  H  H17  1  0.97442700  0.18281000  0.25000000  1
  H  H18  1  0.02557300  0.18281000  0.75000000  1
  H  H19  1  0.97442700  0.81719000  0.25000000  1
  H  H20  1  0.18510500  0.50000000  0.43004400  1
  H  H21  1  0.81489500  0.50000000  0.93004400  1
  H  H22  1  0.18510500  0.50000000  0.06995600  1
  H  H23  1  0.81489500  0.50000000  0.56995600  1
