# generated using pymatgen
data_RbH3O2
_symmetry_space_group_name_H-M   'P 1'
_cell_length_a   4.22775800
_cell_length_b   11.39176200
_cell_length_c   6.02474600
_cell_angle_alpha   90.00000000
_cell_angle_beta   90.00000000
_cell_angle_gamma   90.00000000
_symmetry_Int_Tables_number   1
_chemical_formula_structural   RbH3O2
_chemical_formula_sum   'Rb4 H12 O8'
_cell_volume   290.16148485
_cell_formula_units_Z   4
loop_
 _symmetry_equiv_pos_site_id
 _symmetry_equiv_pos_as_xyz
  1  'x, y, z'
loop_
 _atom_site_type_symbol
 _atom_site_label
 _atom_site_symmetry_multiplicity
 _atom_site_fract_x
 _atom_site_fract_y
 _atom_site_fract_z
 _atom_site_occupancy
  Rb  Rb0  1  0.00000000  0.84651600  0.77424400  1
  Rb  Rb1  1  0.50000000  0.65348400  0.27424400  1
  Rb  Rb2  1  0.50000000  0.34651600  0.77424400  1
  Rb  Rb3  1  0.00000000  0.15348400  0.27424400  1
  H  H4  1  0.50000000  0.98802400  0.51180700  1
  H  H5  1  0.00000000  0.51197600  0.01180700  1
  H  H6  1  0.69431250  0.60801750  0.80009800  1
  H  H7  1  0.80568750  0.89198250  0.30009800  1
  H  H8  1  0.19431250  0.89198250  0.30009800  1
  H  H9  1  0.30568750  0.60801750  0.80009800  1
  H  H10  1  0.00000000  0.48802400  0.51180700  1
  H  H11  1  0.50000000  0.01197600  0.01180700  1
  H  H12  1  0.19431250  0.10801750  0.80009800  1
  H  H13  1  0.30568750  0.39198250  0.30009800  1
  H  H14  1  0.69431250  0.39198250  0.30009800  1
  H  H15  1  0.80568750  0.10801750  0.80009800  1
  O  O16  1  0.00000000  0.84059800  0.26440400  1
  O  O17  1  0.50000000  0.96810200  0.35344900  1
  O  O18  1  0.50000000  0.65940200  0.76440400  1
  O  O19  1  0.00000000  0.53189800  0.85344900  1
  O  O20  1  0.50000000  0.34059800  0.26440400  1
  O  O21  1  0.00000000  0.46810200  0.35344900  1
  O  O22  1  0.00000000  0.15940200  0.76440400  1
  O  O23  1  0.50000000  0.03189800  0.85344900  1
