# generated using pymatgen
data_P4SO7
_symmetry_space_group_name_H-M   'P 1'
_cell_length_a   7.18421200
_cell_length_b   7.41963236
_cell_length_c   8.47682148
_cell_angle_alpha   93.46697468
_cell_angle_beta   103.97822019
_cell_angle_gamma   95.36615042
_symmetry_Int_Tables_number   1
_chemical_formula_structural   P4SO7
_chemical_formula_sum   'P8 S2 O14'
_cell_volume   434.93187823
_cell_formula_units_Z   2
loop_
 _symmetry_equiv_pos_site_id
 _symmetry_equiv_pos_as_xyz
  1  'x, y, z'
loop_
 _atom_site_type_symbol
 _atom_site_label
 _atom_site_symmetry_multiplicity
 _atom_site_fract_x
 _atom_site_fract_y
 _atom_site_fract_z
 _atom_site_occupancy
  P  P0  1  0.25950500  0.24462400  0.89955800  1
  P  P1  1  0.74049500  0.75537600  0.10044200  1
  P  P2  1  0.39173100  0.73173300  0.22433200  1
  P  P3  1  0.60826900  0.26826700  0.77566800  1
  P  P4  1  0.70802000  0.01832600  0.35036100  1
  P  P5  1  0.29198000  0.98167400  0.64963900  1
  P  P6  1  0.76734200  0.64879200  0.43204600  1
  P  P7  1  0.23265800  0.35120800  0.56795400  1
  S  S8  1  0.16291500  0.27835700  0.08585700  1
  S  S9  1  0.83708500  0.72164300  0.91414300  1
  O  O10  1  0.75652300  0.20967800  0.41122400  1
  O  O11  1  0.24347700  0.79032200  0.58877600  1
  O  O12  1  0.50939800  0.71293200  0.07455700  1
  O  O13  1  0.49060200  0.28706800  0.92544300  1
  O  O14  1  0.48222900  0.94863700  0.29824000  1
  O  O15  1  0.51777100  0.05136300  0.70176000  1
  O  O16  1  0.79917500  0.87762800  0.47490600  1
  O  O17  1  0.20082500  0.12237200  0.52509400  1
  O  O18  1  0.77943600  0.96432100  0.18793700  1
  O  O19  1  0.22056400  0.03567900  0.81206300  1
  O  O20  1  0.47083900  0.37778000  0.63682100  1
  O  O21  1  0.52916100  0.62222000  0.36317900  1
  O  O22  1  0.17156900  0.35899000  0.74787900  1
  O  O23  1  0.82843100  0.64101000  0.25212100  1
