# generated using pymatgen
data_Ge19(PBr)4
_symmetry_space_group_name_H-M   'P 1'
_cell_length_a   10.57329300
_cell_length_b   10.57329300
_cell_length_c   10.57329300
_cell_angle_alpha   90.00000000
_cell_angle_beta   90.00000000
_cell_angle_gamma   90.00000000
_symmetry_Int_Tables_number   1
_chemical_formula_structural   Ge19(PBr)4
_chemical_formula_sum   'Ge38 P8 Br8'
_cell_volume   1182.03626718
_cell_formula_units_Z   2
loop_
 _symmetry_equiv_pos_site_id
 _symmetry_equiv_pos_as_xyz
  1  'x, y, z'
loop_
 _atom_site_type_symbol
 _atom_site_label
 _atom_site_symmetry_multiplicity
 _atom_site_fract_x
 _atom_site_fract_y
 _atom_site_fract_z
 _atom_site_occupancy
  Ge  Ge0  1  0.99772900  0.11847600  0.30679700  1
  Ge  Ge1  1  0.50227100  0.80679700  0.38152400  1
  Ge  Ge2  1  0.50227100  0.19320300  0.61847600  1
  Ge  Ge3  1  0.19320300  0.38152400  0.49772900  1
  Ge  Ge4  1  0.80679700  0.38152400  0.50227100  1
  Ge  Ge5  1  0.61847600  0.50227100  0.19320300  1
  Ge  Ge6  1  0.38152400  0.49772900  0.19320300  1
  Ge  Ge7  1  0.30679700  0.99772900  0.11847600  1
  Ge  Ge8  1  0.11847600  0.30679700  0.99772900  1
  Ge  Ge9  1  0.88152400  0.69320300  0.99772900  1
  Ge  Ge10  1  0.30679700  0.00227100  0.88152400  1
  Ge  Ge11  1  0.88152400  0.30679700  0.00227100  1
  Ge  Ge12  1  0.69320300  0.00227100  0.11847600  1
  Ge  Ge13  1  0.69320300  0.99772900  0.88152400  1
  Ge  Ge14  1  0.11847600  0.69320300  0.00227100  1
  Ge  Ge15  1  0.99772900  0.88152400  0.69320300  1
  Ge  Ge16  1  0.00227100  0.11847600  0.69320300  1
  Ge  Ge17  1  0.00227100  0.88152400  0.30679700  1
  Ge  Ge18  1  0.38152400  0.50227100  0.80679700  1
  Ge  Ge19  1  0.61847600  0.49772900  0.80679700  1
  Ge  Ge20  1  0.19320300  0.61847600  0.50227100  1
  Ge  Ge21  1  0.80679700  0.61847600  0.49772900  1
  Ge  Ge22  1  0.49772900  0.19320300  0.38152400  1
  Ge  Ge23  1  0.49772900  0.80679700  0.61847600  1
  Ge  Ge24  1  0.18477100  0.18477100  0.18477100  1
  Ge  Ge25  1  0.31522900  0.68477100  0.31522900  1
  Ge  Ge26  1  0.31522900  0.31522900  0.68477100  1
  Ge  Ge27  1  0.68477100  0.31522900  0.31522900  1
  Ge  Ge28  1  0.81522900  0.81522900  0.18477100  1
  Ge  Ge29  1  0.18477100  0.81522900  0.81522900  1
  Ge  Ge30  1  0.81522900  0.18477100  0.81522900  1
  Ge  Ge31  1  0.68477100  0.68477100  0.68477100  1
  Ge  Ge32  1  0.00000000  0.25000000  0.50000000  1
  Ge  Ge33  1  0.50000000  0.00000000  0.25000000  1
  Ge  Ge34  1  0.50000000  0.00000000  0.75000000  1
  Ge  Ge35  1  0.75000000  0.50000000  0.00000000  1
  Ge  Ge36  1  0.25000000  0.50000000  0.00000000  1
  Ge  Ge37  1  0.00000000  0.75000000  0.50000000  1
  P  P38  1  0.81545700  0.81545700  0.81545700  1
  P  P39  1  0.68454300  0.31545700  0.68454300  1
  P  P40  1  0.68454300  0.68454300  0.31545700  1
  P  P41  1  0.31545700  0.68454300  0.68454300  1
  P  P42  1  0.18454300  0.18454300  0.81545700  1
  P  P43  1  0.81545700  0.18454300  0.18454300  1
  P  P44  1  0.18454300  0.81545700  0.18454300  1
  P  P45  1  0.31545700  0.31545700  0.31545700  1
  Br  Br46  1  0.00000000  0.50000000  0.25000000  1
  Br  Br47  1  0.50000000  0.75000000  0.00000000  1
  Br  Br48  1  0.50000000  0.25000000  0.00000000  1
  Br  Br49  1  0.25000000  0.00000000  0.50000000  1
  Br  Br50  1  0.75000000  0.00000000  0.50000000  1
  Br  Br51  1  0.00000000  0.50000000  0.75000000  1
  Br  Br52  1  0.00000000  0.00000000  0.00000000  1
  Br  Br53  1  0.50000000  0.50000000  0.50000000  1
