# generated using pymatgen
data_Be3P2(H2O5)2
_symmetry_space_group_name_H-M   'P 1'
_cell_length_a   16.17182600
_cell_length_b   4.62384200
_cell_length_c   9.64631995
_cell_angle_alpha   90.00000000
_cell_angle_beta   94.82470547
_cell_angle_gamma   90.00000000
_symmetry_Int_Tables_number   1
_chemical_formula_structural   Be3P2(H2O5)2
_chemical_formula_sum   'Be12 P8 H16 O40'
_cell_volume   718.75707570
_cell_formula_units_Z   4
loop_
 _symmetry_equiv_pos_site_id
 _symmetry_equiv_pos_as_xyz
  1  'x, y, z'
loop_
 _atom_site_type_symbol
 _atom_site_label
 _atom_site_symmetry_multiplicity
 _atom_site_fract_x
 _atom_site_fract_y
 _atom_site_fract_z
 _atom_site_occupancy
  Be  Be0  1  0.74768000  0.45455200  0.65755900  1
  Be  Be1  1  0.75232000  0.95455200  0.84244100  1
  Be  Be2  1  0.75232000  0.04544800  0.34244100  1
  Be  Be3  1  0.74768000  0.54544800  0.15755900  1
  Be  Be4  1  0.00000000  0.81157900  0.75000000  1
  Be  Be5  1  0.00000000  0.18842100  0.25000000  1
  Be  Be6  1  0.24768000  0.95455200  0.65755900  1
  Be  Be7  1  0.25232000  0.45455200  0.84244100  1
  Be  Be8  1  0.25232000  0.54544800  0.34244100  1
  Be  Be9  1  0.24768000  0.04544800  0.15755900  1
  Be  Be10  1  0.50000000  0.31157900  0.75000000  1
  Be  Be11  1  0.50000000  0.68842100  0.25000000  1
  P  P12  1  0.65559600  0.45787900  0.89469700  1
  P  P13  1  0.65559600  0.54212100  0.39469700  1
  P  P14  1  0.84440400  0.04212100  0.10530300  1
  P  P15  1  0.84440400  0.95787900  0.60530300  1
  P  P16  1  0.15559600  0.95787900  0.89469700  1
  P  P17  1  0.15559600  0.04212100  0.39469700  1
  P  P18  1  0.34440400  0.54212100  0.10530300  1
  P  P19  1  0.34440400  0.45787900  0.60530300  1
  H  H20  1  0.56618950  0.90265250  0.68860700  1
  H  H21  1  0.59139500  0.82611800  0.09577400  1
  H  H22  1  0.90860500  0.32611800  0.40422600  1
  H  H23  1  0.90860500  0.67388200  0.90422600  1
  H  H24  1  0.59139500  0.17388200  0.59577400  1
  H  H25  1  0.56618950  0.09734750  0.18860700  1
  H  H26  1  0.93381050  0.59734750  0.31139300  1
  H  H27  1  0.93381050  0.40265250  0.81139300  1
  H  H28  1  0.06618950  0.40265250  0.68860700  1
  H  H29  1  0.09139500  0.32611800  0.09577400  1
  H  H30  1  0.40860500  0.82611800  0.40422600  1
  H  H31  1  0.40860500  0.17388200  0.90422600  1
  H  H32  1  0.09139500  0.67388200  0.59577400  1
  H  H33  1  0.06618950  0.59734750  0.18860700  1
  H  H34  1  0.43381050  0.09734750  0.31139300  1
  H  H35  1  0.43381050  0.90265250  0.81139300  1
  O  O36  1  0.67679800  0.13587200  0.89156800  1
  O  O37  1  0.67679800  0.86412800  0.39156800  1
  O  O38  1  0.82320200  0.36412800  0.10843200  1
  O  O39  1  0.82320200  0.63587200  0.60843200  1
  O  O40  1  0.83251200  0.91878800  0.95620600  1
  O  O41  1  0.54613650  0.91541250  0.14567200  1
  O  O42  1  0.66748800  0.58121200  0.04379400  1
  O  O43  1  0.83251200  0.08121200  0.45620600  1
  O  O44  1  0.78164300  0.88114800  0.19907100  1
  O  O45  1  0.71835700  0.38114800  0.30092900  1
  O  O46  1  0.71835700  0.61885200  0.80092900  1
  O  O47  1  0.78164300  0.11885200  0.69907100  1
  O  O48  1  0.66748800  0.41878800  0.54379400  1
  O  O49  1  0.95386350  0.41541250  0.35432800  1
  O  O50  1  0.95386350  0.58458750  0.85432800  1
  O  O51  1  0.54613650  0.08458750  0.64567200  1
  O  O52  1  0.56693650  0.51937550  0.83219000  1
  O  O53  1  0.56693650  0.48062450  0.33219000  1
  O  O54  1  0.93306350  0.98062450  0.16781000  1
  O  O55  1  0.93306350  0.01937550  0.66781000  1
  O  O56  1  0.17679800  0.63587200  0.89156800  1
  O  O57  1  0.17679800  0.36412800  0.39156800  1
  O  O58  1  0.32320200  0.86412800  0.10843200  1
  O  O59  1  0.32320200  0.13587200  0.60843200  1
  O  O60  1  0.33251200  0.41878800  0.95620600  1
  O  O61  1  0.04613650  0.41541250  0.14567200  1
  O  O62  1  0.16748800  0.08121200  0.04379400  1
  O  O63  1  0.33251200  0.58121200  0.45620600  1
  O  O64  1  0.28164300  0.38114800  0.19907100  1
  O  O65  1  0.21835700  0.88114800  0.30092900  1
  O  O66  1  0.21835700  0.11885200  0.80092900  1
  O  O67  1  0.28164300  0.61885200  0.69907100  1
  O  O68  1  0.16748800  0.91878800  0.54379400  1
  O  O69  1  0.45386350  0.91541250  0.35432800  1
  O  O70  1  0.45386350  0.08458750  0.85432800  1
  O  O71  1  0.04613650  0.58458750  0.64567200  1
  O  O72  1  0.06693650  0.01937550  0.83219000  1
  O  O73  1  0.06693650  0.98062450  0.33219000  1
  O  O74  1  0.43306350  0.48062450  0.16781000  1
  O  O75  1  0.43306350  0.51937550  0.66781000  1
