# generated using pymatgen
data_Nb3CuO8
_symmetry_space_group_name_H-M   'P 1'
_cell_length_a   7.66205700
_cell_length_b   5.10103300
_cell_length_c   15.56287317
_cell_angle_alpha   90.00000000
_cell_angle_beta   107.16848578
_cell_angle_gamma   90.00000000
_symmetry_Int_Tables_number   1
_chemical_formula_structural   Nb3CuO8
_chemical_formula_sum   'Nb12 Cu4 O32'
_cell_volume   581.16185612
_cell_formula_units_Z   4
loop_
 _symmetry_equiv_pos_site_id
 _symmetry_equiv_pos_as_xyz
  1  'x, y, z'
loop_
 _atom_site_type_symbol
 _atom_site_label
 _atom_site_symmetry_multiplicity
 _atom_site_fract_x
 _atom_site_fract_y
 _atom_site_fract_z
 _atom_site_occupancy
  Nb  Nb0  1  0.51712500  0.25963900  0.16492400  1
  Nb  Nb1  1  0.48287500  0.75963900  0.33507600  1
  Nb  Nb2  1  0.48287500  0.74036100  0.83507600  1
  Nb  Nb3  1  0.51712500  0.24036100  0.66492400  1
  Nb  Nb4  1  0.25141100  0.75416100  0.07589700  1
  Nb  Nb5  1  0.74858900  0.25416100  0.42410300  1
  Nb  Nb6  1  0.74858900  0.24583900  0.92410300  1
  Nb  Nb7  1  0.25141100  0.74583900  0.57589700  1
  Nb  Nb8  1  0.00796100  0.26455000  0.16732300  1
  Nb  Nb9  1  0.99203900  0.76455000  0.33267700  1
  Nb  Nb10  1  0.99203900  0.73545000  0.83267700  1
  Nb  Nb11  1  0.00796100  0.23545000  0.66732300  1
  Cu  Cu12  1  0.26607400  0.25815100  0.42224000  1
  Cu  Cu13  1  0.73392600  0.75815100  0.07776000  1
  Cu  Cu14  1  0.73392600  0.74184900  0.57776000  1
  Cu  Cu15  1  0.26607400  0.24184900  0.92224000  1
  O  O16  1  0.21967600  0.08041400  0.15473500  1
  O  O17  1  0.78032400  0.58041400  0.34526500  1
  O  O18  1  0.78032400  0.91958600  0.84526500  1
  O  O19  1  0.21967600  0.41958600  0.65473500  1
  O  O20  1  0.04223200  0.57492100  0.10003900  1
  O  O21  1  0.95776800  0.07492100  0.39996100  1
  O  O22  1  0.95776800  0.42507900  0.89996100  1
  O  O23  1  0.04223200  0.92507900  0.60003900  1
  O  O24  1  0.35163700  0.42779800  0.04777900  1
  O  O25  1  0.64836300  0.92779800  0.45222100  1
  O  O26  1  0.64836300  0.57220200  0.95222100  1
  O  O27  1  0.35163700  0.07220200  0.54777900  1
  O  O28  1  0.50274000  0.93298600  0.09926700  1
  O  O29  1  0.49726000  0.43298600  0.40073300  1
  O  O30  1  0.49726000  0.06701400  0.90073300  1
  O  O31  1  0.50274000  0.56701400  0.59926700  1
  O  O32  1  0.08350500  0.06948800  0.78080700  1
  O  O33  1  0.91649500  0.56948800  0.71919300  1
  O  O34  1  0.91649500  0.93051200  0.21919300  1
  O  O35  1  0.08350500  0.43051200  0.28080700  1
  O  O36  1  0.73375300  0.09780300  0.65335000  1
  O  O37  1  0.26624700  0.59780300  0.84665000  1
  O  O38  1  0.26624700  0.90219700  0.34665000  1
  O  O39  1  0.73375300  0.40219700  0.15335000  1
  O  O40  1  0.41560900  0.91504000  0.71598100  1
  O  O41  1  0.58439100  0.41504000  0.78401900  1
  O  O42  1  0.58439100  0.08496000  0.28401900  1
  O  O43  1  0.41560900  0.58496000  0.21598100  1
  O  O44  1  0.84795800  0.40041200  0.53888100  1
  O  O45  1  0.15204200  0.90041200  0.96111900  1
  O  O46  1  0.15204200  0.59958800  0.46111900  1
  O  O47  1  0.84795800  0.09958800  0.03888100  1
