# generated using pymatgen
data_Sm10Se19
_symmetry_space_group_name_H-M   'P 1'
_cell_length_a   9.24002600
_cell_length_b   9.24002600
_cell_length_c   16.89414600
_cell_angle_alpha   90.00000000
_cell_angle_beta   90.00000000
_cell_angle_gamma   90.00000000
_symmetry_Int_Tables_number   1
_chemical_formula_structural   Sm10Se19
_chemical_formula_sum   'Sm20 Se38'
_cell_volume   1442.38975684
_cell_formula_units_Z   2
loop_
 _symmetry_equiv_pos_site_id
 _symmetry_equiv_pos_as_xyz
  1  'x, y, z'
loop_
 _atom_site_type_symbol
 _atom_site_label
 _atom_site_symmetry_multiplicity
 _atom_site_fract_x
 _atom_site_fract_y
 _atom_site_fract_z
 _atom_site_occupancy
  Sm  Sm0  1  0.30303600  0.60288300  0.14361700  1
  Sm  Sm1  1  0.89711700  0.80303600  0.64361700  1
  Sm  Sm2  1  0.10288300  0.19696400  0.64361700  1
  Sm  Sm3  1  0.69696400  0.39711700  0.14361700  1
  Sm  Sm4  1  0.19696400  0.89711700  0.35638300  1
  Sm  Sm5  1  0.60288300  0.69696400  0.85638300  1
  Sm  Sm6  1  0.39711700  0.30303600  0.85638300  1
  Sm  Sm7  1  0.80303600  0.10288300  0.35638300  1
  Sm  Sm8  1  0.29295000  0.59755000  0.63045200  1
  Sm  Sm9  1  0.90245000  0.79295000  0.13045200  1
  Sm  Sm10  1  0.09755000  0.20705000  0.13045200  1
  Sm  Sm11  1  0.70705000  0.40245000  0.63045200  1
  Sm  Sm12  1  0.20705000  0.90245000  0.86954800  1
  Sm  Sm13  1  0.59755000  0.70705000  0.36954800  1
  Sm  Sm14  1  0.40245000  0.29295000  0.36954800  1
  Sm  Sm15  1  0.79295000  0.09755000  0.86954800  1
  Sm  Sm16  1  0.00000000  0.50000000  0.86703300  1
  Sm  Sm17  1  0.00000000  0.50000000  0.36703300  1
  Sm  Sm18  1  0.50000000  0.00000000  0.63296700  1
  Sm  Sm19  1  0.50000000  0.00000000  0.13296700  1
  Se  Se20  1  0.50000000  0.50000000  0.50000000  1
  Se  Se21  1  0.00000000  0.00000000  0.00000000  1
  Se  Se22  1  0.92326500  0.27949600  0.49995700  1
  Se  Se23  1  0.22050400  0.42326500  0.99995700  1
  Se  Se24  1  0.77949600  0.57673500  0.99995700  1
  Se  Se25  1  0.07673500  0.72050400  0.49995700  1
  Se  Se26  1  0.57673500  0.22050400  0.00004300  1
  Se  Se27  1  0.27949600  0.07673500  0.50004300  1
  Se  Se28  1  0.72050400  0.92326500  0.50004300  1
  Se  Se29  1  0.42326500  0.77949600  0.00004300  1
  Se  Se30  1  0.40239200  0.29888900  0.67956500  1
  Se  Se31  1  0.20111100  0.90239200  0.17956500  1
  Se  Se32  1  0.79888900  0.09760800  0.17956500  1
  Se  Se33  1  0.59760800  0.70111100  0.67956500  1
  Se  Se34  1  0.09760800  0.20111100  0.82043500  1
  Se  Se35  1  0.29888900  0.59760800  0.32043500  1
  Se  Se36  1  0.70111100  0.40239200  0.32043500  1
  Se  Se37  1  0.90239200  0.79888900  0.82043500  1
  Se  Se38  1  0.39950700  0.30264200  0.18714700  1
  Se  Se39  1  0.19735800  0.89950700  0.68714700  1
  Se  Se40  1  0.87042000  0.31321500  0.00065700  1
  Se  Se41  1  0.18678500  0.37042000  0.50065700  1
  Se  Se42  1  0.81321500  0.62958000  0.50065700  1
  Se  Se43  1  0.12958000  0.68678500  0.00065700  1
  Se  Se44  1  0.62958000  0.18678500  0.49934300  1
  Se  Se45  1  0.31321500  0.12958000  0.99934300  1
  Se  Se46  1  0.68678500  0.87042000  0.99934300  1
  Se  Se47  1  0.37042000  0.81321500  0.49934300  1
  Se  Se48  1  0.50000000  0.00000000  0.81400000  1
  Se  Se49  1  0.50000000  0.00000000  0.31400000  1
  Se  Se50  1  0.00000000  0.50000000  0.68600000  1
  Se  Se51  1  0.00000000  0.50000000  0.18600000  1
  Se  Se52  1  0.89950700  0.80264200  0.31285300  1
  Se  Se53  1  0.69735800  0.39950700  0.81285300  1
  Se  Se54  1  0.30264200  0.60049300  0.81285300  1
  Se  Se55  1  0.10049300  0.19735800  0.31285300  1
  Se  Se56  1  0.60049300  0.69735800  0.18714700  1
  Se  Se57  1  0.80264200  0.10049300  0.68714700  1
