# generated using pymatgen
data_LiLa4CuO8
_symmetry_space_group_name_H-M   'P 1'
_cell_length_a   5.31234400
_cell_length_b   13.19565400
_cell_length_c   5.30500300
_cell_angle_alpha   90.00000000
_cell_angle_beta   90.00000000
_cell_angle_gamma   90.00000000
_symmetry_Int_Tables_number   1
_chemical_formula_structural   LiLa4CuO8
_chemical_formula_sum   'Li2 La8 Cu2 O16'
_cell_volume   371.87993234
_cell_formula_units_Z   2
loop_
 _symmetry_equiv_pos_site_id
 _symmetry_equiv_pos_as_xyz
  1  'x, y, z'
loop_
 _atom_site_type_symbol
 _atom_site_label
 _atom_site_symmetry_multiplicity
 _atom_site_fract_x
 _atom_site_fract_y
 _atom_site_fract_z
 _atom_site_occupancy
  Li  Li0  1  0.50000000  0.00000000  0.50000000  1
  Li  Li1  1  0.00000000  0.50000000  0.50000000  1
  La  La2  1  0.00000000  0.13941800  0.50000000  1
  La  La3  1  0.50000000  0.36058200  0.50000000  1
  La  La4  1  0.50000000  0.13794800  0.00000000  1
  La  La5  1  0.00000000  0.36205200  0.00000000  1
  La  La6  1  0.50000000  0.63941800  0.50000000  1
  La  La7  1  0.00000000  0.86058200  0.50000000  1
  La  La8  1  0.00000000  0.63794800  0.00000000  1
  La  La9  1  0.50000000  0.86205200  0.00000000  1
  Cu  Cu10  1  0.00000000  0.00000000  0.00000000  1
  Cu  Cu11  1  0.50000000  0.50000000  0.00000000  1
  O  O12  1  0.24297400  0.00000000  0.24490900  1
  O  O13  1  0.50000000  0.31381500  0.00000000  1
  O  O14  1  0.00000000  0.18618500  0.00000000  1
  O  O15  1  0.50000000  0.17944400  0.50000000  1
  O  O16  1  0.00000000  0.32055600  0.50000000  1
  O  O17  1  0.75702600  0.00000000  0.75509100  1
  O  O18  1  0.75702600  0.00000000  0.24490900  1
  O  O19  1  0.24297400  0.00000000  0.75509100  1
  O  O20  1  0.74297400  0.50000000  0.24490900  1
  O  O21  1  0.00000000  0.81381500  0.00000000  1
  O  O22  1  0.50000000  0.68618500  0.00000000  1
  O  O23  1  0.00000000  0.67944400  0.50000000  1
  O  O24  1  0.50000000  0.82055600  0.50000000  1
  O  O25  1  0.25702600  0.50000000  0.75509100  1
  O  O26  1  0.25702600  0.50000000  0.24490900  1
  O  O27  1  0.74297400  0.50000000  0.75509100  1
