# generated using pymatgen
data_SnPO4
_symmetry_space_group_name_H-M   'P 1'
_cell_length_a   4.91554400
_cell_length_b   8.26990600
_cell_length_c   18.45258900
_cell_angle_alpha   90.00000000
_cell_angle_beta   90.00000000
_cell_angle_gamma   90.00000000
_symmetry_Int_Tables_number   1
_chemical_formula_structural   SnPO4
_chemical_formula_sum   'Sn8 P8 O32'
_cell_volume   750.11779747
_cell_formula_units_Z   8
loop_
 _symmetry_equiv_pos_site_id
 _symmetry_equiv_pos_as_xyz
  1  'x, y, z'
loop_
 _atom_site_type_symbol
 _atom_site_label
 _atom_site_symmetry_multiplicity
 _atom_site_fract_x
 _atom_site_fract_y
 _atom_site_fract_z
 _atom_site_occupancy
  Sn  Sn0  1  0.55611600  0.05383200  0.77905600  1
  Sn  Sn1  1  0.47498600  0.17924200  0.55047400  1
  Sn  Sn2  1  0.97498600  0.32075800  0.05047400  1
  Sn  Sn3  1  0.05611600  0.44616800  0.27905600  1
  Sn  Sn4  1  0.55611600  0.55383200  0.72094400  1
  Sn  Sn5  1  0.47498600  0.67924200  0.94952600  1
  Sn  Sn6  1  0.97498600  0.82075800  0.44952600  1
  Sn  Sn7  1  0.05611600  0.94616800  0.22094400  1
  P  P8  1  0.94355100  0.25119700  0.66254200  1
  P  P9  1  0.93006200  0.22902900  0.44265300  1
  P  P10  1  0.43006200  0.27097100  0.94265300  1
  P  P11  1  0.44355100  0.24880300  0.16254200  1
  P  P12  1  0.94355100  0.75119700  0.83745800  1
  P  P13  1  0.93006200  0.72902900  0.05734700  1
  P  P14  1  0.43006200  0.77097100  0.55734700  1
  P  P15  1  0.44355100  0.74880300  0.33745800  1
  O  O16  1  0.81924900  0.05023900  0.45299400  1
  O  O17  1  0.79165800  0.11910000  0.61551300  1
  O  O18  1  0.31836600  0.08104500  0.14826000  1
  O  O19  1  0.23580600  0.17260500  0.99286500  1
  O  O20  1  0.92337100  0.19895900  0.74241000  1
  O  O21  1  0.42300800  0.21821100  0.86385000  1
  O  O22  1  0.75159000  0.24525300  0.13843900  1
  O  O23  1  0.22661900  0.24230500  0.46932800  1
  O  O24  1  0.72661900  0.25769500  0.96932800  1
  O  O25  1  0.25159000  0.25474700  0.63843900  1
  O  O26  1  0.92300800  0.28178900  0.36385000  1
  O  O27  1  0.42337100  0.30104100  0.24241000  1
  O  O28  1  0.73580600  0.32739500  0.49286500  1
  O  O29  1  0.81836600  0.41895500  0.64826000  1
  O  O30  1  0.29165800  0.38090000  0.11551300  1
  O  O31  1  0.31924900  0.44976100  0.95299400  1
  O  O32  1  0.81924900  0.55023900  0.04700600  1
  O  O33  1  0.79165800  0.61910000  0.88448700  1
  O  O34  1  0.31836600  0.58104500  0.35174000  1
  O  O35  1  0.23580600  0.67260500  0.50713500  1
  O  O36  1  0.92337100  0.69895900  0.75759000  1
  O  O37  1  0.42300800  0.71821100  0.63615000  1
  O  O38  1  0.75159000  0.74525300  0.36156100  1
  O  O39  1  0.22661900  0.74230500  0.03067200  1
  O  O40  1  0.72661900  0.75769500  0.53067200  1
  O  O41  1  0.25159000  0.75474700  0.86156100  1
  O  O42  1  0.92300800  0.78178900  0.13615000  1
  O  O43  1  0.42337100  0.80104100  0.25759000  1
  O  O44  1  0.73580600  0.82739500  0.00713500  1
  O  O45  1  0.81836600  0.91895500  0.85174000  1
  O  O46  1  0.29165800  0.88090000  0.38448700  1
  O  O47  1  0.31924900  0.94976100  0.54700600  1
