# generated using pymatgen
data_KH3F4
_symmetry_space_group_name_H-M   'P 1'
_cell_length_a   7.47977028
_cell_length_b   7.47977028
_cell_length_c   12.40281200
_cell_angle_alpha   90.00000000
_cell_angle_beta   90.00000000
_cell_angle_gamma   120.00000000
_symmetry_Int_Tables_number   1
_chemical_formula_structural   KH3F4
_chemical_formula_sum   'K6 H18 F24'
_cell_volume   600.93474068
_cell_formula_units_Z   6
loop_
 _symmetry_equiv_pos_site_id
 _symmetry_equiv_pos_as_xyz
  1  'x, y, z'
loop_
 _atom_site_type_symbol
 _atom_site_label
 _atom_site_symmetry_multiplicity
 _atom_site_fract_x
 _atom_site_fract_y
 _atom_site_fract_z
 _atom_site_occupancy
  K  K0  1  0.00000000  0.00000000  0.00000000  1
  K  K1  1  0.33333333  0.66666667  0.16666667  1
  K  K2  1  0.66666667  0.33333333  0.33333333  1
  K  K3  1  0.00000000  0.00000000  0.50000000  1
  K  K4  1  0.33333333  0.66666667  0.66666667  1
  K  K5  1  0.66666667  0.33333333  0.83333333  1
  H  H6  1  0.33333333  0.85463367  0.91666667  1
  H  H7  1  0.14536633  0.47869967  0.91666667  1
  H  H8  1  0.52130033  0.85463367  0.41666667  1
  H  H9  1  0.14536633  0.66666667  0.41666667  1
  H  H10  1  0.52130033  0.66666667  0.91666667  1
  H  H11  1  0.33333333  0.47869967  0.41666667  1
  H  H12  1  0.00000000  0.18796700  0.25000000  1
  H  H13  1  0.81203300  0.81203300  0.25000000  1
  H  H14  1  0.18796700  0.18796700  0.75000000  1
  H  H15  1  0.81203300  0.00000000  0.75000000  1
  H  H16  1  0.18796700  0.00000000  0.25000000  1
  H  H17  1  0.00000000  0.81203300  0.75000000  1
  H  H18  1  0.66666667  0.52130033  0.58333333  1
  H  H19  1  0.47869967  0.14536633  0.58333333  1
  H  H20  1  0.85463367  0.52130033  0.08333333  1
  H  H21  1  0.47869967  0.33333333  0.08333333  1
  H  H22  1  0.85463367  0.33333333  0.58333333  1
  H  H23  1  0.66666667  0.14536633  0.08333333  1
  F  F24  1  0.98851167  0.65517833  0.08333333  1
  F  F25  1  0.32184500  0.00000000  0.25000000  1
  F  F26  1  0.67815500  0.67815500  0.25000000  1
  F  F27  1  1.00000000  0.32184500  0.25000000  1
  F  F28  1  0.33333333  0.66666667  0.91666667  1
  F  F29  1  0.33333333  0.66666667  0.41666667  1
  F  F30  1  0.66666667  0.01148833  0.08333333  1
  F  F31  1  0.34482167  0.33333333  0.08333333  1
  F  F32  1  0.65517833  0.98851167  0.41666667  1
  F  F33  1  0.98851167  0.33333333  0.58333333  1
  F  F34  1  0.34482167  0.01148833  0.58333333  1
  F  F35  1  0.66666667  0.65517833  0.58333333  1
  F  F36  1  0.00000000  0.00000000  0.25000000  1
  F  F37  1  0.00000000  0.00000000  0.75000000  1
  F  F38  1  0.33333333  0.34482167  0.41666667  1
  F  F39  1  0.01148833  0.66666667  0.41666667  1
  F  F40  1  0.32184500  0.32184500  0.75000000  1
  F  F41  1  0.65517833  0.66666667  0.91666667  1
  F  F42  1  0.01148833  0.34482167  0.91666667  1
  F  F43  1  0.33333333  0.98851167  0.91666667  1
  F  F44  1  0.66666667  0.33333333  0.58333333  1
  F  F45  1  0.66666667  0.33333333  0.08333333  1
  F  F46  1  0.00000000  0.67815500  0.75000000  1
  F  F47  1  0.67815500  1.00000000  0.75000000  1
