# generated using pymatgen
data_KEu2I5
_symmetry_space_group_name_H-M   'P 1'
_cell_length_a   10.03183300
_cell_length_b   9.01445600
_cell_length_c   14.39539146
_cell_angle_alpha   90.00000000
_cell_angle_beta   90.14557007
_cell_angle_gamma   90.00000000
_symmetry_Int_Tables_number   1
_chemical_formula_structural   KEu2I5
_chemical_formula_sum   'K4 Eu8 I20'
_cell_volume   1301.79288865
_cell_formula_units_Z   4
loop_
 _symmetry_equiv_pos_site_id
 _symmetry_equiv_pos_as_xyz
  1  'x, y, z'
loop_
 _atom_site_type_symbol
 _atom_site_label
 _atom_site_symmetry_multiplicity
 _atom_site_fract_x
 _atom_site_fract_y
 _atom_site_fract_z
 _atom_site_occupancy
  K  K0  1  0.50771800  0.54897200  0.32920900  1
  K  K1  1  0.49228200  0.04897200  0.17079100  1
  K  K2  1  0.49228200  0.45102800  0.67079100  1
  K  K3  1  0.50771800  0.95102800  0.82920900  1
  Eu  Eu4  1  0.00310300  0.52516000  0.31973100  1
  Eu  Eu5  1  0.24891500  0.57320900  0.00571700  1
  Eu  Eu6  1  0.75108500  0.07320900  0.49428300  1
  Eu  Eu7  1  0.75108500  0.42679100  0.99428300  1
  Eu  Eu8  1  0.24891500  0.92679100  0.50571700  1
  Eu  Eu9  1  0.00310300  0.97484000  0.81973100  1
  Eu  Eu10  1  0.99689700  0.47484000  0.68026900  1
  Eu  Eu11  1  0.99689700  0.02516000  0.18026900  1
  I  I12  1  0.76887400  0.31115300  0.21585000  1
  I  I13  1  0.78045100  0.66501500  0.81724300  1
  I  I14  1  0.21954900  0.16501500  0.68275700  1
  I  I15  1  0.21954900  0.33498500  0.18275700  1
  I  I16  1  0.78045100  0.83498500  0.31724300  1
  I  I17  1  0.23112600  0.68884700  0.78415000  1
  I  I18  1  0.76887400  0.18884700  0.71585000  1
  I  I19  1  0.21621300  0.54390800  0.50239800  1
  I  I20  1  0.95944700  0.66165700  0.09979500  1
  I  I21  1  0.04055300  0.16165700  0.40020500  1
  I  I22  1  0.04055300  0.33834300  0.90020500  1
  I  I23  1  0.95944700  0.83834300  0.59979500  1
  I  I24  1  0.78378700  0.45609200  0.49760200  1
  I  I25  1  0.78378700  0.04390800  0.99760200  1
  I  I26  1  0.53710400  0.82562400  0.58554200  1
  I  I27  1  0.21621300  0.95609200  0.00239800  1
  I  I28  1  0.53710400  0.67437600  0.08554200  1
  I  I29  1  0.46289600  0.17437600  0.41445800  1
  I  I30  1  0.46289600  0.32562400  0.91445800  1
  I  I31  1  0.23112600  0.81115300  0.28415000  1
