# generated using pymatgen
data_USCl9
_symmetry_space_group_name_H-M   'P 1'
_cell_length_a   11.07882700
_cell_length_b   11.16055400
_cell_length_c   11.70112200
_cell_angle_alpha   90.00000000
_cell_angle_beta   90.00000000
_cell_angle_gamma   90.00000000
_symmetry_Int_Tables_number   1
_chemical_formula_structural   USCl9
_chemical_formula_sum   'U4 S4 Cl36'
_cell_volume   1446.79514043
_cell_formula_units_Z   4
loop_
 _symmetry_equiv_pos_site_id
 _symmetry_equiv_pos_as_xyz
  1  'x, y, z'
loop_
 _atom_site_type_symbol
 _atom_site_label
 _atom_site_symmetry_multiplicity
 _atom_site_fract_x
 _atom_site_fract_y
 _atom_site_fract_z
 _atom_site_occupancy
  U  U0  1  0.32559900  0.22355800  0.76781900  1
  U  U1  1  0.67440100  0.72355800  0.73218100  1
  U  U2  1  0.82559900  0.27644200  0.23218100  1
  U  U3  1  0.17440100  0.77644200  0.26781900  1
  S  S4  1  0.28948600  0.32561800  0.34088400  1
  S  S5  1  0.21051400  0.67438200  0.84088400  1
  S  S6  1  0.78948600  0.17438200  0.65911600  1
  S  S7  1  0.71051400  0.82561800  0.15911600  1
  Cl  Cl8  1  0.14844700  0.58099800  0.37935100  1
  Cl  Cl9  1  0.85155300  0.08099800  0.12064900  1
  Cl  Cl10  1  0.64844700  0.91900200  0.62064900  1
  Cl  Cl11  1  0.35155300  0.41900200  0.87935100  1
  Cl  Cl12  1  0.29320600  0.66209200  0.11533000  1
  Cl  Cl13  1  0.70679400  0.16209200  0.38467000  1
  Cl  Cl14  1  0.79320600  0.83790800  0.88467000  1
  Cl  Cl15  1  0.20679400  0.33790800  0.61533000  1
  Cl  Cl16  1  0.36549000  0.81951900  0.37819300  1
  Cl  Cl17  1  0.63451000  0.31951900  0.12180700  1
  Cl  Cl18  1  0.86549000  0.68048100  0.62180700  1
  Cl  Cl19  1  0.13451000  0.18048100  0.87819300  1
  Cl  Cl20  1  0.05379800  0.88658600  0.41639700  1
  Cl  Cl21  1  0.94620200  0.38658600  0.08360300  1
  Cl  Cl22  1  0.55379800  0.61341400  0.58360300  1
  Cl  Cl23  1  0.44620200  0.11341400  0.91639700  1
  Cl  Cl24  1  0.20645500  0.96629100  0.15548700  1
  Cl  Cl25  1  0.79354500  0.46629100  0.34451300  1
  Cl  Cl26  1  0.70645500  0.53370900  0.84451300  1
  Cl  Cl27  1  0.29354500  0.03370900  0.65548700  1
  Cl  Cl28  1  0.98108200  0.73408000  0.15620500  1
  Cl  Cl29  1  0.01891800  0.23408000  0.34379500  1
  Cl  Cl30  1  0.48108200  0.76592000  0.84379500  1
  Cl  Cl31  1  0.51891800  0.26592000  0.65620500  1
  Cl  Cl32  1  0.06124400  0.57993300  0.87688400  1
  Cl  Cl33  1  0.43875600  0.42006700  0.37688400  1
  Cl  Cl34  1  0.56124400  0.92006700  0.12311600  1
  Cl  Cl35  1  0.93875600  0.07993300  0.62311600  1
  Cl  Cl36  1  0.28289900  0.33094800  0.16983000  1
  Cl  Cl37  1  0.71710100  0.83094800  0.33017000  1
  Cl  Cl38  1  0.78289900  0.16905200  0.83017000  1
  Cl  Cl39  1  0.21710100  0.66905200  0.66983000  1
  Cl  Cl40  1  0.34141400  0.15725000  0.37330600  1
  Cl  Cl41  1  0.65858600  0.65725000  0.12669400  1
  Cl  Cl42  1  0.84141400  0.34275000  0.62669400  1
  Cl  Cl43  1  0.15858600  0.84275000  0.87330600  1
