# generated using pymatgen
data_CsB3H8
_symmetry_space_group_name_H-M   'P 1'
_cell_length_a   7.49348400
_cell_length_b   8.73796600
_cell_length_c   9.12136700
_cell_angle_alpha   90.00000000
_cell_angle_beta   90.00000000
_cell_angle_gamma   90.00000000
_symmetry_Int_Tables_number   1
_chemical_formula_structural   CsB3H8
_chemical_formula_sum   'Cs4 B12 H32'
_cell_volume   597.24712090
_cell_formula_units_Z   4
loop_
 _symmetry_equiv_pos_site_id
 _symmetry_equiv_pos_as_xyz
  1  'x, y, z'
loop_
 _atom_site_type_symbol
 _atom_site_label
 _atom_site_symmetry_multiplicity
 _atom_site_fract_x
 _atom_site_fract_y
 _atom_site_fract_z
 _atom_site_occupancy
  Cs  Cs0  1  0.50000000  0.17792200  0.75000000  1
  Cs  Cs1  1  0.50000000  0.82207800  0.25000000  1
  Cs  Cs2  1  0.00000000  0.67792200  0.75000000  1
  Cs  Cs3  1  0.00000000  0.32207800  0.25000000  1
  B  B4  1  0.50000000  0.60260700  0.75000000  1
  B  B5  1  0.50000000  0.39739300  0.25000000  1
  B  B6  1  0.50000000  0.77762800  0.65125700  1
  B  B7  1  0.50000000  0.22237200  0.34874300  1
  B  B8  1  0.50000000  0.77762800  0.84874300  1
  B  B9  1  0.50000000  0.22237200  0.15125700  1
  B  B10  1  0.00000000  0.10260700  0.75000000  1
  B  B11  1  0.00000000  0.89739300  0.25000000  1
  B  B12  1  0.00000000  0.27762800  0.65125700  1
  B  B13  1  0.00000000  0.72237200  0.34874300  1
  B  B14  1  0.00000000  0.27762800  0.84874300  1
  B  B15  1  0.00000000  0.72237200  0.15125700  1
  H  H16  1  0.50000000  0.64516500  0.90578700  1
  H  H17  1  0.50000000  0.35483500  0.09421300  1
  H  H18  1  0.50000000  0.64516500  0.59421300  1
  H  H19  1  0.50000000  0.35483500  0.40578700  1
  H  H20  1  0.13546400  0.02761400  0.75000000  1
  H  H21  1  0.13546400  0.97238600  0.25000000  1
  H  H22  1  0.86453600  0.02761400  0.75000000  1
  H  H23  1  0.86453600  0.97238600  0.25000000  1
  H  H24  1  0.63226700  0.16352100  0.39444700  1
  H  H25  1  0.63226700  0.83647900  0.60555300  1
  H  H26  1  0.63226700  0.16352100  0.10555300  1
  H  H27  1  0.63226700  0.83647900  0.89444700  1
  H  H28  1  0.36773300  0.16352100  0.39444700  1
  H  H29  1  0.36773300  0.83647900  0.60555300  1
  H  H30  1  0.36773300  0.16352100  0.10555300  1
  H  H31  1  0.36773300  0.83647900  0.89444700  1
  H  H32  1  0.00000000  0.14516500  0.90578700  1
  H  H33  1  0.00000000  0.85483500  0.09421300  1
  H  H34  1  0.00000000  0.14516500  0.59421300  1
  H  H35  1  0.00000000  0.85483500  0.40578700  1
  H  H36  1  0.63546400  0.52761400  0.75000000  1
  H  H37  1  0.63546400  0.47238600  0.25000000  1
  H  H38  1  0.36453600  0.52761400  0.75000000  1
  H  H39  1  0.36453600  0.47238600  0.25000000  1
  H  H40  1  0.13226700  0.66352100  0.39444700  1
  H  H41  1  0.13226700  0.33647900  0.60555300  1
  H  H42  1  0.13226700  0.66352100  0.10555300  1
  H  H43  1  0.13226700  0.33647900  0.89444700  1
  H  H44  1  0.86773300  0.66352100  0.39444700  1
  H  H45  1  0.86773300  0.33647900  0.60555300  1
  H  H46  1  0.86773300  0.66352100  0.10555300  1
  H  H47  1  0.86773300  0.33647900  0.89444700  1
