# generated using pymatgen
data_Mg3P2
_symmetry_space_group_name_H-M   'P 1'
_cell_length_a   12.06932200
_cell_length_b   12.06932200
_cell_length_c   12.06932200
_cell_angle_alpha   90.00000000
_cell_angle_beta   90.00000000
_cell_angle_gamma   90.00000000
_symmetry_Int_Tables_number   1
_chemical_formula_structural   Mg3P2
_chemical_formula_sum   'Mg48 P32'
_cell_volume   1758.12043656
_cell_formula_units_Z   16
loop_
 _symmetry_equiv_pos_site_id
 _symmetry_equiv_pos_as_xyz
  1  'x, y, z'
loop_
 _atom_site_type_symbol
 _atom_site_label
 _atom_site_symmetry_multiplicity
 _atom_site_fract_x
 _atom_site_fract_y
 _atom_site_fract_z
 _atom_site_occupancy
  Mg  Mg0  1  0.14626900  0.37971600  0.38649800  1
  Mg  Mg1  1  0.37971600  0.61350200  0.35373100  1
  Mg  Mg2  1  0.11350200  0.14626900  0.62028400  1
  Mg  Mg3  1  0.62028400  0.88649800  0.35373100  1
  Mg  Mg4  1  0.61350200  0.35373100  0.37971600  1
  Mg  Mg5  1  0.62028400  0.11350200  0.14626900  1
  Mg  Mg6  1  0.88649800  0.35373100  0.62028400  1
  Mg  Mg7  1  0.38649800  0.14626900  0.37971600  1
  Mg  Mg8  1  0.37971600  0.38649800  0.14626900  1
  Mg  Mg9  1  0.35373100  0.37971600  0.61350200  1
  Mg  Mg10  1  0.14626900  0.62028400  0.11350200  1
  Mg  Mg11  1  0.35373100  0.62028400  0.88649800  1
  Mg  Mg12  1  0.35373100  0.12028400  0.11350200  1
  Mg  Mg13  1  0.12028400  0.88649800  0.14626900  1
  Mg  Mg14  1  0.38649800  0.35373100  0.87971600  1
  Mg  Mg15  1  0.87971600  0.61350200  0.14626900  1
  Mg  Mg16  1  0.88649800  0.14626900  0.12028400  1
  Mg  Mg17  1  0.87971600  0.38649800  0.35373100  1
  Mg  Mg18  1  0.61350200  0.14626900  0.87971600  1
  Mg  Mg19  1  0.11350200  0.35373100  0.12028400  1
  Mg  Mg20  1  0.12028400  0.11350200  0.35373100  1
  Mg  Mg21  1  0.14626900  0.12028400  0.88649800  1
  Mg  Mg22  1  0.35373100  0.87971600  0.38649800  1
  Mg  Mg23  1  0.14626900  0.87971600  0.61350200  1
  Mg  Mg24  1  0.64626900  0.87971600  0.88649800  1
  Mg  Mg25  1  0.87971600  0.11350200  0.85373100  1
  Mg  Mg26  1  0.61350200  0.64626900  0.12028400  1
  Mg  Mg27  1  0.12028400  0.38649800  0.85373100  1
  Mg  Mg28  1  0.11350200  0.85373100  0.87971600  1
  Mg  Mg29  1  0.12028400  0.61350200  0.64626900  1
  Mg  Mg30  1  0.38649800  0.85373100  0.12028400  1
  Mg  Mg31  1  0.88649800  0.64626900  0.87971600  1
  Mg  Mg32  1  0.87971600  0.88649800  0.64626900  1
  Mg  Mg33  1  0.85373100  0.87971600  0.11350200  1
  Mg  Mg34  1  0.64626900  0.12028400  0.61350200  1
  Mg  Mg35  1  0.85373100  0.12028400  0.38649800  1
  Mg  Mg36  1  0.85373100  0.62028400  0.61350200  1
  Mg  Mg37  1  0.62028400  0.38649800  0.64626900  1
  Mg  Mg38  1  0.88649800  0.85373100  0.37971600  1
  Mg  Mg39  1  0.37971600  0.11350200  0.64626900  1
  Mg  Mg40  1  0.38649800  0.64626900  0.62028400  1
  Mg  Mg41  1  0.37971600  0.88649800  0.85373100  1
  Mg  Mg42  1  0.11350200  0.64626900  0.37971600  1
  Mg  Mg43  1  0.61350200  0.85373100  0.62028400  1
  Mg  Mg44  1  0.62028400  0.61350200  0.85373100  1
  Mg  Mg45  1  0.64626900  0.62028400  0.38649800  1
  Mg  Mg46  1  0.85373100  0.37971600  0.88649800  1
  Mg  Mg47  1  0.64626900  0.37971600  0.11350200  1
  P  P48  1  0.25000000  0.25000000  0.25000000  1
  P  P49  1  0.25000000  0.75000000  0.25000000  1
  P  P50  1  0.25000000  0.25000000  0.75000000  1
  P  P51  1  0.75000000  0.25000000  0.25000000  1
  P  P52  1  0.50000000  0.75000000  0.47620900  1
  P  P53  1  0.25000000  0.02379100  0.50000000  1
  P  P54  1  0.02379100  0.50000000  0.25000000  1
  P  P55  1  0.75000000  0.47620900  0.50000000  1
  P  P56  1  0.47620900  0.50000000  0.75000000  1
  P  P57  1  0.50000000  0.25000000  0.02379100  1
  P  P58  1  0.00000000  0.75000000  0.02379100  1
  P  P59  1  0.25000000  0.47620900  0.00000000  1
  P  P60  1  0.47620900  0.00000000  0.25000000  1
  P  P61  1  0.75000000  0.02379100  0.00000000  1
  P  P62  1  0.02379100  0.00000000  0.75000000  1
  P  P63  1  0.00000000  0.25000000  0.47620900  1
  P  P64  1  0.75000000  0.75000000  0.75000000  1
  P  P65  1  0.75000000  0.25000000  0.75000000  1
  P  P66  1  0.75000000  0.75000000  0.25000000  1
  P  P67  1  0.25000000  0.75000000  0.75000000  1
  P  P68  1  0.00000000  0.25000000  0.97620900  1
  P  P69  1  0.75000000  0.52379100  0.00000000  1
  P  P70  1  0.52379100  0.00000000  0.75000000  1
  P  P71  1  0.25000000  0.97620900  0.00000000  1
  P  P72  1  0.97620900  0.00000000  0.25000000  1
  P  P73  1  0.00000000  0.75000000  0.52379100  1
  P  P74  1  0.50000000  0.25000000  0.52379100  1
  P  P75  1  0.75000000  0.97620900  0.50000000  1
  P  P76  1  0.97620900  0.50000000  0.75000000  1
  P  P77  1  0.25000000  0.52379100  0.50000000  1
  P  P78  1  0.52379100  0.50000000  0.25000000  1
  P  P79  1  0.50000000  0.75000000  0.97620900  1
