# generated using pymatgen
data_Na6Zn3P4H6O19
_symmetry_space_group_name_H-M   'P 1'
_cell_length_a   12.08143700
_cell_length_b   12.08143700
_cell_length_c   12.08143700
_cell_angle_alpha   90.00000000
_cell_angle_beta   90.00000000
_cell_angle_gamma   90.00000000
_symmetry_Int_Tables_number   1
_chemical_formula_structural   Na6Zn3P4H6O19
_chemical_formula_sum   'Na24 Zn12 P16 H24 O76'
_cell_volume   1763.42007555
_cell_formula_units_Z   4
loop_
 _symmetry_equiv_pos_site_id
 _symmetry_equiv_pos_as_xyz
  1  'x, y, z'
loop_
 _atom_site_type_symbol
 _atom_site_label
 _atom_site_symmetry_multiplicity
 _atom_site_fract_x
 _atom_site_fract_y
 _atom_site_fract_z
 _atom_site_occupancy
  Na  Na0  1  0.32755200  0.50604000  0.24810200  1
  Na  Na1  1  0.24810200  0.32755200  0.50604000  1
  Na  Na2  1  0.50604000  0.24810200  0.32755200  1
  Na  Na3  1  0.99396000  0.75189800  0.82755200  1
  Na  Na4  1  0.74810200  0.17244800  0.49396000  1
  Na  Na5  1  0.49396000  0.74810200  0.17244800  1
  Na  Na6  1  0.25189800  0.67244800  0.00604000  1
  Na  Na7  1  0.75189800  0.82755200  0.99396000  1
  Na  Na8  1  0.00604000  0.25189800  0.67244800  1
  Na  Na9  1  0.82755200  0.99396000  0.75189800  1
  Na  Na10  1  0.67244800  0.00604000  0.25189800  1
  Na  Na11  1  0.17244800  0.49396000  0.74810200  1
  Na  Na12  1  0.42371200  0.00979100  0.74041200  1
  Na  Na13  1  0.74041200  0.42371200  0.00979100  1
  Na  Na14  1  0.00979100  0.74041200  0.42371200  1
  Na  Na15  1  0.49020900  0.25958800  0.92371200  1
  Na  Na16  1  0.24041200  0.07628800  0.99020900  1
  Na  Na17  1  0.99020900  0.24041200  0.07628800  1
  Na  Na18  1  0.75958800  0.57628800  0.50979100  1
  Na  Na19  1  0.25958800  0.92371200  0.49020900  1
  Na  Na20  1  0.50979100  0.75958800  0.57628800  1
  Na  Na21  1  0.92371200  0.49020900  0.25958800  1
  Na  Na22  1  0.57628800  0.50979100  0.75958800  1
  Na  Na23  1  0.07628800  0.99020900  0.24041200  1
  Zn  Zn24  1  0.37503200  0.00239900  0.24252800  1
  Zn  Zn25  1  0.24252800  0.37503200  0.00239900  1
  Zn  Zn26  1  0.00239900  0.24252800  0.37503200  1
  Zn  Zn27  1  0.49760100  0.75747200  0.87503200  1
  Zn  Zn28  1  0.74252800  0.12496800  0.99760100  1
  Zn  Zn29  1  0.99760100  0.74252800  0.12496800  1
  Zn  Zn30  1  0.25747200  0.62496800  0.50239900  1
  Zn  Zn31  1  0.75747200  0.87503200  0.49760100  1
  Zn  Zn32  1  0.50239900  0.25747200  0.62496800  1
  Zn  Zn33  1  0.87503200  0.49760100  0.75747200  1
  Zn  Zn34  1  0.62496800  0.50239900  0.25747200  1
  Zn  Zn35  1  0.12496800  0.99760100  0.74252800  1
  P  P36  1  0.51826100  0.98173900  0.01826100  1
  P  P37  1  0.01826100  0.51826100  0.98173900  1
  P  P38  1  0.98173900  0.01826100  0.51826100  1
  P  P39  1  0.48173900  0.48173900  0.48173900  1
  P  P40  1  0.53102300  0.03102300  0.46897700  1
  P  P41  1  0.46897700  0.53102300  0.03102300  1
  P  P42  1  0.03102300  0.46897700  0.53102300  1
  P  P43  1  0.96897700  0.96897700  0.96897700  1
  P  P44  1  0.21858500  0.78141500  0.28141500  1
  P  P45  1  0.28141500  0.21858500  0.78141500  1
  P  P46  1  0.78141500  0.28141500  0.21858500  1
  P  P47  1  0.71858500  0.71858500  0.71858500  1
  P  P48  1  0.23119500  0.23119500  0.23119500  1
  P  P49  1  0.26880500  0.76880500  0.73119500  1
  P  P50  1  0.73119500  0.26880500  0.76880500  1
  P  P51  1  0.76880500  0.73119500  0.26880500  1
  H  H52  1  0.54845200  0.17624800  0.11596500  1
  H  H53  1  0.11596500  0.54845200  0.17624800  1
  H  H54  1  0.17624800  0.11596500  0.54845200  1
  H  H55  1  0.32375200  0.88403500  0.04845200  1
  H  H56  1  0.61596500  0.95154800  0.82375200  1
  H  H57  1  0.82375200  0.61596500  0.95154800  1
  H  H58  1  0.38403500  0.45154800  0.67624800  1
  H  H59  1  0.88403500  0.04845200  0.32375200  1
  H  H60  1  0.67624800  0.38403500  0.45154800  1
  H  H61  1  0.04845200  0.32375200  0.88403500  1
  H  H62  1  0.45154800  0.67624800  0.38403500  1
  H  H63  1  0.95154800  0.82375200  0.61596500  1
  H  H64  1  0.42410300  0.20484000  0.13326000  1
  H  H65  1  0.13326000  0.42410300  0.20484000  1
  H  H66  1  0.20484000  0.13326000  0.42410300  1
  H  H67  1  0.29516000  0.86674000  0.92410300  1
  H  H68  1  0.63326000  0.07589700  0.79516000  1
  H  H69  1  0.79516000  0.63326000  0.07589700  1
  H  H70  1  0.36674000  0.57589700  0.70484000  1
  H  H71  1  0.86674000  0.92410300  0.29516000  1
  H  H72  1  0.70484000  0.36674000  0.57589700  1
  H  H73  1  0.92410300  0.29516000  0.86674000  1
  H  H74  1  0.57589700  0.70484000  0.36674000  1
  H  H75  1  0.07589700  0.79516000  0.63326000  1
  O  O76  1  0.44579800  0.05420200  0.94579800  1
  O  O77  1  0.94579800  0.44579800  0.05420200  1
  O  O78  1  0.05420200  0.94579800  0.44579800  1
  O  O79  1  0.55420200  0.55420200  0.55420200  1
  O  O80  1  0.45815800  0.95815800  0.54184200  1
  O  O81  1  0.54184200  0.45815800  0.95815800  1
  O  O82  1  0.95815800  0.54184200  0.45815800  1
  O  O83  1  0.04184200  0.04184200  0.04184200  1
  O  O84  1  0.29129100  0.70870900  0.20870900  1
  O  O85  1  0.20870900  0.29129100  0.70870900  1
  O  O86  1  0.70870900  0.20870900  0.29129100  1
  O  O87  1  0.79129100  0.79129100  0.79129100  1
  O  O88  1  0.30407000  0.30407000  0.30407000  1
  O  O89  1  0.19593000  0.69593000  0.80407000  1
  O  O90  1  0.80407000  0.19593000  0.69593000  1
  O  O91  1  0.69593000  0.80407000  0.19593000  1
  O  O92  1  0.45139200  0.92852100  0.11649200  1
  O  O93  1  0.11649200  0.45139200  0.92852100  1
  O  O94  1  0.92852100  0.11649200  0.45139200  1
  O  O95  1  0.57147900  0.88350800  0.95139200  1
  O  O96  1  0.61649200  0.04860800  0.07147900  1
  O  O97  1  0.07147900  0.61649200  0.04860800  1
  O  O98  1  0.38350800  0.54860800  0.42852100  1
  O  O99  1  0.88350800  0.95139200  0.57147900  1
  O  O100  1  0.42852100  0.38350800  0.54860800  1
  O  O101  1  0.95139200  0.57147900  0.88350800  1
  O  O102  1  0.54860800  0.42852100  0.38350800  1
  O  O103  1  0.04860800  0.07147900  0.61649200  1
  O  O104  1  0.29905500  0.13526000  0.17471000  1
  O  O105  1  0.17471000  0.29905500  0.13526000  1
  O  O106  1  0.13526000  0.17471000  0.29905500  1
  O  O107  1  0.36474000  0.82529000  0.79905500  1
  O  O108  1  0.67471000  0.20094500  0.86474000  1
  O  O109  1  0.86474000  0.67471000  0.20094500  1
  O  O110  1  0.32529000  0.70094500  0.63526000  1
  O  O111  1  0.82529000  0.79905500  0.36474000  1
  O  O112  1  0.63526000  0.32529000  0.70094500  1
  O  O113  1  0.79905500  0.36474000  0.82529000  1
  O  O114  1  0.70094500  0.63526000  0.32529000  1
  O  O115  1  0.20094500  0.86474000  0.67471000  1
  O  O116  1  0.25633100  0.90560800  0.28684400  1
  O  O117  1  0.28684400  0.25633100  0.90560800  1
  O  O118  1  0.90560800  0.28684400  0.25633100  1
  O  O119  1  0.59439200  0.71315600  0.75633100  1
  O  O120  1  0.78684400  0.24366900  0.09439200  1
  O  O121  1  0.09439200  0.78684400  0.24366900  1
  O  O122  1  0.21315600  0.74366900  0.40560800  1
  O  O123  1  0.71315600  0.75633100  0.59439200  1
  O  O124  1  0.40560800  0.21315600  0.74366900  1
  O  O125  1  0.75633100  0.59439200  0.71315600  1
  O  O126  1  0.74366900  0.40560800  0.21315600  1
  O  O127  1  0.24366900  0.09439200  0.78684400  1
  O  O128  1  0.48443500  0.05034300  0.34899200  1
  O  O129  1  0.34899200  0.48443500  0.05034300  1
  O  O130  1  0.05034300  0.34899200  0.48443500  1
  O  O131  1  0.44965700  0.65100800  0.98443500  1
  O  O132  1  0.84899200  0.01556500  0.94965700  1
  O  O133  1  0.94965700  0.84899200  0.01556500  1
  O  O134  1  0.15100800  0.51556500  0.55034300  1
  O  O135  1  0.65100800  0.98443500  0.44965700  1
  O  O136  1  0.55034300  0.15100800  0.51556500  1
  O  O137  1  0.98443500  0.44965700  0.65100800  1
  O  O138  1  0.51556500  0.55034300  0.15100800  1
  O  O139  1  0.01556500  0.94965700  0.84899200  1
  O  O140  1  0.49807600  0.24000400  0.12676300  1
  O  O141  1  0.12676300  0.49807600  0.24000400  1
  O  O142  1  0.24000400  0.12676300  0.49807600  1
  O  O143  1  0.25999600  0.87323700  0.99807600  1
  O  O144  1  0.62676300  0.00192400  0.75999600  1
  O  O145  1  0.75999600  0.62676300  0.00192400  1
  O  O146  1  0.37323700  0.50192400  0.74000400  1
  O  O147  1  0.87323700  0.99807600  0.25999600  1
  O  O148  1  0.74000400  0.37323700  0.50192400  1
  O  O149  1  0.99807600  0.25999600  0.87323700  1
  O  O150  1  0.50192400  0.74000400  0.37323700  1
  O  O151  1  0.00192400  0.75999600  0.62676300  1
