# generated using pymatgen
data_ZnH8SO8
_symmetry_space_group_name_H-M   'P 1'
_cell_length_a   6.09473600
_cell_length_b   13.61312900
_cell_length_c   10.00105163
_cell_angle_alpha   90.00000000
_cell_angle_beta   127.27923757
_cell_angle_gamma   90.00000000
_symmetry_Int_Tables_number   1
_chemical_formula_structural   ZnH8SO8
_chemical_formula_sum   'Zn4 H32 S4 O32'
_cell_volume   660.24341352
_cell_formula_units_Z   4
loop_
 _symmetry_equiv_pos_site_id
 _symmetry_equiv_pos_as_xyz
  1  'x, y, z'
loop_
 _atom_site_type_symbol
 _atom_site_label
 _atom_site_symmetry_multiplicity
 _atom_site_fract_x
 _atom_site_fract_y
 _atom_site_fract_z
 _atom_site_occupancy
  Zn  Zn0  1  0.70602400  0.10371300  0.78030700  1
  Zn  Zn1  1  0.29397600  0.60371300  0.71969300  1
  Zn  Zn2  1  0.29397600  0.89628700  0.21969300  1
  Zn  Zn3  1  0.70602400  0.39628700  0.28030700  1
  H  H4  1  0.52390100  0.09999500  0.44872600  1
  H  H5  1  0.47609900  0.59999500  0.05127400  1
  H  H6  1  0.47609900  0.90000500  0.55127400  1
  H  H7  1  0.52390100  0.40000500  0.94872600  1
  H  H8  1  0.74652400  0.18583300  0.54804700  1
  H  H9  1  0.25347600  0.68583300  0.95195300  1
  H  H10  1  0.25347600  0.81416700  0.45195300  1
  H  H11  1  0.74652400  0.31416700  0.04804700  1
  H  H12  1  0.16163300  0.08374300  0.52679200  1
  H  H13  1  0.83836700  0.58374300  0.97320800  1
  H  H14  1  0.83836700  0.91625700  0.47320800  1
  H  H15  1  0.16163300  0.41625700  0.02679200  1
  H  H16  1  0.22543200  0.01596700  0.67648700  1
  H  H17  1  0.77456800  0.51596700  0.82351300  1
  H  H18  1  0.77456800  0.98403300  0.32351300  1
  H  H19  1  0.22543200  0.48403300  0.17648700  1
  H  H20  1  0.24787000  0.08520100  0.94745800  1
  H  H21  1  0.40300100  0.26504100  0.72108300  1
  H  H22  1  0.75213000  0.91479900  0.05254200  1
  H  H23  1  0.24787000  0.41479900  0.44745800  1
  H  H24  1  0.15197800  0.18580500  0.84543500  1
  H  H25  1  0.84802200  0.68580500  0.65456500  1
  H  H26  1  0.84802200  0.81419500  0.15456500  1
  H  H27  1  0.15197800  0.31419500  0.34543500  1
  H  H28  1  0.69271700  0.30706900  0.77711500  1
  H  H29  1  0.30728300  0.80706900  0.72288500  1
  H  H30  1  0.30728300  0.69293100  0.22288500  1
  H  H31  1  0.69271700  0.19293100  0.27711500  1
  H  H32  1  0.40300100  0.23495900  0.22108300  1
  H  H33  1  0.59699900  0.73495900  0.27891700  1
  H  H34  1  0.59699900  0.76504100  0.77891700  1
  H  H35  1  0.75213000  0.58520100  0.55254200  1
  S  S36  1  0.98760100  0.10860400  0.18318600  1
  S  S37  1  0.01239900  0.60860400  0.31681400  1
  S  S38  1  0.01239900  0.89139600  0.81681400  1
  S  S39  1  0.98760100  0.39139600  0.68318600  1
  O  O40  1  0.60178000  0.25068600  0.78814300  1
  O  O41  1  0.39822000  0.75068600  0.71185700  1
  O  O42  1  0.39822000  0.74931400  0.21185700  1
  O  O43  1  0.60178000  0.24931400  0.28814300  1
  O  O44  1  0.67775100  0.12431800  0.56155400  1
  O  O45  1  0.87096300  0.85741400  0.08456300  1
  O  O46  1  0.87096300  0.64258600  0.58456300  1
  O  O47  1  0.12903700  0.14258600  0.91543700  1
  O  O48  1  0.89819500  0.09384200  0.29307900  1
  O  O49  1  0.10180500  0.59384200  0.20692100  1
  O  O50  1  0.10180500  0.90615800  0.70692100  1
  O  O51  1  0.89819500  0.40615800  0.79307900  1
  O  O52  1  0.04728400  0.21386100  0.18254800  1
  O  O53  1  0.95271600  0.71386100  0.31745200  1
  O  O54  1  0.95271600  0.78613900  0.81745200  1
  O  O55  1  0.04728400  0.28613900  0.68254800  1
  O  O56  1  0.28659300  0.42466500  0.15011300  1
  O  O57  1  0.71340700  0.92466500  0.34988700  1
  O  O58  1  0.71340700  0.57533500  0.84988700  1
  O  O59  1  0.28659300  0.07533500  0.65011300  1
  O  O60  1  0.24558400  0.05044500  0.25296400  1
  O  O61  1  0.75441600  0.55044500  0.24703600  1
  O  O62  1  0.75441600  0.94955500  0.74703600  1
  O  O63  1  0.24558400  0.44955500  0.75296400  1
  O  O64  1  0.76231300  0.07176100  0.01091400  1
  O  O65  1  0.23768700  0.57176100  0.48908600  1
  O  O66  1  0.23768700  0.92823900  0.98908600  1
  O  O67  1  0.76231300  0.42823900  0.51091400  1
  O  O68  1  0.67775100  0.37568200  0.06155400  1
  O  O69  1  0.32224900  0.87568200  0.43844600  1
  O  O70  1  0.32224900  0.62431800  0.93844600  1
  O  O71  1  0.12903700  0.35741400  0.41543700  1
