# generated using pymatgen
data_Rb3Au3Cl8
_symmetry_space_group_name_H-M   'P 1'
_cell_length_a   12.32791600
_cell_length_b   7.71081000
_cell_length_c   18.76096225
_cell_angle_alpha   90.00000000
_cell_angle_beta   97.80229114
_cell_angle_gamma   90.00000000
_symmetry_Int_Tables_number   1
_chemical_formula_structural   Rb3Au3Cl8
_chemical_formula_sum   'Rb12 Au12 Cl32'
_cell_volume   1766.87380880
_cell_formula_units_Z   4
loop_
 _symmetry_equiv_pos_site_id
 _symmetry_equiv_pos_as_xyz
  1  'x, y, z'
loop_
 _atom_site_type_symbol
 _atom_site_label
 _atom_site_symmetry_multiplicity
 _atom_site_fract_x
 _atom_site_fract_y
 _atom_site_fract_z
 _atom_site_occupancy
  Rb  Rb0  1  0.50000000  0.51576700  0.75000000  1
  Rb  Rb1  1  0.50000000  0.48423300  0.25000000  1
  Rb  Rb2  1  0.31754850  0.00449750  0.91622000  1
  Rb  Rb3  1  0.68245150  0.00449750  0.58378000  1
  Rb  Rb4  1  0.68245150  0.99550250  0.08378000  1
  Rb  Rb5  1  0.31754850  0.99550250  0.41622000  1
  Rb  Rb6  1  0.00000000  0.01576700  0.75000000  1
  Rb  Rb7  1  0.00000000  0.98423300  0.25000000  1
  Rb  Rb8  1  0.81754850  0.50449750  0.91622000  1
  Rb  Rb9  1  0.18245150  0.50449750  0.58378000  1
  Rb  Rb10  1  0.18245150  0.49550250  0.08378000  1
  Rb  Rb11  1  0.81754850  0.49550250  0.41622000  1
  Au  Au12  1  0.00000000  0.00000000  0.50000000  1
  Au  Au13  1  0.00000000  0.00000000  0.00000000  1
  Au  Au14  1  0.38536550  0.00309850  0.69116900  1
  Au  Au15  1  0.61463450  0.00309850  0.80883100  1
  Au  Au16  1  0.61463450  0.99690150  0.30883100  1
  Au  Au17  1  0.38536550  0.99690150  0.19116900  1
  Au  Au18  1  0.50000000  0.50000000  0.50000000  1
  Au  Au19  1  0.50000000  0.50000000  0.00000000  1
  Au  Au20  1  0.88536550  0.50309850  0.69116900  1
  Au  Au21  1  0.11463450  0.50309850  0.80883100  1
  Au  Au22  1  0.11463450  0.49690150  0.30883100  1
  Au  Au23  1  0.88536550  0.49690150  0.19116900  1
  Cl  Cl24  1  0.29769350  0.19999050  0.25342500  1
  Cl  Cl25  1  0.70230650  0.19999050  0.24657500  1
  Cl  Cl26  1  0.70230650  0.80000950  0.74657500  1
  Cl  Cl27  1  0.29769350  0.80000950  0.75342500  1
  Cl  Cl28  1  0.45877700  0.78710900  0.12407800  1
  Cl  Cl29  1  0.54122300  0.78710900  0.37592200  1
  Cl  Cl30  1  0.54122300  0.21289100  0.87592200  1
  Cl  Cl31  1  0.45877700  0.21289100  0.62407800  1
  Cl  Cl32  1  0.56284350  0.72173550  0.92925200  1
  Cl  Cl33  1  0.43715650  0.72173550  0.57074800  1
  Cl  Cl34  1  0.43715650  0.27826450  0.07074800  1
  Cl  Cl35  1  0.56284350  0.27826450  0.42925200  1
  Cl  Cl36  1  0.17689950  0.02852850  0.56376600  1
  Cl  Cl37  1  0.82310050  0.02852850  0.93623400  1
  Cl  Cl38  1  0.82310050  0.97147150  0.43623400  1
  Cl  Cl39  1  0.17689950  0.97147150  0.06376600  1
  Cl  Cl40  1  0.79769350  0.69999050  0.25342500  1
  Cl  Cl41  1  0.20230650  0.69999050  0.24657500  1
  Cl  Cl42  1  0.20230650  0.30000950  0.74657500  1
  Cl  Cl43  1  0.79769350  0.30000950  0.75342500  1
  Cl  Cl44  1  0.95877700  0.28710900  0.12407800  1
  Cl  Cl45  1  0.04122300  0.28710900  0.37592200  1
  Cl  Cl46  1  0.04122300  0.71289100  0.87592200  1
  Cl  Cl47  1  0.95877700  0.71289100  0.62407800  1
  Cl  Cl48  1  0.06284350  0.22173550  0.92925200  1
  Cl  Cl49  1  0.93715650  0.22173550  0.57074800  1
  Cl  Cl50  1  0.93715650  0.77826450  0.07074800  1
  Cl  Cl51  1  0.06284350  0.77826450  0.42925200  1
  Cl  Cl52  1  0.67689950  0.52852850  0.56376600  1
  Cl  Cl53  1  0.32310050  0.52852850  0.93623400  1
  Cl  Cl54  1  0.32310050  0.47147150  0.43623400  1
  Cl  Cl55  1  0.67689950  0.47147150  0.06376600  1
