# generated using pymatgen
data_CaP2(HO2)4
_symmetry_space_group_name_H-M   'P 1'
_cell_length_a   5.57982900
_cell_length_b   7.81037975
_cell_length_c   8.38143118
_cell_angle_alpha   111.19955181
_cell_angle_beta   108.54335670
_cell_angle_gamma   93.67031768
_symmetry_Int_Tables_number   1
_chemical_formula_structural   CaP2(HO2)4
_chemical_formula_sum   'Ca2 P4 H8 O16'
_cell_volume   316.17773282
_cell_formula_units_Z   2
loop_
 _symmetry_equiv_pos_site_id
 _symmetry_equiv_pos_as_xyz
  1  'x, y, z'
loop_
 _atom_site_type_symbol
 _atom_site_label
 _atom_site_symmetry_multiplicity
 _atom_site_fract_x
 _atom_site_fract_y
 _atom_site_fract_z
 _atom_site_occupancy
  Ca  Ca0  1  0.80846300  0.68235200  0.58015000  1
  Ca  Ca1  1  0.19153700  0.31764800  0.41985000  1
  P  P2  1  0.17256000  0.73214600  0.31320300  1
  P  P3  1  0.82744000  0.26785400  0.68679700  1
  P  P4  1  0.47753700  0.74462400  0.84293900  1
  P  P5  1  0.52246300  0.25537600  0.15706100  1
  H  H6  1  0.00000000  0.50000000  0.00000000  1
  H  H7  1  0.50000000  0.00000000  0.50000000  1
  H  H8  1  0.15079100  0.14382100  0.78083800  1
  H  H9  1  0.84920900  0.85617900  0.21916200  1
  H  H10  1  0.75598200  0.01761900  0.99857100  1
  H  H11  1  0.24401800  0.98238100  0.00142900  1
  H  H12  1  0.59493400  0.32244900  0.93767400  1
  H  H13  1  0.40506600  0.67755100  0.06232600  1
  O  O14  1  0.55743400  0.71397300  0.03003000  1
  O  O15  1  0.22427900  0.81473000  0.81579600  1
  O  O16  1  0.44256600  0.28602700  0.96997000  1
  O  O17  1  0.77572100  0.18527000  0.18420400  1
  O  O18  1  0.28638500  0.10130600  0.11860100  1
  O  O19  1  0.71361500  0.89869400  0.88139900  1
  O  O20  1  0.48520800  0.57844100  0.68115100  1
  O  O21  1  0.95566700  0.39620300  0.62465700  1
  O  O22  1  0.82990000  0.37020200  0.88472000  1
  O  O23  1  0.17010000  0.62979800  0.11528000  1
  O  O24  1  0.04433300  0.60379700  0.37534300  1
  O  O25  1  0.54511500  0.16872200  0.55566800  1
  O  O26  1  0.02581300  0.90294600  0.31578300  1
  O  O27  1  0.97418700  0.09705400  0.68421700  1
  O  O28  1  0.45488500  0.83127800  0.44433200  1
  O  O29  1  0.51479200  0.42155900  0.31884900  1
