# generated using pymatgen
data_Na7Au5S6
_symmetry_space_group_name_H-M   'P 1'
_cell_length_a   7.14545900
_cell_length_b   10.62679100
_cell_length_c   22.67033600
_cell_angle_alpha   90.00000000
_cell_angle_beta   90.00000000
_cell_angle_gamma   90.00000000
_symmetry_Int_Tables_number   1
_chemical_formula_structural   Na7Au5S6
_chemical_formula_sum   'Na28 Au20 S24'
_cell_volume   1721.43341081
_cell_formula_units_Z   4
loop_
 _symmetry_equiv_pos_site_id
 _symmetry_equiv_pos_as_xyz
  1  'x, y, z'
loop_
 _atom_site_type_symbol
 _atom_site_label
 _atom_site_symmetry_multiplicity
 _atom_site_fract_x
 _atom_site_fract_y
 _atom_site_fract_z
 _atom_site_occupancy
  Na  Na0  1  0.00154100  0.00000000  0.75000000  1
  Na  Na1  1  0.49845900  0.50000000  0.25000000  1
  Na  Na2  1  0.99845900  0.00000000  0.25000000  1
  Na  Na3  1  0.50154100  0.50000000  0.75000000  1
  Na  Na4  1  0.49676100  0.73956700  0.40916000  1
  Na  Na5  1  0.49676100  0.26043300  0.09084000  1
  Na  Na6  1  0.00323900  0.23956700  0.59084000  1
  Na  Na7  1  0.00323900  0.76043300  0.90916000  1
  Na  Na8  1  0.50323900  0.26043300  0.59084000  1
  Na  Na9  1  0.50323900  0.73956700  0.90916000  1
  Na  Na10  1  0.99676100  0.76043300  0.40916000  1
  Na  Na11  1  0.99676100  0.23956700  0.09084000  1
  Na  Na12  1  0.66208600  0.62280200  0.62082600  1
  Na  Na13  1  0.66208600  0.37719800  0.87917400  1
  Na  Na14  1  0.83791400  0.12280200  0.37917400  1
  Na  Na15  1  0.83791400  0.87719800  0.12082600  1
  Na  Na16  1  0.33791400  0.37719800  0.37917400  1
  Na  Na17  1  0.33791400  0.62280200  0.12082600  1
  Na  Na18  1  0.16208600  0.87719800  0.62082600  1
  Na  Na19  1  0.16208600  0.12280200  0.87917400  1
  Na  Na20  1  0.87615800  0.39285000  0.45641200  1
  Na  Na21  1  0.87615800  0.60715000  0.04358800  1
  Na  Na22  1  0.62384200  0.89285000  0.54358800  1
  Na  Na23  1  0.62384200  0.10715000  0.95641200  1
  Na  Na24  1  0.12384200  0.60715000  0.54358800  1
  Na  Na25  1  0.12384200  0.39285000  0.95641200  1
  Na  Na26  1  0.37615800  0.10715000  0.45641200  1
  Na  Na27  1  0.37615800  0.89285000  0.04358800  1
  Au  Au28  1  0.77185600  0.25665100  0.75194200  1
  Au  Au29  1  0.77185600  0.74334900  0.74805800  1
  Au  Au30  1  0.50000000  0.50000000  0.50000000  1
  Au  Au31  1  0.72814400  0.75665100  0.24805800  1
  Au  Au32  1  0.72814400  0.24334900  0.25194200  1
  Au  Au33  1  0.22814400  0.74334900  0.24805800  1
  Au  Au34  1  0.22814400  0.25665100  0.25194200  1
  Au  Au35  1  0.27185600  0.24334900  0.75194200  1
  Au  Au36  1  0.27185600  0.75665100  0.74805800  1
  Au  Au37  1  0.02918700  0.49813500  0.82973600  1
  Au  Au38  1  0.02918700  0.50186500  0.67026400  1
  Au  Au39  1  0.47081300  0.99813500  0.17026400  1
  Au  Au40  1  0.47081300  0.00186500  0.32973600  1
  Au  Au41  1  0.97081300  0.50186500  0.17026400  1
  Au  Au42  1  0.97081300  0.49813500  0.32973600  1
  Au  Au43  1  0.52918700  0.00186500  0.82973600  1
  Au  Au44  1  0.52918700  0.99813500  0.67026400  1
  Au  Au45  1  0.00000000  0.00000000  0.00000000  1
  Au  Au46  1  0.00000000  0.00000000  0.50000000  1
  Au  Au47  1  0.50000000  0.50000000  0.00000000  1
  S  S48  1  0.24913200  0.85695500  0.49872100  1
  S  S49  1  0.74039000  0.12197900  0.16630100  1
  S  S50  1  0.74039000  0.87802100  0.33369900  1
  S  S51  1  0.75961000  0.62197900  0.83369900  1
  S  S52  1  0.75961000  0.37802100  0.66630100  1
  S  S53  1  0.25961000  0.87802100  0.83369900  1
  S  S54  1  0.25961000  0.12197900  0.66630100  1
  S  S55  1  0.24039000  0.37802100  0.16630100  1
  S  S56  1  0.24039000  0.62197900  0.33369900  1
  S  S57  1  0.28835100  0.36628700  0.83739300  1
  S  S58  1  0.28835100  0.63371300  0.66260700  1
  S  S59  1  0.21164900  0.86628700  0.16260700  1
  S  S60  1  0.21164900  0.13371300  0.33739300  1
  S  S61  1  0.71164900  0.63371300  0.16260700  1
  S  S62  1  0.71164900  0.36628700  0.33739300  1
  S  S63  1  0.78835100  0.13371300  0.83739300  1
  S  S64  1  0.78835100  0.86628700  0.66260700  1
  S  S65  1  0.24913200  0.14304500  0.00127900  1
  S  S66  1  0.25086800  0.64304500  0.99872100  1
  S  S67  1  0.25086800  0.35695500  0.50127900  1
  S  S68  1  0.74913200  0.64304500  0.49872100  1
  S  S69  1  0.74913200  0.35695500  0.00127900  1
  S  S70  1  0.75086800  0.85695500  0.99872100  1
  S  S71  1  0.75086800  0.14304500  0.50127900  1
