# generated using pymatgen
data_AsClF8
_symmetry_space_group_name_H-M   'P 1'
_cell_length_a   8.35666600
_cell_length_b   7.90421600
_cell_length_c   10.49150114
_cell_angle_alpha   90.00000000
_cell_angle_beta   111.37840931
_cell_angle_gamma   90.00000000
_symmetry_Int_Tables_number   1
_chemical_formula_structural   AsClF8
_chemical_formula_sum   'As4 Cl4 F32'
_cell_volume   645.31133526
_cell_formula_units_Z   4
loop_
 _symmetry_equiv_pos_site_id
 _symmetry_equiv_pos_as_xyz
  1  'x, y, z'
loop_
 _atom_site_type_symbol
 _atom_site_label
 _atom_site_symmetry_multiplicity
 _atom_site_fract_x
 _atom_site_fract_y
 _atom_site_fract_z
 _atom_site_occupancy
  As  As0  1  0.00000000  0.00000000  0.50000000  1
  As  As1  1  0.00000000  0.00000000  0.00000000  1
  As  As2  1  0.50000000  0.50000000  0.50000000  1
  As  As3  1  0.50000000  0.50000000  0.00000000  1
  Cl  Cl4  1  0.00000000  0.66592600  0.25000000  1
  Cl  Cl5  1  0.00000000  0.33407400  0.75000000  1
  Cl  Cl6  1  0.50000000  0.16592600  0.25000000  1
  Cl  Cl7  1  0.50000000  0.83407400  0.75000000  1
  F  F8  1  0.93256200  0.47135100  0.83277300  1
  F  F9  1  0.06743800  0.47135100  0.66722700  1
  F  F10  1  0.06743800  0.52864900  0.16722700  1
  F  F11  1  0.93256200  0.52864900  0.33277300  1
  F  F12  1  0.30385450  0.51468750  0.52499400  1
  F  F13  1  0.69614550  0.51468750  0.97500600  1
  F  F14  1  0.69614550  0.48531250  0.47500600  1
  F  F15  1  0.30385450  0.48531250  0.02499400  1
  F  F16  1  0.89707700  0.85957600  0.35345700  1
  F  F17  1  0.10292300  0.85957600  0.14654300  1
  F  F18  1  0.10292300  0.14042400  0.64654300  1
  F  F19  1  0.89707700  0.14042400  0.85345700  1
  F  F20  1  0.94080200  0.17464100  0.39001000  1
  F  F21  1  0.05919800  0.17464100  0.10999000  1
  F  F22  1  0.05919800  0.82535900  0.60999000  1
  F  F23  1  0.94080200  0.82535900  0.89001000  1
  F  F24  1  0.43256200  0.97135100  0.83277300  1
  F  F25  1  0.56743800  0.97135100  0.66722700  1
  F  F26  1  0.56743800  0.02864900  0.16722700  1
  F  F27  1  0.43256200  0.02864900  0.33277300  1
  F  F28  1  0.80385450  0.01468750  0.52499400  1
  F  F29  1  0.19614550  0.01468750  0.97500600  1
  F  F30  1  0.19614550  0.98531250  0.47500600  1
  F  F31  1  0.80385450  0.98531250  0.02499400  1
  F  F32  1  0.39707700  0.35957600  0.35345700  1
  F  F33  1  0.60292300  0.35957600  0.14654300  1
  F  F34  1  0.60292300  0.64042400  0.64654300  1
  F  F35  1  0.39707700  0.64042400  0.85345700  1
  F  F36  1  0.44080200  0.67464100  0.39001000  1
  F  F37  1  0.55919800  0.67464100  0.10999000  1
  F  F38  1  0.55919800  0.32535900  0.60999000  1
  F  F39  1  0.44080200  0.32535900  0.89001000  1
