# generated using pymatgen
data_Ca2AlF7
_symmetry_space_group_name_H-M   'P 1'
_cell_length_a   7.08560900
_cell_length_b   7.80113000
_cell_length_c   9.66667200
_cell_angle_alpha   90.00000000
_cell_angle_beta   90.00000000
_cell_angle_gamma   90.00000000
_symmetry_Int_Tables_number   1
_chemical_formula_structural   Ca2AlF7
_chemical_formula_sum   'Ca8 Al4 F28'
_cell_volume   534.33261187
_cell_formula_units_Z   4
loop_
 _symmetry_equiv_pos_site_id
 _symmetry_equiv_pos_as_xyz
  1  'x, y, z'
loop_
 _atom_site_type_symbol
 _atom_site_label
 _atom_site_symmetry_multiplicity
 _atom_site_fract_x
 _atom_site_fract_y
 _atom_site_fract_z
 _atom_site_occupancy
  Ca  Ca0  1  0.25000000  0.30615100  0.39647000  1
  Ca  Ca1  1  0.75000000  0.69384900  0.60353000  1
  Ca  Ca2  1  0.25000000  0.80615100  0.10353000  1
  Ca  Ca3  1  0.75000000  0.19384900  0.89647000  1
  Ca  Ca4  1  0.25000000  0.61645200  0.75873200  1
  Ca  Ca5  1  0.75000000  0.38354800  0.24126800  1
  Ca  Ca6  1  0.25000000  0.11645200  0.74126800  1
  Ca  Ca7  1  0.75000000  0.88354800  0.25873200  1
  Al  Al8  1  0.25000000  0.81004700  0.44313300  1
  Al  Al9  1  0.75000000  0.18995300  0.55686700  1
  Al  Al10  1  0.25000000  0.31004700  0.05686700  1
  Al  Al11  1  0.75000000  0.68995300  0.94313300  1
  F  F12  1  0.92817100  0.13247000  0.68600200  1
  F  F13  1  0.42817100  0.86753000  0.31399800  1
  F  F14  1  0.57182900  0.63247000  0.81399800  1
  F  F15  1  0.07182900  0.36753000  0.18600200  1
  F  F16  1  0.07182900  0.86753000  0.31399800  1
  F  F17  1  0.57182900  0.13247000  0.68600200  1
  F  F18  1  0.42817100  0.36753000  0.18600200  1
  F  F19  1  0.92817100  0.63247000  0.81399800  1
  F  F20  1  0.92637900  0.25050400  0.42533900  1
  F  F21  1  0.42637900  0.74949600  0.57466100  1
  F  F22  1  0.57362100  0.75050400  0.07466100  1
  F  F23  1  0.07362100  0.24949600  0.92533900  1
  F  F24  1  0.75000000  0.62595000  0.36959800  1
  F  F25  1  0.25000000  0.37405000  0.63040200  1
  F  F26  1  0.75000000  0.12595000  0.13040200  1
  F  F27  1  0.25000000  0.87405000  0.86959800  1
  F  F28  1  0.75000000  0.96909200  0.49112000  1
  F  F29  1  0.25000000  0.03090800  0.50888000  1
  F  F30  1  0.75000000  0.46909200  0.00888000  1
  F  F31  1  0.25000000  0.53090800  0.99112000  1
  F  F32  1  0.75000000  0.90524000  0.87557900  1
  F  F33  1  0.25000000  0.09476000  0.12442100  1
  F  F34  1  0.75000000  0.40524000  0.62442100  1
  F  F35  1  0.25000000  0.59476000  0.37557900  1
  F  F36  1  0.92637900  0.75050400  0.07466100  1
  F  F37  1  0.42637900  0.24949600  0.92533900  1
  F  F38  1  0.57362100  0.25050400  0.42533900  1
  F  F39  1  0.07362100  0.74949600  0.57466100  1
