# generated using pymatgen
data_BeH8SO8
_symmetry_space_group_name_H-M   'P 1'
_cell_length_a   8.01060200
_cell_length_b   8.01060200
_cell_length_c   11.02602800
_cell_angle_alpha   90.00000000
_cell_angle_beta   90.00000000
_cell_angle_gamma   90.00000000
_symmetry_Int_Tables_number   1
_chemical_formula_structural   BeH8SO8
_chemical_formula_sum   'Be4 H32 S4 O32'
_cell_volume   707.53739853
_cell_formula_units_Z   4
loop_
 _symmetry_equiv_pos_site_id
 _symmetry_equiv_pos_as_xyz
  1  'x, y, z'
loop_
 _atom_site_type_symbol
 _atom_site_label
 _atom_site_symmetry_multiplicity
 _atom_site_fract_x
 _atom_site_fract_y
 _atom_site_fract_z
 _atom_site_occupancy
  Be  Be0  1  0.00000000  0.50000000  0.25000000  1
  Be  Be1  1  0.50000000  0.00000000  0.25000000  1
  Be  Be2  1  0.50000000  0.00000000  0.75000000  1
  Be  Be3  1  0.00000000  0.50000000  0.75000000  1
  H  H4  1  0.87476500  0.28348400  0.63587200  1
  H  H5  1  0.23069800  0.46041200  0.13189400  1
  H  H6  1  0.62523500  0.21651600  0.13587200  1
  H  H7  1  0.28348400  0.12523500  0.36412800  1
  H  H8  1  0.21651600  0.37476500  0.86412800  1
  H  H9  1  0.87476500  0.71651600  0.13587200  1
  H  H10  1  0.21651600  0.62523500  0.36412800  1
  H  H11  1  0.78348400  0.37476500  0.36412800  1
  H  H12  1  0.12523500  0.28348400  0.13587200  1
  H  H13  1  0.26930200  0.96041200  0.13189400  1
  H  H14  1  0.73069800  0.03958800  0.13189400  1
  H  H15  1  0.46041200  0.23069800  0.36810600  1
  H  H16  1  0.53958800  0.76930200  0.36810600  1
  H  H17  1  0.26930200  0.03958800  0.63189400  1
  H  H18  1  0.53958800  0.23069800  0.86810600  1
  H  H19  1  0.96041200  0.26930200  0.36810600  1
  H  H20  1  0.37476500  0.78348400  0.13587200  1
  H  H21  1  0.73069800  0.96041200  0.63189400  1
  H  H22  1  0.12523500  0.71651600  0.63587200  1
  H  H23  1  0.78348400  0.62523500  0.86412800  1
  H  H24  1  0.71651600  0.87476500  0.36412800  1
  H  H25  1  0.37476500  0.21651600  0.63587200  1
  H  H26  1  0.71651600  0.12523500  0.86412800  1
  H  H27  1  0.28348400  0.87476500  0.86412800  1
  H  H28  1  0.62523500  0.78348400  0.63587200  1
  H  H29  1  0.76930200  0.46041200  0.63189400  1
  H  H30  1  0.23069800  0.53958800  0.63189400  1
  H  H31  1  0.96041200  0.73069800  0.86810600  1
  H  H32  1  0.03958800  0.26930200  0.86810600  1
  H  H33  1  0.76930200  0.53958800  0.13189400  1
  H  H34  1  0.03958800  0.73069800  0.36810600  1
  H  H35  1  0.46041200  0.76930200  0.86810600  1
  S  S36  1  0.00000000  0.00000000  0.00000000  1
  S  S37  1  0.00000000  0.00000000  0.50000000  1
  S  S38  1  0.50000000  0.50000000  0.50000000  1
  S  S39  1  0.50000000  0.50000000  0.00000000  1
  O  O40  1  0.08436400  0.12856400  0.42345800  1
  O  O41  1  0.36213650  0.89650950  0.17236950  1
  O  O42  1  0.60349050  0.86213650  0.32763050  1
  O  O43  1  0.86213650  0.60349050  0.17236950  1
  O  O44  1  0.10349050  0.63786350  0.32763050  1
  O  O45  1  0.89650950  0.36213650  0.32763050  1
  O  O46  1  0.13786350  0.39650950  0.17236950  1
  O  O47  1  0.37143600  0.58436400  0.07654200  1
  O  O48  1  0.12856400  0.91563600  0.57654200  1
  O  O49  1  0.63786350  0.10349050  0.17236950  1
  O  O50  1  0.41563600  0.37143600  0.92345800  1
  O  O51  1  0.37143600  0.41563600  0.57654200  1
  O  O52  1  0.41563600  0.62856400  0.42345800  1
  O  O53  1  0.08436400  0.87143600  0.92345800  1
  O  O54  1  0.12856400  0.08436400  0.07654200  1
  O  O55  1  0.39650950  0.13786350  0.32763050  1
  O  O56  1  0.58436400  0.62856400  0.92345800  1
  O  O57  1  0.86213650  0.39650950  0.67236950  1
  O  O58  1  0.10349050  0.36213650  0.82763050  1
  O  O59  1  0.36213650  0.10349050  0.67236950  1
  O  O60  1  0.60349050  0.13786350  0.82763050  1
  O  O61  1  0.39650950  0.86213650  0.82763050  1
  O  O62  1  0.63786350  0.89650950  0.67236950  1
  O  O63  1  0.87143600  0.08436400  0.57654200  1
  O  O64  1  0.62856400  0.41563600  0.07654200  1
  O  O65  1  0.13786350  0.60349050  0.67236950  1
  O  O66  1  0.91563600  0.87143600  0.42345800  1
  O  O67  1  0.87143600  0.91563600  0.07654200  1
  O  O68  1  0.91563600  0.12856400  0.92345800  1
  O  O69  1  0.58436400  0.37143600  0.42345800  1
  O  O70  1  0.62856400  0.58436400  0.57654200  1
  O  O71  1  0.89650950  0.63786350  0.82763050  1
