# generated using pymatgen
data_BaH4(IO)2
_symmetry_space_group_name_H-M   'P 1'
_cell_length_a   11.11092600
_cell_length_b   7.65990200
_cell_length_c   8.80088224
_cell_angle_alpha   90.00000000
_cell_angle_beta   110.96107868
_cell_angle_gamma   90.00000000
_symmetry_Int_Tables_number   1
_chemical_formula_structural   BaH4(IO)2
_chemical_formula_sum   'Ba4 H16 I8 O8'
_cell_volume   699.46268131
_cell_formula_units_Z   4
loop_
 _symmetry_equiv_pos_site_id
 _symmetry_equiv_pos_as_xyz
  1  'x, y, z'
loop_
 _atom_site_type_symbol
 _atom_site_label
 _atom_site_symmetry_multiplicity
 _atom_site_fract_x
 _atom_site_fract_y
 _atom_site_fract_z
 _atom_site_occupancy
  Ba  Ba0  1  0.00000000  0.40433700  0.25000000  1
  Ba  Ba1  1  0.00000000  0.59566300  0.75000000  1
  Ba  Ba2  1  0.50000000  0.90433700  0.25000000  1
  Ba  Ba3  1  0.50000000  0.09566300  0.75000000  1
  H  H4  1  0.07357200  0.21303600  0.61333500  1
  H  H5  1  0.92642800  0.21303600  0.88666500  1
  H  H6  1  0.92642800  0.78696400  0.38666500  1
  H  H7  1  0.07357200  0.78696400  0.11333500  1
  H  H8  1  0.92363550  0.20384950  0.55190400  1
  H  H9  1  0.07636450  0.20384950  0.94809600  1
  H  H10  1  0.92363550  0.79615050  0.05190400  1
  H  H11  1  0.07636450  0.79615050  0.44809600  1
  H  H12  1  0.57357200  0.71303600  0.61333500  1
  H  H13  1  0.42642800  0.71303600  0.88666500  1
  H  H14  1  0.42642800  0.28696400  0.38666500  1
  H  H15  1  0.57357200  0.28696400  0.11333500  1
  H  H16  1  0.42363550  0.70384950  0.55190400  1
  H  H17  1  0.57636450  0.70384950  0.94809600  1
  H  H18  1  0.42363550  0.29615050  0.05190400  1
  H  H19  1  0.57636450  0.29615050  0.44809600  1
  I  I20  1  0.29184550  0.51798150  0.14921600  1
  I  I21  1  0.70815450  0.51798150  0.35078400  1
  I  I22  1  0.29184550  0.48201850  0.64921600  1
  I  I23  1  0.70815450  0.48201850  0.85078400  1
  I  I24  1  0.79184550  0.01798150  0.14921600  1
  I  I25  1  0.20815450  0.01798150  0.35078400  1
  I  I26  1  0.79184550  0.98201850  0.64921600  1
  I  I27  1  0.20815450  0.98201850  0.85078400  1
  O  O28  1  0.00440000  0.28212400  0.94476200  1
  O  O29  1  0.99560000  0.28212400  0.55523800  1
  O  O30  1  0.99560000  0.71787600  0.05523800  1
  O  O31  1  0.00440000  0.71787600  0.44476200  1
  O  O32  1  0.50440000  0.78212400  0.94476200  1
  O  O33  1  0.49560000  0.78212400  0.55523800  1
  O  O34  1  0.49560000  0.21787600  0.05523800  1
  O  O35  1  0.50440000  0.21787600  0.44476200  1
