# generated using pymatgen
data_SrH2N2O5
_symmetry_space_group_name_H-M   'P 1'
_cell_length_a   4.54314400
_cell_length_b   9.07200400
_cell_length_c   12.75231253
_cell_angle_alpha   90.00000000
_cell_angle_beta   99.38939035
_cell_angle_gamma   90.00000000
_symmetry_Int_Tables_number   1
_chemical_formula_structural   SrH2N2O5
_chemical_formula_sum   'Sr4 H8 N8 O20'
_cell_volume   518.55024735
_cell_formula_units_Z   4
loop_
 _symmetry_equiv_pos_site_id
 _symmetry_equiv_pos_as_xyz
  1  'x, y, z'
loop_
 _atom_site_type_symbol
 _atom_site_label
 _atom_site_symmetry_multiplicity
 _atom_site_fract_x
 _atom_site_fract_y
 _atom_site_fract_z
 _atom_site_occupancy
  Sr  Sr0  1  0.12066400  0.22419200  0.57634500  1
  Sr  Sr1  1  0.87933600  0.72419200  0.42365500  1
  Sr  Sr2  1  0.93358200  0.49965800  0.07211900  1
  Sr  Sr3  1  0.06641800  0.99965800  0.92788100  1
  H  H4  1  0.09523800  0.42783100  0.78305100  1
  H  H5  1  0.90476200  0.92783100  0.21694900  1
  H  H6  1  0.15763100  0.52783400  0.69236200  1
  H  H7  1  0.84236900  0.02783400  0.30763800  1
  H  H8  1  0.14175600  0.11235300  0.16913800  1
  H  H9  1  0.85824400  0.61235300  0.83086200  1
  H  H10  1  0.61066000  0.48734100  0.81868800  1
  H  H11  1  0.38934000  0.98734100  0.18131200  1
  N  N12  1  0.47276300  0.23846800  0.98463500  1
  N  N13  1  0.52723700  0.73846800  0.01536500  1
  N  N14  1  0.47119100  0.98610400  0.50279900  1
  N  N15  1  0.52880900  0.48610400  0.49720100  1
  N  N16  1  0.00774600  0.31101500  0.30876400  1
  N  N17  1  0.99225400  0.81101500  0.69123600  1
  N  N18  1  0.42622400  0.62227300  0.26853700  1
  N  N19  1  0.57377600  0.12227300  0.73146300  1
  O  O20  1  0.38010400  0.86053000  0.46578300  1
  O  O21  1  0.61989600  0.36053000  0.53421700  1
  O  O22  1  0.49083400  0.54363500  0.19394700  1
  O  O23  1  0.50916600  0.04363500  0.80605300  1
  O  O24  1  0.14911300  0.65178300  0.26159300  1
  O  O25  1  0.85088700  0.15178300  0.73840700  1
  O  O26  1  0.25331500  0.50726700  0.49577100  1
  O  O27  1  0.74668500  0.00726700  0.50422900  1
  O  O28  1  0.98872000  0.78368500  0.78896200  1
  O  O29  1  0.01128000  0.28368500  0.21103800  1
  O  O30  1  0.97459400  0.69730800  0.63200400  1
  O  O31  1  0.02540600  0.19730800  0.36799600  1
  O  O32  1  0.19316300  0.01501700  0.14036300  1
  O  O33  1  0.80683700  0.51501700  0.85963700  1
  O  O34  1  0.39564400  0.36618700  0.01074500  1
  O  O35  1  0.60435600  0.86618700  0.98925500  1
  O  O36  1  0.75241900  0.22266700  0.99006800  1
  O  O37  1  0.24758100  0.72266700  0.00993200  1
  O  O38  1  0.76941200  0.93533200  0.27029100  1
  O  O39  1  0.23058800  0.43533200  0.72970900  1
