# generated using pymatgen
data_K2Sb4S7
_symmetry_space_group_name_H-M   'P 1'
_cell_length_a   10.50210600
_cell_length_b   8.08126600
_cell_length_c   17.81284681
_cell_angle_alpha   90.00000000
_cell_angle_beta   94.12564714
_cell_angle_gamma   90.00000000
_symmetry_Int_Tables_number   1
_chemical_formula_structural   K2Sb4S7
_chemical_formula_sum   'K8 Sb16 S28'
_cell_volume   1507.86435636
_cell_formula_units_Z   4
loop_
 _symmetry_equiv_pos_site_id
 _symmetry_equiv_pos_as_xyz
  1  'x, y, z'
loop_
 _atom_site_type_symbol
 _atom_site_label
 _atom_site_symmetry_multiplicity
 _atom_site_fract_x
 _atom_site_fract_y
 _atom_site_fract_z
 _atom_site_occupancy
  K  K0  1  0.33166000  0.11713900  0.29538100  1
  K  K1  1  0.66834000  0.11713900  0.20461900  1
  K  K2  1  0.66834000  0.88286100  0.70461900  1
  K  K3  1  0.33166000  0.88286100  0.79538100  1
  K  K4  1  0.83166000  0.61713900  0.29538100  1
  K  K5  1  0.16834000  0.61713900  0.20461900  1
  K  K6  1  0.16834000  0.38286100  0.70461900  1
  K  K7  1  0.83166000  0.38286100  0.79538100  1
  Sb  Sb8  1  0.66532800  0.02854300  0.46668300  1
  Sb  Sb9  1  0.66532800  0.97145700  0.96668300  1
  Sb  Sb10  1  0.33467200  0.97145700  0.53331700  1
  Sb  Sb11  1  0.33467200  0.02854300  0.03331700  1
  Sb  Sb12  1  0.48973400  0.37083000  0.88108000  1
  Sb  Sb13  1  0.51026600  0.37083000  0.61892000  1
  Sb  Sb14  1  0.51026600  0.62917000  0.11892000  1
  Sb  Sb15  1  0.48973400  0.62917000  0.38108000  1
  Sb  Sb16  1  0.16532800  0.52854300  0.46668300  1
  Sb  Sb17  1  0.16532800  0.47145700  0.96668300  1
  Sb  Sb18  1  0.83467200  0.47145700  0.53331700  1
  Sb  Sb19  1  0.83467200  0.52854300  0.03331700  1
  Sb  Sb20  1  0.98973400  0.87083000  0.88108000  1
  Sb  Sb21  1  0.01026600  0.87083000  0.61892000  1
  Sb  Sb22  1  0.01026600  0.12917000  0.11892000  1
  Sb  Sb23  1  0.98973400  0.12917000  0.38108000  1
  S  S24  1  0.38849600  0.87616600  0.15613400  1
  S  S25  1  0.27447650  0.75072850  0.37263000  1
  S  S26  1  0.61150400  0.12383400  0.84386600  1
  S  S27  1  0.38849600  0.12383400  0.65613400  1
  S  S28  1  0.50000000  0.50178600  0.75000000  1
  S  S29  1  0.50000000  0.49821400  0.25000000  1
  S  S30  1  0.27447650  0.24927150  0.87263000  1
  S  S31  1  0.72552350  0.24927150  0.62737000  1
  S  S32  1  0.72552350  0.75072850  0.12737000  1
  S  S33  1  0.52410050  0.20525750  0.03900700  1
  S  S34  1  0.52410050  0.79474250  0.53900700  1
  S  S35  1  0.47589950  0.79474250  0.96099300  1
  S  S36  1  0.61150400  0.87616600  0.34386600  1
  S  S37  1  0.47589950  0.20525750  0.46099300  1
  S  S38  1  0.88849600  0.37616600  0.15613400  1
  S  S39  1  0.77447650  0.25072850  0.37263000  1
  S  S40  1  0.11150400  0.62383400  0.84386600  1
  S  S41  1  0.88849600  0.62383400  0.65613400  1
  S  S42  1  0.00000000  0.00178600  0.75000000  1
  S  S43  1  0.00000000  0.99821400  0.25000000  1
  S  S44  1  0.77447650  0.74927150  0.87263000  1
  S  S45  1  0.22552350  0.74927150  0.62737000  1
  S  S46  1  0.22552350  0.25072850  0.12737000  1
  S  S47  1  0.02410050  0.70525750  0.03900700  1
  S  S48  1  0.02410050  0.29474250  0.53900700  1
  S  S49  1  0.97589950  0.29474250  0.96099300  1
  S  S50  1  0.11150400  0.37616600  0.34386600  1
  S  S51  1  0.97589950  0.70525750  0.46099300  1
