# generated using pymatgen
data_PH5NO3F
_symmetry_space_group_name_H-M   'P 1'
_cell_length_a   7.54341200
_cell_length_b   7.55254845
_cell_length_c   7.92849094
_cell_angle_alpha   83.25173987
_cell_angle_beta   83.93985271
_cell_angle_gamma   70.05154434
_symmetry_Int_Tables_number   1
_chemical_formula_structural   PH5NO3F
_chemical_formula_sum   'P4 H20 N4 O12 F4'
_cell_volume   420.61940038
_cell_formula_units_Z   4
loop_
 _symmetry_equiv_pos_site_id
 _symmetry_equiv_pos_as_xyz
  1  'x, y, z'
loop_
 _atom_site_type_symbol
 _atom_site_label
 _atom_site_symmetry_multiplicity
 _atom_site_fract_x
 _atom_site_fract_y
 _atom_site_fract_z
 _atom_site_occupancy
  P  P0  1  0.73852300  0.73878700  0.59800800  1
  P  P1  1  0.26147700  0.26121300  0.40199200  1
  P  P2  1  0.71565900  0.23465700  0.95029100  1
  P  P3  1  0.28434100  0.76534300  0.04970900  1
  H  H4  1  0.19597500  0.75275700  0.72789000  1
  H  H5  1  0.80402500  0.24724300  0.27211000  1
  H  H6  1  0.12710000  0.76824400  0.52819100  1
  H  H7  1  0.87290000  0.23175600  0.47180900  1
  H  H8  1  0.19922800  0.94100400  0.58557100  1
  H  H9  1  0.80077200  0.05899600  0.41442900  1
  H  H10  1  0.35877600  0.72158100  0.56053200  1
  H  H11  1  0.64122400  0.27841900  0.43946800  1
  H  H12  1  0.77248900  0.59487300  0.09701100  1
  H  H13  1  0.22751100  0.40512700  0.90298900  1
  H  H14  1  0.94097000  0.69797200  0.04736500  1
  H  H15  1  0.05903000  0.30202800  0.95263500  1
  H  H16  1  0.71071300  0.83579800  0.06554500  1
  H  H17  1  0.28928700  0.16420200  0.93445500  1
  H  H18  1  0.81996600  0.72417400  0.24012500  1
  H  H19  1  0.18003400  0.27582600  0.75987500  1
  H  H20  1  0.51805100  0.89194300  0.79040900  1
  H  H21  1  0.48194900  0.10805700  0.20959100  1
  H  H22  1  0.62032600  0.45730900  0.72550100  1
  H  H23  1  0.37967400  0.54269100  0.27449900  1
  N  N24  1  0.19033500  0.28831200  0.88787900  1
  N  N25  1  0.80966500  0.71168800  0.11212100  1
  N  N26  1  0.77993200  0.20432500  0.40045600  1
  N  N27  1  0.22006800  0.79567500  0.59954400  1
  O  O28  1  0.58076100  0.36455000  0.81501500  1
  O  O29  1  0.18413300  0.66723200  0.95665900  1
  O  O30  1  0.60515400  0.91570200  0.68730300  1
  O  O31  1  0.39484600  0.08429800  0.31269700  1
  O  O32  1  0.64223200  0.59761600  0.57615100  1
  O  O33  1  0.35776800  0.40238400  0.42384900  1
  O  O34  1  0.84757500  0.80311200  0.44673900  1
  O  O35  1  0.15242500  0.19688800  0.55326100  1
  O  O36  1  0.81586700  0.33276800  0.04334100  1
  O  O37  1  0.38520800  0.88560000  0.94375000  1
  O  O38  1  0.41923900  0.63545000  0.18498500  1
  O  O39  1  0.61479200  0.11440000  0.05625000  1
  F  F40  1  0.89175500  0.63397500  0.73596800  1
  F  F41  1  0.12070200  0.90700900  0.16373300  1
  F  F42  1  0.87929800  0.09299100  0.83626700  1
  F  F43  1  0.10824500  0.36602500  0.26403200  1
