# generated using pymatgen
data_TiNb3O6
_symmetry_space_group_name_H-M   'P 1'
_cell_length_a   8.01319204
_cell_length_b   8.01319204
_cell_length_c   14.56680075
_cell_angle_alpha   90.00000000
_cell_angle_beta   90.00000000
_cell_angle_gamma   120.00000000
_symmetry_Int_Tables_number   1
_chemical_formula_structural   TiNb3O6
_chemical_formula_sum   'Ti6 Nb18 O36'
_cell_volume   810.03897120
_cell_formula_units_Z   6
loop_
 _symmetry_equiv_pos_site_id
 _symmetry_equiv_pos_as_xyz
  1  'x, y, z'
loop_
 _atom_site_type_symbol
 _atom_site_label
 _atom_site_symmetry_multiplicity
 _atom_site_fract_x
 _atom_site_fract_y
 _atom_site_fract_z
 _atom_site_occupancy
  Ti  Ti0  1  0.33333333  0.66666667  0.94047567  1
  Ti  Ti1  1  0.33333333  0.66666667  0.39285767  1
  Ti  Ti2  1  0.00000000  0.00000000  0.27380900  1
  Ti  Ti3  1  0.00000000  0.00000000  0.72619100  1
  Ti  Ti4  1  0.66666667  0.33333333  0.60714233  1
  Ti  Ti5  1  0.66666667  0.33333333  0.05952433  1
  Nb  Nb6  1  0.68845433  0.55083567  0.25553567  1
  Nb  Nb7  1  0.44916433  0.13761867  0.25553567  1
  Nb  Nb8  1  0.86238133  0.31154567  0.25553567  1
  Nb  Nb9  1  0.97821233  0.78249767  0.07779767  1
  Nb  Nb10  1  0.21750233  0.19571467  0.07779767  1
  Nb  Nb11  1  0.80428533  0.02178767  0.07779767  1
  Nb  Nb12  1  0.35512100  0.88416900  0.58886900  1
  Nb  Nb13  1  0.11583100  0.47095200  0.58886900  1
  Nb  Nb14  1  0.52904800  0.64487900  0.58886900  1
  Nb  Nb15  1  0.64487900  0.11583100  0.41113100  1
  Nb  Nb16  1  0.88416900  0.52904800  0.41113100  1
  Nb  Nb17  1  0.47095200  0.35512100  0.41113100  1
  Nb  Nb18  1  0.02178767  0.21750233  0.92220233  1
  Nb  Nb19  1  0.78249767  0.80428533  0.92220233  1
  Nb  Nb20  1  0.19571467  0.97821233  0.92220233  1
  Nb  Nb21  1  0.31154567  0.44916433  0.74446433  1
  Nb  Nb22  1  0.55083567  0.86238133  0.74446433  1
  Nb  Nb23  1  0.13761867  0.68845433  0.74446433  1
  O  O24  1  0.17243233  0.74214767  0.00061867  1
  O  O25  1  0.25785233  0.43028467  0.00061867  1
  O  O26  1  0.56971533  0.82756767  0.00061867  1
  O  O27  1  0.49423433  0.59118567  0.33271467  1
  O  O28  1  0.40881433  0.90304867  0.33271467  1
  O  O29  1  0.09695133  0.50576567  0.33271467  1
  O  O30  1  0.48766533  0.36117767  0.16021967  1
  O  O31  1  0.63882233  0.12648767  0.16021967  1
  O  O32  1  0.79315433  0.82099867  0.17311367  1
  O  O33  1  0.02784433  0.20684567  0.17311367  1
  O  O34  1  0.17900133  0.97215567  0.17311367  1
  O  O35  1  0.87351233  0.51233467  0.16021967  1
  O  O36  1  0.83909900  0.07548100  0.33395200  1
  O  O37  1  0.92451900  0.76361800  0.33395200  1
  O  O38  1  0.23638200  0.16090100  0.33395200  1
  O  O39  1  0.16090100  0.92451900  0.66604800  1
  O  O40  1  0.07548100  0.23638200  0.66604800  1
  O  O41  1  0.76361800  0.83909900  0.66604800  1
  O  O42  1  0.15433200  0.69451100  0.49355300  1
  O  O43  1  0.30548900  0.45982100  0.49355300  1
  O  O44  1  0.45982100  0.15433200  0.50644700  1
  O  O45  1  0.69451100  0.54017900  0.50644700  1
  O  O46  1  0.84566800  0.30548900  0.50644700  1
  O  O47  1  0.54017900  0.84566800  0.49355300  1
  O  O48  1  0.50576567  0.40881433  0.66728533  1
  O  O49  1  0.59118567  0.09695133  0.66728533  1
  O  O50  1  0.90304867  0.49423433  0.66728533  1
  O  O51  1  0.82756767  0.25785233  0.99938133  1
  O  O52  1  0.74214767  0.56971533  0.99938133  1
  O  O53  1  0.43028467  0.17243233  0.99938133  1
  O  O54  1  0.82099867  0.02784433  0.82688633  1
  O  O55  1  0.97215567  0.79315433  0.82688633  1
  O  O56  1  0.12648767  0.48766533  0.83978033  1
  O  O57  1  0.36117767  0.87351233  0.83978033  1
  O  O58  1  0.51233467  0.63882233  0.83978033  1
  O  O59  1  0.20684567  0.17900133  0.82688633  1
