# generated using pymatgen
data_Na4Cu2S3
_symmetry_space_group_name_H-M   'P 1'
_cell_length_a   9.52121800
_cell_length_b   9.52121800
_cell_length_c   36.54643400
_cell_angle_alpha   90.00000000
_cell_angle_beta   90.00000000
_cell_angle_gamma   90.00000000
_symmetry_Int_Tables_number   1
_chemical_formula_structural   Na4Cu2S3
_chemical_formula_sum   'Na64 Cu32 S48'
_cell_volume   3313.06552433
_cell_formula_units_Z   16
loop_
 _symmetry_equiv_pos_site_id
 _symmetry_equiv_pos_as_xyz
  1  'x, y, z'
loop_
 _atom_site_type_symbol
 _atom_site_label
 _atom_site_symmetry_multiplicity
 _atom_site_fract_x
 _atom_site_fract_y
 _atom_site_fract_z
 _atom_site_occupancy
  Na  Na0  1  0.00000000  0.00000000  0.00000000  1
  Na  Na1  1  0.00000000  0.50000000  0.25000000  1
  Na  Na2  1  0.50000000  0.50000000  0.00000000  1
  Na  Na3  1  0.50000000  0.00000000  0.25000000  1
  Na  Na4  1  0.00000000  0.00000000  0.09192300  1
  Na  Na5  1  0.00000000  0.50000000  0.34192300  1
  Na  Na6  1  0.00000000  0.50000000  0.15807700  1
  Na  Na7  1  0.50000000  0.50000000  0.40807700  1
  Na  Na8  1  0.00000000  0.50000000  0.00810400  1
  Na  Na9  1  0.50000000  0.50000000  0.25810400  1
  Na  Na10  1  0.00000000  0.00000000  0.24189600  1
  Na  Na11  1  0.00000000  0.50000000  0.49189600  1
  Na  Na12  1  0.50000000  0.00000000  0.08686900  1
  Na  Na13  1  0.00000000  0.00000000  0.33686900  1
  Na  Na14  1  0.50000000  0.50000000  0.16313100  1
  Na  Na15  1  0.50000000  0.00000000  0.41313100  1
  Na  Na16  1  0.74650400  0.70511900  0.08585000  1
  Na  Na17  1  0.70511900  0.75349600  0.33585000  1
  Na  Na18  1  0.29488100  0.24650400  0.33585000  1
  Na  Na19  1  0.25349600  0.29488100  0.08585000  1
  Na  Na20  1  0.25349600  0.79488100  0.16415000  1
  Na  Na21  1  0.79488100  0.24650400  0.41415000  1
  Na  Na22  1  0.20511900  0.75349600  0.41415000  1
  Na  Na23  1  0.74650400  0.20511900  0.16415000  1
  Na  Na24  1  0.74903650  0.24422650  0.00679450  1
  Na  Na25  1  0.24422650  0.75096350  0.25679450  1
  Na  Na26  1  0.75577350  0.24903650  0.25679450  1
  Na  Na27  1  0.25096350  0.75577350  0.00679450  1
  Na  Na28  1  0.25096350  0.25577350  0.24320550  1
  Na  Na29  1  0.25577350  0.24903650  0.49320550  1
  Na  Na30  1  0.74422650  0.75096350  0.49320550  1
  Na  Na31  1  0.74903650  0.74422650  0.24320550  1
  Na  Na32  1  0.50000000  0.50000000  0.50000000  1
  Na  Na33  1  0.50000000  0.00000000  0.75000000  1
  Na  Na34  1  0.00000000  0.00000000  0.50000000  1
  Na  Na35  1  0.00000000  0.50000000  0.75000000  1
  Na  Na36  1  0.50000000  0.50000000  0.59192300  1
  Na  Na37  1  0.50000000  0.00000000  0.84192300  1
  Na  Na38  1  0.50000000  0.00000000  0.65807700  1
  Na  Na39  1  0.00000000  0.00000000  0.90807700  1
  Na  Na40  1  0.50000000  0.00000000  0.50810400  1
  Na  Na41  1  0.00000000  0.00000000  0.75810400  1
  Na  Na42  1  0.50000000  0.50000000  0.74189600  1
  Na  Na43  1  0.50000000  0.00000000  0.99189600  1
  Na  Na44  1  0.00000000  0.50000000  0.58686900  1
  Na  Na45  1  0.50000000  0.50000000  0.83686900  1
  Na  Na46  1  0.00000000  0.00000000  0.66313100  1
  Na  Na47  1  0.00000000  0.50000000  0.91313100  1
  Na  Na48  1  0.24650400  0.20511900  0.58585000  1
  Na  Na49  1  0.20511900  0.25349600  0.83585000  1
  Na  Na50  1  0.79488100  0.74650400  0.83585000  1
  Na  Na51  1  0.75349600  0.79488100  0.58585000  1
  Na  Na52  1  0.75349600  0.29488100  0.66415000  1
  Na  Na53  1  0.29488100  0.74650400  0.91415000  1
  Na  Na54  1  0.70511900  0.25349600  0.91415000  1
  Na  Na55  1  0.24650400  0.70511900  0.66415000  1
  Na  Na56  1  0.24903650  0.74422650  0.50679450  1
  Na  Na57  1  0.74422650  0.25096350  0.75679450  1
  Na  Na58  1  0.25577350  0.74903650  0.75679450  1
  Na  Na59  1  0.75096350  0.25577350  0.50679450  1
  Na  Na60  1  0.75096350  0.75577350  0.74320550  1
  Na  Na61  1  0.75577350  0.74903650  0.99320550  1
  Na  Na62  1  0.24422650  0.25096350  0.99320550  1
  Na  Na63  1  0.24903650  0.24422650  0.74320550  1
  Cu  Cu64  1  0.60644950  0.34868550  0.07905250  1
  Cu  Cu65  1  0.34868550  0.89355050  0.32905250  1
  Cu  Cu66  1  0.65131450  0.10644950  0.32905250  1
  Cu  Cu67  1  0.39355050  0.65131450  0.07905250  1
  Cu  Cu68  1  0.39355050  0.15131450  0.17094750  1
  Cu  Cu69  1  0.15131450  0.10644950  0.42094750  1
  Cu  Cu70  1  0.84868550  0.89355050  0.42094750  1
  Cu  Cu71  1  0.60644950  0.84868550  0.17094750  1
  Cu  Cu72  1  0.88205800  0.34332200  0.08119400  1
  Cu  Cu73  1  0.34332200  0.61794200  0.33119400  1
  Cu  Cu74  1  0.65667800  0.38205800  0.33119400  1
  Cu  Cu75  1  0.11794200  0.65667800  0.08119400  1
  Cu  Cu76  1  0.11794200  0.15667800  0.16880600  1
  Cu  Cu77  1  0.15667800  0.38205800  0.41880600  1
  Cu  Cu78  1  0.84332200  0.61794200  0.41880600  1
  Cu  Cu79  1  0.88205800  0.84332200  0.16880600  1
  Cu  Cu80  1  0.10644950  0.84868550  0.57905250  1
  Cu  Cu81  1  0.84868550  0.39355050  0.82905250  1
  Cu  Cu82  1  0.15131450  0.60644950  0.82905250  1
  Cu  Cu83  1  0.89355050  0.15131450  0.57905250  1
  Cu  Cu84  1  0.89355050  0.65131450  0.67094750  1
  Cu  Cu85  1  0.65131450  0.60644950  0.92094750  1
  Cu  Cu86  1  0.34868550  0.39355050  0.92094750  1
  Cu  Cu87  1  0.10644950  0.34868550  0.67094750  1
  Cu  Cu88  1  0.38205800  0.84332200  0.58119400  1
  Cu  Cu89  1  0.84332200  0.11794200  0.83119400  1
  Cu  Cu90  1  0.15667800  0.88205800  0.83119400  1
  Cu  Cu91  1  0.61794200  0.15667800  0.58119400  1
  Cu  Cu92  1  0.61794200  0.65667800  0.66880600  1
  Cu  Cu93  1  0.65667800  0.88205800  0.91880600  1
  Cu  Cu94  1  0.34332200  0.11794200  0.91880600  1
  Cu  Cu95  1  0.38205800  0.34332200  0.66880600  1
  S  S96  1  0.74262900  0.44567400  0.11954300  1
  S  S97  1  0.44567400  0.75737100  0.36954300  1
  S  S98  1  0.55432600  0.24262900  0.36954300  1
  S  S99  1  0.25737100  0.55432600  0.11954300  1
  S  S100  1  0.25737100  0.05432600  0.13045700  1
  S  S101  1  0.05432600  0.24262900  0.38045700  1
  S  S102  1  0.94567400  0.75737100  0.38045700  1
  S  S103  1  0.74262900  0.94567400  0.13045700  1
  S  S104  1  0.01330800  0.23645300  0.04237200  1
  S  S105  1  0.23645300  0.48669200  0.29237200  1
  S  S106  1  0.76354700  0.51330800  0.29237200  1
  S  S107  1  0.98669200  0.76354700  0.04237200  1
  S  S108  1  0.98669200  0.26354700  0.20762800  1
  S  S109  1  0.26354700  0.51330800  0.45762800  1
  S  S110  1  0.73645300  0.48669200  0.45762800  1
  S  S111  1  0.01330800  0.73645300  0.20762800  1
  S  S112  1  0.51680950  0.76219950  0.03890850  1
  S  S113  1  0.76219950  0.98319050  0.28890850  1
  S  S114  1  0.23780050  0.01680950  0.28890850  1
  S  S115  1  0.48319050  0.23780050  0.03890850  1
  S  S116  1  0.48319050  0.73780050  0.21109150  1
  S  S117  1  0.73780050  0.01680950  0.46109150  1
  S  S118  1  0.26219950  0.98319050  0.46109150  1
  S  S119  1  0.51680950  0.26219950  0.21109150  1
  S  S120  1  0.24262900  0.94567400  0.61954300  1
  S  S121  1  0.94567400  0.25737100  0.86954300  1
  S  S122  1  0.05432600  0.74262900  0.86954300  1
  S  S123  1  0.75737100  0.05432600  0.61954300  1
  S  S124  1  0.75737100  0.55432600  0.63045700  1
  S  S125  1  0.55432600  0.74262900  0.88045700  1
  S  S126  1  0.44567400  0.25737100  0.88045700  1
  S  S127  1  0.24262900  0.44567400  0.63045700  1
  S  S128  1  0.51330800  0.73645300  0.54237200  1
  S  S129  1  0.73645300  0.98669200  0.79237200  1
  S  S130  1  0.26354700  0.01330800  0.79237200  1
  S  S131  1  0.48669200  0.26354700  0.54237200  1
  S  S132  1  0.48669200  0.76354700  0.70762800  1
  S  S133  1  0.76354700  0.01330800  0.95762800  1
  S  S134  1  0.23645300  0.98669200  0.95762800  1
  S  S135  1  0.51330800  0.23645300  0.70762800  1
  S  S136  1  0.01680950  0.26219950  0.53890850  1
  S  S137  1  0.26219950  0.48319050  0.78890850  1
  S  S138  1  0.73780050  0.51680950  0.78890850  1
  S  S139  1  0.98319050  0.73780050  0.53890850  1
  S  S140  1  0.98319050  0.23780050  0.71109150  1
  S  S141  1  0.23780050  0.51680950  0.96109150  1
  S  S142  1  0.76219950  0.48319050  0.96109150  1
  S  S143  1  0.01680950  0.76219950  0.71109150  1
