# generated using pymatgen
data_Al13(TlS7)3
_symmetry_space_group_name_H-M   'P 1'
_cell_length_a   25.58018600
_cell_length_b   15.14706800
_cell_length_c   9.38658363
_cell_angle_alpha   90.00000000
_cell_angle_beta   103.71700136
_cell_angle_gamma   90.00000000
_symmetry_Int_Tables_number   1
_chemical_formula_structural   Al13(TlS7)3
_chemical_formula_sum   'Al52 Tl12 S84'
_cell_volume   3533.24013153
_cell_formula_units_Z   4
loop_
 _symmetry_equiv_pos_site_id
 _symmetry_equiv_pos_as_xyz
  1  'x, y, z'
loop_
 _atom_site_type_symbol
 _atom_site_label
 _atom_site_symmetry_multiplicity
 _atom_site_fract_x
 _atom_site_fract_y
 _atom_site_fract_z
 _atom_site_occupancy
  Al  Al0  1  0.58857350  0.76748350  0.69855100  1
  Al  Al1  1  0.58857350  0.23251650  0.69855100  1
  Al  Al2  1  0.53040500  0.75344400  0.03399700  1
  Al  Al3  1  0.53040500  0.24655600  0.03399700  1
  Al  Al4  1  0.66187300  0.87078200  0.05209500  1
  Al  Al5  1  0.66187300  0.12921800  0.05209500  1
  Al  Al6  1  0.51864800  0.37874400  0.36886500  1
  Al  Al7  1  0.51864800  0.62125600  0.36886500  1
  Al  Al8  1  0.72116150  0.87250750  0.71499000  1
  Al  Al9  1  0.72116150  0.12749250  0.71499000  1
  Al  Al10  1  0.59459400  0.00000000  0.71433500  1
  Al  Al11  1  0.65036050  0.25073450  0.36664800  1
  Al  Al12  1  0.65036050  0.74926550  0.36664800  1
  Al  Al13  1  0.28506850  0.76742950  0.03732500  1
  Al  Al14  1  0.28506850  0.23257050  0.03732500  1
  Al  Al15  1  0.28661100  0.00000000  0.04407500  1
  Al  Al16  1  0.46997850  0.37545450  0.71186800  1
  Al  Al17  1  0.46997850  0.62454550  0.71186800  1
  Al  Al18  1  0.33970150  0.75366650  0.70269500  1
  Al  Al19  1  0.33970150  0.24633350  0.70269500  1
  Al  Al20  1  0.40204600  0.74954700  0.36905900  1
  Al  Al21  1  0.40204600  0.25045300  0.36905900  1
  Al  Al22  1  0.27413400  0.87311900  0.37794700  1
  Al  Al23  1  0.27413400  0.12688100  0.37794700  1
  Al  Al24  1  0.41488350  0.87524550  0.06362300  1
  Al  Al25  1  0.41488350  0.12475450  0.06362300  1
  Al  Al26  1  0.08857350  0.26748350  0.69855100  1
  Al  Al27  1  0.08857350  0.73251650  0.69855100  1
  Al  Al28  1  0.03040500  0.25344400  0.03399700  1
  Al  Al29  1  0.03040500  0.74655600  0.03399700  1
  Al  Al30  1  0.16187300  0.37078200  0.05209500  1
  Al  Al31  1  0.16187300  0.62921800  0.05209500  1
  Al  Al32  1  0.01864800  0.87874400  0.36886500  1
  Al  Al33  1  0.01864800  0.12125600  0.36886500  1
  Al  Al34  1  0.22116150  0.37250750  0.71499000  1
  Al  Al35  1  0.22116150  0.62749250  0.71499000  1
  Al  Al36  1  0.09459400  0.50000000  0.71433500  1
  Al  Al37  1  0.15036050  0.75073450  0.36664800  1
  Al  Al38  1  0.15036050  0.24926550  0.36664800  1
  Al  Al39  1  0.78506850  0.26742950  0.03732500  1
  Al  Al40  1  0.78506850  0.73257050  0.03732500  1
  Al  Al41  1  0.78661100  0.50000000  0.04407500  1
  Al  Al42  1  0.96997850  0.87545450  0.71186800  1
  Al  Al43  1  0.96997850  0.12454550  0.71186800  1
  Al  Al44  1  0.83970150  0.25366650  0.70269500  1
  Al  Al45  1  0.83970150  0.74633350  0.70269500  1
  Al  Al46  1  0.90204600  0.24954700  0.36905900  1
  Al  Al47  1  0.90204600  0.75045300  0.36905900  1
  Al  Al48  1  0.77413400  0.37311900  0.37794700  1
  Al  Al49  1  0.77413400  0.62688100  0.37794700  1
  Al  Al50  1  0.91488350  0.37524550  0.06362300  1
  Al  Al51  1  0.91488350  0.62475450  0.06362300  1
  Tl  Tl52  1  0.18284900  0.00000000  0.59406000  1
  Tl  Tl53  1  0.11158800  0.00000000  0.04245900  1
  Tl  Tl54  1  0.54896900  0.00000000  0.27980700  1
  Tl  Tl55  1  0.41912600  0.00000000  0.62062100  1
  Tl  Tl56  1  0.82089300  0.00000000  0.38934400  1
  Tl  Tl57  1  0.88996000  0.00000000  0.96034500  1
  Tl  Tl58  1  0.68284900  0.50000000  0.59406000  1
  Tl  Tl59  1  0.61158800  0.50000000  0.04245900  1
  Tl  Tl60  1  0.04896900  0.50000000  0.27980700  1
  Tl  Tl61  1  0.91912600  0.50000000  0.62062100  1
  Tl  Tl62  1  0.32089300  0.50000000  0.38934400  1
  Tl  Tl63  1  0.38996000  0.50000000  0.96034500  1
  S  S64  1  0.42930750  0.37815350  0.29399700  1
  S  S65  1  0.42930750  0.62184650  0.29399700  1
  S  S66  1  0.23537500  0.88367000  0.95842000  1
  S  S67  1  0.23537500  0.11633000  0.95842000  1
  S  S68  1  0.61743200  0.00000000  0.96655600  1
  S  S69  1  0.66825100  0.75309100  0.62546100  1
  S  S70  1  0.66825100  0.24690900  0.62546100  1
  S  S71  1  0.61045200  0.75290600  0.95174300  1
  S  S72  1  0.61045200  0.24709400  0.95174300  1
  S  S73  1  0.43272150  0.87673950  0.30754900  1
  S  S74  1  0.43272150  0.12326050  0.30754900  1
  S  S75  1  0.55775450  0.25621050  0.28868000  1
  S  S76  1  0.55775450  0.74378950  0.28868000  1
  S  S77  1  0.67636700  0.87814500  0.29261500  1
  S  S78  1  0.67636700  0.12185500  0.29261500  1
  S  S79  1  0.67437000  0.00000000  0.63644000  1
  S  S80  1  0.18401700  0.87847300  0.31200200  1
  S  S81  1  0.18401700  0.12152700  0.31200200  1
  S  S82  1  0.06066700  0.00000000  0.31871700  1
  S  S83  1  0.36317900  0.75410200  0.95947700  1
  S  S84  1  0.36317900  0.24589800  0.95947700  1
  S  S85  1  0.73996050  0.86578950  0.96813400  1
  S  S86  1  0.73996050  0.13421050  0.96813400  1
  S  S87  1  0.49465350  0.37730650  0.95627900  1
  S  S88  1  0.49465350  0.62269350  0.95627900  1
  S  S89  1  0.30874800  0.00000000  0.29746200  1
  S  S90  1  0.30809950  0.25152550  0.28821900  1
  S  S91  1  0.30809950  0.74847450  0.28821900  1
  S  S92  1  0.41914650  0.25252150  0.62573800  1
  S  S93  1  0.41914650  0.74747850  0.62573800  1
  S  S94  1  0.48831650  0.88105950  0.97452200  1
  S  S95  1  0.48831650  0.11894050  0.97452200  1
  S  S96  1  0.36640900  0.00000000  0.96695200  1
  S  S97  1  0.54365800  0.88741100  0.61619300  1
  S  S98  1  0.54365800  0.11258900  0.61619300  1
  S  S99  1  0.79855000  0.87696800  0.64987000  1
  S  S100  1  0.79855000  0.12303200  0.64987000  1
  S  S101  1  0.54706200  0.36509300  0.62471900  1
  S  S102  1  0.54706200  0.63490700  0.62471900  1
  S  S103  1  0.30433200  0.88259900  0.62079200  1
  S  S104  1  0.30433200  0.11740100  0.62079200  1
  S  S105  1  0.92312200  0.00000000  0.64508000  1
  S  S106  1  0.92930750  0.87815350  0.29399700  1
  S  S107  1  0.92930750  0.12184650  0.29399700  1
  S  S108  1  0.73537500  0.38367000  0.95842000  1
  S  S109  1  0.73537500  0.61633000  0.95842000  1
  S  S110  1  0.11743200  0.50000000  0.96655600  1
  S  S111  1  0.16825100  0.25309100  0.62546100  1
  S  S112  1  0.16825100  0.74690900  0.62546100  1
  S  S113  1  0.11045200  0.25290600  0.95174300  1
  S  S114  1  0.11045200  0.74709400  0.95174300  1
  S  S115  1  0.93272150  0.37673950  0.30754900  1
  S  S116  1  0.93272150  0.62326050  0.30754900  1
  S  S117  1  0.05775450  0.75621050  0.28868000  1
  S  S118  1  0.05775450  0.24378950  0.28868000  1
  S  S119  1  0.17636700  0.37814500  0.29261500  1
  S  S120  1  0.17636700  0.62185500  0.29261500  1
  S  S121  1  0.17437000  0.50000000  0.63644000  1
  S  S122  1  0.68401700  0.37847300  0.31200200  1
  S  S123  1  0.68401700  0.62152700  0.31200200  1
  S  S124  1  0.56066700  0.50000000  0.31871700  1
  S  S125  1  0.86317900  0.25410200  0.95947700  1
  S  S126  1  0.86317900  0.74589800  0.95947700  1
  S  S127  1  0.23996050  0.36578950  0.96813400  1
  S  S128  1  0.23996050  0.63421050  0.96813400  1
  S  S129  1  0.99465350  0.87730650  0.95627900  1
  S  S130  1  0.99465350  0.12269350  0.95627900  1
  S  S131  1  0.80874800  0.50000000  0.29746200  1
  S  S132  1  0.80809950  0.75152550  0.28821900  1
  S  S133  1  0.80809950  0.24847450  0.28821900  1
  S  S134  1  0.91914650  0.75252150  0.62573800  1
  S  S135  1  0.91914650  0.24747850  0.62573800  1
  S  S136  1  0.98831650  0.38105950  0.97452200  1
  S  S137  1  0.98831650  0.61894050  0.97452200  1
  S  S138  1  0.86640900  0.50000000  0.96695200  1
  S  S139  1  0.04365800  0.38741100  0.61619300  1
  S  S140  1  0.04365800  0.61258900  0.61619300  1
  S  S141  1  0.29855000  0.37696800  0.64987000  1
  S  S142  1  0.29855000  0.62303200  0.64987000  1
  S  S143  1  0.04706200  0.86509300  0.62471900  1
  S  S144  1  0.04706200  0.13490700  0.62471900  1
  S  S145  1  0.80433200  0.38259900  0.62079200  1
  S  S146  1  0.80433200  0.61740100  0.62079200  1
  S  S147  1  0.42312200  0.50000000  0.64508000  1
