# generated using pymatgen
data_BCl
_symmetry_space_group_name_H-M   'P 1'
_cell_length_a   8.26791700
_cell_length_b   13.56922600
_cell_length_c   14.58882500
_cell_angle_alpha   90.00000000
_cell_angle_beta   90.00000000
_cell_angle_gamma   90.00000000
_symmetry_Int_Tables_number   1
_chemical_formula_structural   BCl
_chemical_formula_sum   'B32 Cl32'
_cell_volume   1636.70910641
_cell_formula_units_Z   32
loop_
 _symmetry_equiv_pos_site_id
 _symmetry_equiv_pos_as_xyz
  1  'x, y, z'
loop_
 _atom_site_type_symbol
 _atom_site_label
 _atom_site_symmetry_multiplicity
 _atom_site_fract_x
 _atom_site_fract_y
 _atom_site_fract_z
 _atom_site_occupancy
  B  B0  1  0.48636500  0.06267300  0.35325300  1
  B  B1  1  0.98636500  0.43732700  0.64674700  1
  B  B2  1  0.51363500  0.56267300  0.14674700  1
  B  B3  1  0.01363500  0.93732700  0.85325300  1
  B  B4  1  0.62398400  0.10187100  0.43171600  1
  B  B5  1  0.12398400  0.39812900  0.56828400  1
  B  B6  1  0.37601600  0.60187100  0.06828400  1
  B  B7  1  0.87601600  0.89812900  0.93171600  1
  B  B8  1  0.86404100  0.11120600  0.93079000  1
  B  B9  1  0.36404100  0.38879400  0.06921000  1
  B  B10  1  0.13595900  0.61120600  0.56921000  1
  B  B11  1  0.63595900  0.88879400  0.43079000  1
  B  B12  1  0.74304600  0.07168700  0.84409000  1
  B  B13  1  0.24304600  0.42831300  0.15591000  1
  B  B14  1  0.25695400  0.57168700  0.65591000  1
  B  B15  1  0.75695400  0.92831300  0.34409000  1
  B  B16  1  0.98737300  0.00525700  0.95508900  1
  B  B17  1  0.48737300  0.49474300  0.04491100  1
  B  B18  1  0.01262700  0.50525700  0.54491100  1
  B  B19  1  0.51262700  0.99474300  0.45508900  1
  B  B20  1  0.69351400  0.05376500  0.32706200  1
  B  B21  1  0.19351400  0.44623500  0.67293800  1
  B  B22  1  0.30648600  0.55376500  0.17293800  1
  B  B23  1  0.80648600  0.94623500  0.82706200  1
  B  B24  1  0.74797400  0.00389700  0.94680300  1
  B  B25  1  0.24797400  0.49610300  0.05319700  1
  B  B26  1  0.25202600  0.50389700  0.55319700  1
  B  B27  1  0.75202600  0.99610300  0.44680300  1
  B  B28  1  0.95376600  0.06254000  0.83132200  1
  B  B29  1  0.45376600  0.43746000  0.16867800  1
  B  B30  1  0.04623400  0.56254000  0.66867800  1
  B  B31  1  0.54623400  0.93746000  0.33132200  1
  Cl  Cl32  1  0.32475900  0.12482100  0.30545900  1
  Cl  Cl33  1  0.82475900  0.37517900  0.69454100  1
  Cl  Cl34  1  0.67524100  0.62482100  0.19454100  1
  Cl  Cl35  1  0.17524100  0.87517900  0.80545900  1
  Cl  Cl36  1  0.64009300  0.21535200  0.48454300  1
  Cl  Cl37  1  0.14009300  0.28464800  0.51545700  1
  Cl  Cl38  1  0.35990700  0.71535200  0.01545700  1
  Cl  Cl39  1  0.85990700  0.78464800  0.98454300  1
  Cl  Cl40  1  0.87108800  0.22490000  0.98376700  1
  Cl  Cl41  1  0.37108800  0.27510000  0.01623300  1
  Cl  Cl42  1  0.12891200  0.72490000  0.51623300  1
  Cl  Cl43  1  0.62891200  0.77510000  0.48376700  1
  Cl  Cl44  1  0.59210800  0.13380100  0.78592700  1
  Cl  Cl45  1  0.09210800  0.36619900  0.21407300  1
  Cl  Cl46  1  0.40789200  0.63380100  0.71407300  1
  Cl  Cl47  1  0.90789200  0.86619900  0.28592700  1
  Cl  Cl48  1  0.12724400  0.02599900  0.04417500  1
  Cl  Cl49  1  0.62724400  0.47400100  0.95582500  1
  Cl  Cl50  1  0.87275600  0.52599900  0.45582500  1
  Cl  Cl51  1  0.37275600  0.97400100  0.54417500  1
  Cl  Cl52  1  0.80490700  0.11401200  0.24070200  1
  Cl  Cl53  1  0.30490700  0.38598800  0.75929800  1
  Cl  Cl54  1  0.19509300  0.61401200  0.25929800  1
  Cl  Cl55  1  0.69509300  0.88598800  0.74070200  1
  Cl  Cl56  1  0.91047000  0.01783300  0.52488600  1
  Cl  Cl57  1  0.41047000  0.48216700  0.47511400  1
  Cl  Cl58  1  0.08953000  0.51783300  0.97511400  1
  Cl  Cl59  1  0.58953000  0.98216700  0.02488600  1
  Cl  Cl60  1  0.08170000  0.12165200  0.75195000  1
  Cl  Cl61  1  0.58170000  0.37834800  0.24805000  1
  Cl  Cl62  1  0.91830000  0.62165200  0.74805000  1
  Cl  Cl63  1  0.41830000  0.87834800  0.25195000  1
