# generated using pymatgen
data_Ba(NO2)2
_symmetry_space_group_name_H-M   'P 1'
_cell_length_a   6.89855100
_cell_length_b   7.83048700
_cell_length_c   8.46659300
_cell_angle_alpha   90.00000000
_cell_angle_beta   90.00000000
_cell_angle_gamma   90.00000000
_symmetry_Int_Tables_number   1
_chemical_formula_structural   Ba(NO2)2
_chemical_formula_sum   'Ba4 N8 O16'
_cell_volume   457.35700516
_cell_formula_units_Z   4
loop_
 _symmetry_equiv_pos_site_id
 _symmetry_equiv_pos_as_xyz
  1  'x, y, z'
loop_
 _atom_site_type_symbol
 _atom_site_label
 _atom_site_symmetry_multiplicity
 _atom_site_fract_x
 _atom_site_fract_y
 _atom_site_fract_z
 _atom_site_occupancy
  Ba  Ba0  1  0.39255600  0.54032400  0.03909200  1
  Ba  Ba1  1  0.89255600  0.95967600  0.96090800  1
  Ba  Ba2  1  0.60744400  0.04032400  0.46090800  1
  Ba  Ba3  1  0.10744400  0.45967600  0.53909200  1
  N  N4  1  0.49311700  0.72251300  0.72609100  1
  N  N5  1  0.99311700  0.77748700  0.27390900  1
  N  N6  1  0.50688300  0.22251300  0.77390900  1
  N  N7  1  0.00688300  0.27748700  0.22609100  1
  N  N8  1  0.89472000  0.53379700  0.86581700  1
  N  N9  1  0.39472000  0.96620300  0.13418300  1
  N  N10  1  0.10528000  0.03379700  0.63418300  1
  N  N11  1  0.60528000  0.46620300  0.36581700  1
  O  O12  1  0.37150200  0.33395600  0.76758300  1
  O  O13  1  0.87150200  0.16604400  0.23241700  1
  O  O14  1  0.62849800  0.83395600  0.73241700  1
  O  O15  1  0.12849800  0.66604400  0.26758300  1
  O  O16  1  0.05064000  0.62126500  0.84080000  1
  O  O17  1  0.55064000  0.87873500  0.15920000  1
  O  O18  1  0.94936000  0.12126500  0.65920000  1
  O  O19  1  0.44936000  0.37873500  0.34080000  1
  O  O20  1  0.70930500  0.40855000  0.47554100  1
  O  O21  1  0.20930500  0.09145000  0.52445900  1
  O  O22  1  0.29069500  0.90855000  0.02445900  1
  O  O23  1  0.79069500  0.59145000  0.97554100  1
  O  O24  1  0.40717300  0.71432400  0.59450700  1
  O  O25  1  0.90717300  0.78567600  0.40549300  1
  O  O26  1  0.59282700  0.21432400  0.90549300  1
  O  O27  1  0.09282700  0.28567600  0.09450700  1
