# generated using pymatgen
data_CuH2(SeO3)2
_symmetry_space_group_name_H-M   'P 1'
_cell_length_a   5.84363300
_cell_length_b   7.42330600
_cell_length_c   8.50609982
_cell_angle_alpha   90.00000000
_cell_angle_beta   130.13920749
_cell_angle_gamma   90.00000000
_symmetry_Int_Tables_number   1
_chemical_formula_structural   CuH2(SeO3)2
_chemical_formula_sum   'Cu2 H4 Se4 O12'
_cell_volume   282.08315574
_cell_formula_units_Z   2
loop_
 _symmetry_equiv_pos_site_id
 _symmetry_equiv_pos_as_xyz
  1  'x, y, z'
loop_
 _atom_site_type_symbol
 _atom_site_label
 _atom_site_symmetry_multiplicity
 _atom_site_fract_x
 _atom_site_fract_y
 _atom_site_fract_z
 _atom_site_occupancy
  Cu  Cu0  1  0.00000000  0.00000000  0.00000000  1
  Cu  Cu1  1  0.00000000  0.50000000  0.50000000  1
  H  H2  1  0.93614800  0.59812900  0.83766200  1
  H  H3  1  0.06385200  0.09812900  0.66233800  1
  H  H4  1  0.93614800  0.90187100  0.33766200  1
  H  H5  1  0.06385200  0.40187100  0.16233800  1
  Se  Se6  1  0.36146000  0.66486300  0.28409400  1
  Se  Se7  1  0.63854000  0.16486300  0.21590600  1
  Se  Se8  1  0.36146000  0.83513700  0.78409400  1
  Se  Se9  1  0.63854000  0.33513700  0.71590600  1
  O  O10  1  0.91537800  0.23699600  0.46606100  1
  O  O11  1  0.08462200  0.76300400  0.53393900  1
  O  O12  1  0.08462200  0.73699600  0.03393900  1
  O  O13  1  0.41720400  0.45344300  0.74477000  1
  O  O14  1  0.91537800  0.26300400  0.96606100  1
  O  O15  1  0.58279600  0.95344300  0.75523000  1
  O  O16  1  0.58279600  0.54655700  0.25523000  1
  O  O17  1  0.41720400  0.04655700  0.24477000  1
  O  O18  1  0.84245200  0.51728700  0.71308300  1
  O  O19  1  0.15754800  0.01728700  0.78691700  1
  O  O20  1  0.15754800  0.48271300  0.28691700  1
  O  O21  1  0.84245200  0.98271300  0.21308300  1
