# generated using pymatgen
data_Tl8Ge5O14
_symmetry_space_group_name_H-M   'P 1'
_cell_length_a   9.77105856
_cell_length_b   9.77105856
_cell_length_c   41.31442426
_cell_angle_alpha   90.00000000
_cell_angle_beta   90.00000000
_cell_angle_gamma   120.00000000
_symmetry_Int_Tables_number   1
_chemical_formula_structural   Tl8Ge5O14
_chemical_formula_sum   'Tl48 Ge30 O84'
_cell_volume   3415.98195994
_cell_formula_units_Z   6
loop_
 _symmetry_equiv_pos_site_id
 _symmetry_equiv_pos_as_xyz
  1  'x, y, z'
loop_
 _atom_site_type_symbol
 _atom_site_label
 _atom_site_symmetry_multiplicity
 _atom_site_fract_x
 _atom_site_fract_y
 _atom_site_fract_z
 _atom_site_occupancy
  Tl  Tl0  1  0.62197133  0.54155867  0.20119267  1
  Tl  Tl1  1  0.54155867  0.62197133  0.29880733  1
  Tl  Tl2  1  0.04469533  0.79177467  0.13214067  1
  Tl  Tl3  1  0.12510800  0.71136200  0.03452600  1
  Tl  Tl4  1  0.08041267  0.45844133  0.29880733  1
  Tl  Tl5  1  0.45844133  0.08041267  0.20119267  1
  Tl  Tl6  1  0.58625400  0.87489200  0.03452600  1
  Tl  Tl7  1  0.20822533  0.25292067  0.13214067  1
  Tl  Tl8  1  0.33333333  0.66666667  0.22103467  1
  Tl  Tl9  1  0.66666667  0.33333333  0.27896533  1
  Tl  Tl10  1  0.33333333  0.66666667  0.11229867  1
  Tl  Tl11  1  0.00000000  0.00000000  0.05436800  1
  Tl  Tl12  1  0.37802867  0.91958733  0.29880733  1
  Tl  Tl13  1  0.91958733  0.37802867  0.20119267  1
  Tl  Tl14  1  0.28863800  0.41374600  0.03452600  1
  Tl  Tl15  1  0.74707933  0.95530467  0.13214067  1
  Tl  Tl16  1  0.28863800  0.87489200  0.53452600  1
  Tl  Tl17  1  0.20822533  0.95530467  0.63214067  1
  Tl  Tl18  1  0.71136200  0.12510800  0.46547400  1
  Tl  Tl19  1  0.79177467  0.04469533  0.36785933  1
  Tl  Tl20  1  0.74707933  0.79177467  0.63214067  1
  Tl  Tl21  1  0.12510800  0.41374600  0.53452600  1
  Tl  Tl22  1  0.25292067  0.20822533  0.36785933  1
  Tl  Tl23  1  0.87489200  0.58625400  0.46547400  1
  Tl  Tl24  1  0.00000000  0.00000000  0.55436800  1
  Tl  Tl25  1  0.33333333  0.66666667  0.61229867  1
  Tl  Tl26  1  0.00000000  0.00000000  0.44563200  1
  Tl  Tl27  1  0.66666667  0.33333333  0.38770133  1
  Tl  Tl28  1  0.04469533  0.25292067  0.63214067  1
  Tl  Tl29  1  0.58625400  0.71136200  0.53452600  1
  Tl  Tl30  1  0.95530467  0.74707933  0.36785933  1
  Tl  Tl31  1  0.41374600  0.28863800  0.46547400  1
  Tl  Tl32  1  0.95530467  0.20822533  0.86785933  1
  Tl  Tl33  1  0.87489200  0.28863800  0.96547400  1
  Tl  Tl34  1  0.37802867  0.45844133  0.79880733  1
  Tl  Tl35  1  0.45844133  0.37802867  0.70119267  1
  Tl  Tl36  1  0.41374600  0.12510800  0.96547400  1
  Tl  Tl37  1  0.79177467  0.74707933  0.86785933  1
  Tl  Tl38  1  0.91958733  0.54155867  0.70119267  1
  Tl  Tl39  1  0.54155867  0.91958733  0.79880733  1
  Tl  Tl40  1  0.66666667  0.33333333  0.88770133  1
  Tl  Tl41  1  0.00000000  0.00000000  0.94563200  1
  Tl  Tl42  1  0.66666667  0.33333333  0.77896533  1
  Tl  Tl43  1  0.33333333  0.66666667  0.72103467  1
  Tl  Tl44  1  0.71136200  0.58625400  0.96547400  1
  Tl  Tl45  1  0.25292067  0.04469533  0.86785933  1
  Tl  Tl46  1  0.62197133  0.08041267  0.70119267  1
  Tl  Tl47  1  0.08041267  0.62197133  0.79880733  1
  Ge  Ge48  1  0.26981800  0.26981800  0.25000000  1
  Ge  Ge49  1  0.39684867  0.06351533  0.08333333  1
  Ge  Ge50  1  0.00000000  0.00000000  0.29671000  1
  Ge  Ge51  1  0.00000000  0.00000000  0.20329000  1
  Ge  Ge52  1  0.66666667  0.33333333  0.03662333  1
  Ge  Ge53  1  0.66666667  0.33333333  0.13004333  1
  Ge  Ge54  1  0.00000000  0.73018200  0.25000000  1
  Ge  Ge55  1  0.73018200  0.00000000  0.25000000  1
  Ge  Ge56  1  0.66666667  0.60315133  0.08333333  1
  Ge  Ge57  1  0.93648467  0.33333333  0.08333333  1
  Ge  Ge58  1  0.93648467  0.60315133  0.58333333  1
  Ge  Ge59  1  0.06351533  0.39684867  0.41666667  1
  Ge  Ge60  1  0.66666667  0.33333333  0.63004333  1
  Ge  Ge61  1  0.66666667  0.33333333  0.53662333  1
  Ge  Ge62  1  0.33333333  0.66666667  0.36995667  1
  Ge  Ge63  1  0.33333333  0.66666667  0.46337667  1
  Ge  Ge64  1  0.66666667  0.06351533  0.58333333  1
  Ge  Ge65  1  0.39684867  0.33333333  0.58333333  1
  Ge  Ge66  1  0.33333333  0.93648467  0.41666667  1
  Ge  Ge67  1  0.60315133  0.66666667  0.41666667  1
  Ge  Ge68  1  0.60315133  0.93648467  0.91666667  1
  Ge  Ge69  1  0.73018200  0.73018200  0.75000000  1
  Ge  Ge70  1  0.33333333  0.66666667  0.96337667  1
  Ge  Ge71  1  0.33333333  0.66666667  0.86995667  1
  Ge  Ge72  1  0.00000000  0.00000000  0.70329000  1
  Ge  Ge73  1  0.00000000  0.00000000  0.79671000  1
  Ge  Ge74  1  0.33333333  0.39684867  0.91666667  1
  Ge  Ge75  1  0.06351533  0.66666667  0.91666667  1
  Ge  Ge76  1  0.00000000  0.26981800  0.75000000  1
  Ge  Ge77  1  0.26981800  0.00000000  0.75000000  1
  O  O78  1  0.93072700  0.80329500  0.28269800  1
  O  O79  1  0.80329500  0.93072700  0.21730200  1
  O  O80  1  0.73593967  0.53003833  0.05063533  1
  O  O81  1  0.86337167  0.40260633  0.11603133  1
  O  O82  1  0.28966900  0.45067800  0.26276200  1
  O  O83  1  0.45067800  0.28966900  0.23723800  1
  O  O84  1  0.37699767  0.88265533  0.07057133  1
  O  O85  1  0.21598867  0.04366433  0.09609533  1
  O  O86  1  0.16100900  0.71033100  0.26276200  1
  O  O87  1  0.71033100  0.16100900  0.23723800  1
  O  O88  1  0.50565767  0.62300233  0.07057133  1
  O  O89  1  0.95633567  0.17232433  0.09609533  1
  O  O90  1  0.54932200  0.83899100  0.26276200  1
  O  O91  1  0.83899100  0.54932200  0.23723800  1
  O  O92  1  0.11734467  0.49434233  0.07057133  1
  O  O93  1  0.82767567  0.78401133  0.09609533  1
  O  O94  1  0.19670500  0.12743200  0.28269800  1
  O  O95  1  0.12743200  0.19670500  0.21730200  1
  O  O96  1  0.46996167  0.20590133  0.05063533  1
  O  O97  1  0.53923467  0.13662833  0.11603133  1
  O  O98  1  0.33333333  0.66666667  0.32778967  1
  O  O99  1  0.66666667  0.33333333  0.17221033  1
  O  O100  1  0.33333333  0.66666667  0.00554367  1
  O  O101  1  0.00000000  0.00000000  0.16112300  1
  O  O102  1  0.06927300  0.87256800  0.21730200  1
  O  O103  1  0.87256800  0.06927300  0.28269800  1
  O  O104  1  0.79409867  0.26406033  0.05063533  1
  O  O105  1  0.59739367  0.46076533  0.11603133  1
  O  O106  1  0.59739367  0.13662833  0.61603133  1
  O  O107  1  0.46996167  0.26406033  0.55063533  1
  O  O108  1  0.40260633  0.86337167  0.38396867  1
  O  O109  1  0.53003833  0.73593967  0.44936467  1
  O  O110  1  0.95633567  0.78401133  0.59609533  1
  O  O111  1  0.11734467  0.62300233  0.57057133  1
  O  O112  1  0.04366433  0.21598867  0.40390467  1
  O  O113  1  0.88265533  0.37699767  0.42942867  1
  O  O114  1  0.82767567  0.04366433  0.59609533  1
  O  O115  1  0.37699767  0.49434233  0.57057133  1
  O  O116  1  0.17232433  0.95633567  0.40390467  1
  O  O117  1  0.62300233  0.50565767  0.42942867  1
  O  O118  1  0.21598867  0.17232433  0.59609533  1
  O  O119  1  0.50565767  0.88265533  0.57057133  1
  O  O120  1  0.78401133  0.82767567  0.40390467  1
  O  O121  1  0.49434233  0.11734467  0.42942867  1
  O  O122  1  0.86337167  0.46076533  0.61603133  1
  O  O123  1  0.79409867  0.53003833  0.55063533  1
  O  O124  1  0.13662833  0.53923467  0.38396867  1
  O  O125  1  0.20590133  0.46996167  0.44936467  1
  O  O126  1  0.00000000  0.00000000  0.66112300  1
  O  O127  1  0.33333333  0.66666667  0.50554367  1
  O  O128  1  0.00000000  0.00000000  0.33887700  1
  O  O129  1  0.66666667  0.33333333  0.49445633  1
  O  O130  1  0.73593967  0.20590133  0.55063533  1
  O  O131  1  0.53923467  0.40260633  0.61603133  1
  O  O132  1  0.46076533  0.59739367  0.38396867  1
  O  O133  1  0.26406033  0.79409867  0.44936467  1
  O  O134  1  0.26406033  0.46996167  0.94936467  1
  O  O135  1  0.13662833  0.59739367  0.88396867  1
  O  O136  1  0.06927300  0.19670500  0.71730200  1
  O  O137  1  0.19670500  0.06927300  0.78269800  1
  O  O138  1  0.62300233  0.11734467  0.92942867  1
  O  O139  1  0.78401133  0.95633567  0.90390467  1
  O  O140  1  0.71033100  0.54932200  0.73723800  1
  O  O141  1  0.54932200  0.71033100  0.76276200  1
  O  O142  1  0.49434233  0.37699767  0.92942867  1
  O  O143  1  0.04366433  0.82767567  0.90390467  1
  O  O144  1  0.83899100  0.28966900  0.73723800  1
  O  O145  1  0.28966900  0.83899100  0.76276200  1
  O  O146  1  0.88265533  0.50565767  0.92942867  1
  O  O147  1  0.17232433  0.21598867  0.90390467  1
  O  O148  1  0.45067800  0.16100900  0.73723800  1
  O  O149  1  0.16100900  0.45067800  0.76276200  1
  O  O150  1  0.53003833  0.79409867  0.94936467  1
  O  O151  1  0.46076533  0.86337167  0.88396867  1
  O  O152  1  0.80329500  0.87256800  0.71730200  1
  O  O153  1  0.87256800  0.80329500  0.78269800  1
  O  O154  1  0.66666667  0.33333333  0.99445633  1
  O  O155  1  0.00000000  0.00000000  0.83887700  1
  O  O156  1  0.66666667  0.33333333  0.67221033  1
  O  O157  1  0.33333333  0.66666667  0.82778967  1
  O  O158  1  0.40260633  0.53923467  0.88396867  1
  O  O159  1  0.20590133  0.73593967  0.94936467  1
  O  O160  1  0.12743200  0.93072700  0.71730200  1
  O  O161  1  0.93072700  0.12743200  0.78269800  1
