# generated using pymatgen
data_NaAlH4
_symmetry_space_group_name_H-M   'P 1'
_cell_length_a   4.98411800
_cell_length_b   4.98411800
_cell_length_c   11.09186800
_cell_angle_alpha   90.00000000
_cell_angle_beta   90.00000000
_cell_angle_gamma   90.00000000
_symmetry_Int_Tables_number   1
_chemical_formula_structural   NaAlH4
_chemical_formula_sum   'Na4 Al4 H16'
_cell_volume   275.53788731
_cell_formula_units_Z   4
loop_
 _symmetry_equiv_pos_site_id
 _symmetry_equiv_pos_as_xyz
  1  'x, y, z'
loop_
 _atom_site_type_symbol
 _atom_site_label
 _atom_site_symmetry_multiplicity
 _atom_site_fract_x
 _atom_site_fract_y
 _atom_site_fract_z
 _atom_site_occupancy
  Na  Na0  1  0.00000000  0.50000000  0.25000000  1
  Na  Na1  1  0.00000000  0.00000000  0.00000000  1
  Na  Na2  1  0.50000000  0.00000000  0.75000000  1
  Na  Na3  1  0.50000000  0.50000000  0.50000000  1
  Al  Al4  1  0.50000000  0.00000000  0.25000000  1
  Al  Al5  1  0.50000000  0.50000000  0.00000000  1
  Al  Al6  1  0.00000000  0.50000000  0.75000000  1
  Al  Al7  1  0.00000000  0.00000000  0.50000000  1
  H  H8  1  0.73585250  0.64254250  0.08094950  1
  H  H9  1  0.35745750  0.23585250  0.33094950  1
  H  H10  1  0.64254250  0.76414750  0.33094950  1
  H  H11  1  0.26414750  0.35745750  0.08094950  1
  H  H12  1  0.73585250  0.14254250  0.16905050  1
  H  H13  1  0.85745750  0.23585250  0.41905050  1
  H  H14  1  0.14254250  0.76414750  0.41905050  1
  H  H15  1  0.26414750  0.85745750  0.16905050  1
  H  H16  1  0.23585250  0.14254250  0.58094950  1
  H  H17  1  0.85745750  0.73585250  0.83094950  1
  H  H18  1  0.14254250  0.26414750  0.83094950  1
  H  H19  1  0.76414750  0.85745750  0.58094950  1
  H  H20  1  0.23585250  0.64254250  0.66905050  1
  H  H21  1  0.35745750  0.73585250  0.91905050  1
  H  H22  1  0.64254250  0.26414750  0.91905050  1
  H  H23  1  0.76414750  0.35745750  0.66905050  1
