# generated using pymatgen
data_Ca2Bi2O5
_symmetry_space_group_name_H-M   'P 1'
_cell_length_a   10.23607500
_cell_length_b   10.28365365
_cell_length_c   10.66295723
_cell_angle_alpha   107.27285899
_cell_angle_beta   116.96257831
_cell_angle_gamma   93.72757626
_symmetry_Int_Tables_number   1
_chemical_formula_structural   Ca2Bi2O5
_chemical_formula_sum   'Ca12 Bi12 O30'
_cell_volume   928.65329292
_cell_formula_units_Z   6
loop_
 _symmetry_equiv_pos_site_id
 _symmetry_equiv_pos_as_xyz
  1  'x, y, z'
loop_
 _atom_site_type_symbol
 _atom_site_label
 _atom_site_symmetry_multiplicity
 _atom_site_fract_x
 _atom_site_fract_y
 _atom_site_fract_z
 _atom_site_occupancy
  Ca  Ca0  1  0.42933500  0.83155500  0.83998600  1
  Ca  Ca1  1  0.57066500  0.16844500  0.16001400  1
  Ca  Ca2  1  0.34633300  0.59259600  0.02438400  1
  Ca  Ca3  1  0.65366700  0.40740400  0.97561600  1
  Ca  Ca4  1  0.52080100  0.94226900  0.33753400  1
  Ca  Ca5  1  0.47919900  0.05773100  0.66246600  1
  Ca  Ca6  1  0.89335800  0.15207000  0.48423400  1
  Ca  Ca7  1  0.10664200  0.84793000  0.51576600  1
  Ca  Ca8  1  0.79841600  0.78450500  0.18299600  1
  Ca  Ca9  1  0.20158400  0.21549500  0.81700400  1
  Ca  Ca10  1  0.89822000  0.33972700  0.85367600  1
  Ca  Ca11  1  0.10178000  0.66027300  0.14632400  1
  Bi  Bi12  1  0.75139800  0.66354400  0.82122000  1
  Bi  Bi13  1  0.24860200  0.33645600  0.17878000  1
  Bi  Bi14  1  0.69260900  0.57524400  0.33288700  1
  Bi  Bi15  1  0.30739100  0.42475600  0.66711300  1
  Bi  Bi16  1  0.57354300  0.31168800  0.53438100  1
  Bi  Bi17  1  0.42645700  0.68831200  0.46561900  1
  Bi  Bi18  1  0.84966000  0.92390800  0.64709700  1
  Bi  Bi19  1  0.15034000  0.07609200  0.35290300  1
  Bi  Bi20  1  0.97780600  0.42747700  0.30385000  1
  Bi  Bi21  1  0.02219400  0.57252300  0.69615000  1
  Bi  Bi22  1  0.79351600  0.05890200  0.01313100  1
  Bi  Bi23  1  0.20648400  0.94109800  0.98686900  1
  O  O24  1  0.52214600  0.55573600  0.70519900  1
  O  O25  1  0.47785400  0.44426400  0.29480100  1
  O  O26  1  0.92984200  0.63302800  0.34794000  1
  O  O27  1  0.07015800  0.36697200  0.65206000  1
  O  O28  1  0.63745200  0.26808700  0.73854100  1
  O  O29  1  0.36254800  0.73191300  0.26145900  1
  O  O30  1  0.80723500  0.46095900  0.68234000  1
  O  O31  1  0.19276500  0.53904100  0.31766000  1
  O  O32  1  0.89586600  0.32259800  0.06874000  1
  O  O33  1  0.10413400  0.67740200  0.93126000  1
  O  O34  1  0.57078600  0.08471200  0.92254900  1
  O  O35  1  0.42921400  0.91528800  0.07745100  1
  O  O36  1  0.83146100  0.58833800  0.99939500  1
  O  O37  1  0.16853900  0.41166200  0.00060500  1
  O  O38  1  0.71977100  0.38124800  0.21642100  1
  O  O39  1  0.28022900  0.61875200  0.78357900  1
  O  O40  1  0.94176600  0.13921200  0.72553500  1
  O  O41  1  0.05823400  0.86078800  0.27446500  1
  O  O42  1  0.60297700  0.62115400  0.13678300  1
  O  O43  1  0.39702300  0.37884600  0.86321700  1
  O  O44  1  0.82585200  0.90337400  0.43249500  1
  O  O45  1  0.17414800  0.09662600  0.56750500  1
  O  O46  1  0.65235900  0.16963400  0.40530400  1
  O  O47  1  0.34764100  0.83036600  0.59469600  1
  O  O48  1  0.38173000  0.08005800  0.42321700  1
  O  O49  1  0.61827000  0.91994200  0.57678300  1
  O  O50  1  0.30688600  0.16202200  0.03558300  1
  O  O51  1  0.69311400  0.83797800  0.96441700  1
  O  O52  1  0.16696200  0.89228100  0.76489600  1
  O  O53  1  0.83303800  0.10771900  0.23510400  1
