# generated using pymatgen
data_Rb3Bi2I9
_symmetry_space_group_name_H-M   'P 1'
_cell_length_a   15.09137700
_cell_length_b   8.45412600
_cell_length_c   25.94747331
_cell_angle_alpha   90.00000000
_cell_angle_beta   123.94005518
_cell_angle_gamma   90.00000000
_symmetry_Int_Tables_number   1
_chemical_formula_structural   Rb3Bi2I9
_chemical_formula_sum   'Rb12 Bi8 I36'
_cell_volume   2746.45827496
_cell_formula_units_Z   4
loop_
 _symmetry_equiv_pos_site_id
 _symmetry_equiv_pos_as_xyz
  1  'x, y, z'
loop_
 _atom_site_type_symbol
 _atom_site_label
 _atom_site_symmetry_multiplicity
 _atom_site_fract_x
 _atom_site_fract_y
 _atom_site_fract_z
 _atom_site_occupancy
  Rb  Rb0  1  0.65217400  0.77780900  0.45246200  1
  Rb  Rb1  1  0.65217400  0.22219100  0.95246200  1
  Rb  Rb2  1  0.06008200  0.26611000  0.40543300  1
  Rb  Rb3  1  0.06008200  0.73389000  0.90543300  1
  Rb  Rb4  1  0.99744700  0.22707200  0.62392200  1
  Rb  Rb5  1  0.99744700  0.77292800  0.12392200  1
  Rb  Rb6  1  0.32171300  0.23219600  0.28876000  1
  Rb  Rb7  1  0.32171300  0.76780400  0.78876000  1
  Rb  Rb8  1  0.37934000  0.72626300  0.56843900  1
  Rb  Rb9  1  0.37934000  0.27373700  0.06843900  1
  Rb  Rb10  1  0.72624900  0.71791500  0.23997300  1
  Rb  Rb11  1  0.72624900  0.28208500  0.73997300  1
  Bi  Bi12  1  0.86247700  0.24133500  0.18781000  1
  Bi  Bi13  1  0.86247700  0.75866500  0.68781000  1
  Bi  Bi14  1  0.01206000  0.75913000  0.50564700  1
  Bi  Bi15  1  0.01206000  0.24087000  0.00564700  1
  Bi  Bi16  1  0.36259900  0.74184100  0.18691000  1
  Bi  Bi17  1  0.36259900  0.25815900  0.68691000  1
  Bi  Bi18  1  0.51869600  0.25610200  0.50771100  1
  Bi  Bi19  1  0.51869600  0.74389800  0.00771100  1
  I  I20  1  0.59827400  0.33146400  0.42793800  1
  I  I21  1  0.16553300  0.44046000  0.56327300  1
  I  I22  1  0.92480000  0.34261800  0.09069900  1
  I  I23  1  0.92480000  0.65738200  0.59069900  1
  I  I24  1  0.10374200  0.17765700  0.93097200  1
  I  I25  1  0.10374200  0.82234300  0.43097200  1
  I  I26  1  0.83676500  0.44052100  0.90512800  1
  I  I27  1  0.83676500  0.55947900  0.40512800  1
  I  I28  1  0.49793800  0.54826200  0.73066100  1
  I  I29  1  0.49793800  0.45173800  0.23066100  1
  I  I30  1  0.40978600  0.03964700  0.93652000  1
  I  I31  1  0.16553300  0.55954000  0.06327300  1
  I  I32  1  0.87831200  0.94940600  0.96309000  1
  I  I33  1  0.87831200  0.05059400  0.46309000  1
  I  I34  1  0.06196100  0.95114100  0.76328200  1
  I  I35  1  0.06196100  0.04885900  0.26328200  1
  I  I36  1  0.45250400  0.84277600  0.10315600  1
  I  I37  1  0.45250400  0.15722400  0.60315600  1
  I  I38  1  0.63554900  0.43098200  0.09496900  1
  I  I39  1  0.63554900  0.56901800  0.59496900  1
  I  I40  1  0.53482400  0.05453800  0.78717100  1
  I  I41  1  0.53482400  0.94546200  0.28717100  1
  I  I42  1  0.74539900  0.92875600  0.10164100  1
  I  I43  1  0.74539900  0.07124400  0.60164100  1
  I  I44  1  0.97315200  0.46567300  0.76055200  1
  I  I45  1  0.97315200  0.53432700  0.26055200  1
  I  I46  1  0.21066600  0.93906500  0.62890200  1
  I  I47  1  0.21066600  0.06093500  0.12890200  1
  I  I48  1  0.31891000  0.55297200  0.92961800  1
  I  I49  1  0.31891000  0.44702800  0.42961800  1
  I  I50  1  0.27059000  0.32406300  0.76116100  1
  I  I51  1  0.27059000  0.67593700  0.26116100  1
  I  I52  1  0.78476000  0.16175700  0.26819900  1
  I  I53  1  0.78476000  0.83824300  0.76819900  1
  I  I54  1  0.40978600  0.96035300  0.43652000  1
  I  I55  1  0.59827400  0.66853600  0.92793800  1
