# generated using pymatgen
data_LiTi2(PO4)3
_symmetry_space_group_name_H-M   'P 1'
_cell_length_a   8.44562384
_cell_length_b   8.45477978
_cell_length_c   8.93544449
_cell_angle_alpha   117.95852448
_cell_angle_beta   90.17839944
_cell_angle_gamma   119.62788090
_symmetry_Int_Tables_number   1
_chemical_formula_structural   LiTi2(PO4)3
_chemical_formula_sum   'Li2 Ti4 P6 O24'
_cell_volume   466.40341084
_cell_formula_units_Z   2
loop_
 _symmetry_equiv_pos_site_id
 _symmetry_equiv_pos_as_xyz
  1  'x, y, z'
loop_
 _atom_site_type_symbol
 _atom_site_label
 _atom_site_symmetry_multiplicity
 _atom_site_fract_x
 _atom_site_fract_y
 _atom_site_fract_z
 _atom_site_occupancy
  Li  Li0  1  0.07621285  0.24883940  0.14133237  1
  Li  Li1  1  0.92378715  0.75116060  0.85866763  1
  Ti  Ti2  1  0.36306348  0.65226593  0.06345959  1
  Ti  Ti3  1  0.85127994  0.14794228  0.56762538  1
  Ti  Ti4  1  0.14872006  0.85205772  0.43237462  1
  Ti  Ti5  1  0.63693652  0.34773407  0.93654041  1
  P  P6  1  0.75369203  0.97205002  0.25161064  1
  P  P7  1  0.03113622  0.53685740  0.24373763  1
  P  P8  1  0.53403021  0.75001697  0.74776521  1
  P  P9  1  0.46596979  0.24998303  0.25223479  1
  P  P10  1  0.96886378  0.46314260  0.75626237  1
  P  P11  1  0.24630797  0.02794998  0.74838936  1
  O  O12  1  0.10518641  0.72721605  0.27746815  1
  O  O13  1  0.50439436  0.23935490  0.10550872  1
  O  O14  1  0.55201779  0.82799288  0.18929120  1
  O  O15  1  0.78862135  0.17027067  0.10142378  1
  O  O16  1  0.85435783  0.53705612  0.07506193  1
  O  O17  1  0.38418841  0.79869086  0.56791703  1
  O  O18  1  0.91010055  0.90450359  0.28513348  1
  O  O19  1  0.77441934  0.99204766  0.42112955  1
  O  O20  1  0.18630760  0.51800778  0.21223417  1
  O  O21  1  0.98030322  0.36827208  0.40783756  1
  O  O22  1  0.52812921  0.54528692  0.79591912  1
  O  O23  1  0.26268701  0.10948173  0.26114679  1
  O  O24  1  0.73731299  0.89051827  0.73885321  1
  O  O25  1  0.47187079  0.45471308  0.20408088  1
  O  O26  1  0.01969678  0.63172792  0.59216244  1
  O  O27  1  0.81369240  0.48199222  0.78776583  1
  O  O28  1  0.22558066  0.00795234  0.57887045  1
  O  O29  1  0.08989945  0.09549641  0.71486652  1
  O  O30  1  0.61581159  0.20130914  0.43208297  1
  O  O31  1  0.14564217  0.46294388  0.92493807  1
  O  O32  1  0.21137865  0.82972933  0.89857622  1
  O  O33  1  0.44798221  0.17200712  0.81070880  1
  O  O34  1  0.49560564  0.76064510  0.89449128  1
  O  O35  1  0.89481359  0.27278395  0.72253185  1
