# generated using pymatgen
data_Mg3P4H48(NO15)2
_symmetry_space_group_name_H-M   'P 1'
_cell_length_a   34.70751600
_cell_length_b   7.05124800
_cell_length_c   6.18963173
_cell_angle_alpha   90.00000000
_cell_angle_beta   91.20715827
_cell_angle_gamma   90.00000000
_symmetry_Int_Tables_number   1
_chemical_formula_structural   Mg3P4H48(NO15)2
_chemical_formula_sum   'Mg6 P8 H96 N4 O60'
_cell_volume   1514.46044228
_cell_formula_units_Z   2
loop_
 _symmetry_equiv_pos_site_id
 _symmetry_equiv_pos_as_xyz
  1  'x, y, z'
loop_
 _atom_site_type_symbol
 _atom_site_label
 _atom_site_symmetry_multiplicity
 _atom_site_fract_x
 _atom_site_fract_y
 _atom_site_fract_z
 _atom_site_occupancy
  Mg  Mg0  1  0.00000000  0.50000000  0.00000000  1
  Mg  Mg1  1  0.66685100  0.50000000  0.75240600  1
  Mg  Mg2  1  0.83314900  0.00000000  0.24759400  1
  Mg  Mg3  1  0.50000000  0.00000000  0.00000000  1
  Mg  Mg4  1  0.16685100  0.00000000  0.75240600  1
  Mg  Mg5  1  0.33314900  0.50000000  0.24759400  1
  P  P6  1  0.70449000  0.00000000  0.37499200  1
  P  P7  1  0.79551000  0.50000000  0.62500800  1
  P  P8  1  0.54827900  0.50000000  0.34873500  1
  P  P9  1  0.95172100  0.00000000  0.65126500  1
  P  P10  1  0.20449000  0.50000000  0.37499200  1
  P  P11  1  0.29551000  0.00000000  0.62500800  1
  P  P12  1  0.04827900  0.00000000  0.34873500  1
  P  P13  1  0.45172100  0.50000000  0.65126500  1
  H  H14  1  0.58776800  0.00000000  0.05329300  1
  H  H15  1  0.91223200  0.50000000  0.94670700  1
  H  H16  1  0.87808550  0.38162550  0.08269300  1
  H  H17  1  0.62191450  0.88162550  0.91730700  1
  H  H18  1  0.62191450  0.11837450  0.91730700  1
  H  H19  1  0.87808550  0.61837450  0.08269300  1
  H  H20  1  0.63390700  0.00000000  0.15446300  1
  H  H21  1  0.86609300  0.50000000  0.84553700  1
  H  H22  1  0.95475150  0.61543950  0.64894300  1
  H  H23  1  0.54524850  0.11543950  0.35105700  1
  H  H24  1  0.54524850  0.88456050  0.35105700  1
  H  H25  1  0.95475150  0.38456050  0.64894300  1
  H  H26  1  0.54138450  0.75249550  0.72052500  1
  H  H27  1  0.95861550  0.25249550  0.27947500  1
  H  H28  1  0.95861550  0.74750450  0.27947500  1
  H  H29  1  0.54138450  0.24750450  0.72052500  1
  H  H30  1  0.54543850  0.31812450  0.96329500  1
  H  H31  1  0.95456150  0.81812450  0.03670500  1
  H  H32  1  0.95456150  0.18187550  0.03670500  1
  H  H33  1  0.54543850  0.68187550  0.96329500  1
  H  H34  1  0.89656550  0.79703050  0.41425300  1
  H  H35  1  0.60343450  0.70296950  0.58574700  1
  H  H36  1  0.76710100  0.80071500  0.20241100  1
  H  H37  1  0.89656550  0.20296950  0.41425300  1
  H  H38  1  0.85790000  0.67768600  0.43963900  1
  H  H39  1  0.64210000  0.17768600  0.56036100  1
  H  H40  1  0.64210000  0.82231400  0.56036100  1
  H  H41  1  0.85790000  0.32231400  0.43963900  1
  H  H42  1  0.61282800  0.50000000  0.08553400  1
  H  H43  1  0.88717200  0.00000000  0.91446600  1
  H  H44  1  0.65524900  0.50000000  0.19652400  1
  H  H45  1  0.84475100  0.00000000  0.80347600  1
  H  H46  1  0.79217900  0.25672900  0.00213900  1
  H  H47  1  0.70782100  0.75672900  0.99786100  1
  H  H48  1  0.70782100  0.24327100  0.99786100  1
  H  H49  1  0.79217900  0.74327100  0.00213900  1
  H  H50  1  0.76710100  0.19928500  0.20241100  1
  H  H51  1  0.73289900  0.69928500  0.79758900  1
  H  H52  1  0.73289900  0.30071500  0.79758900  1
  H  H53  1  0.99204400  0.00000000  0.68070200  1
  H  H54  1  0.50795600  0.50000000  0.31929800  1
  H  H55  1  0.77907300  0.50000000  0.41541400  1
  H  H56  1  0.72092700  0.00000000  0.58458600  1
  H  H57  1  0.79707100  0.88402900  0.62488600  1
  H  H58  1  0.70292900  0.38402900  0.37511400  1
  H  H59  1  0.70292900  0.61597100  0.37511400  1
  H  H60  1  0.79707100  0.11597100  0.62488600  1
  H  H61  1  0.60343450  0.29703050  0.58574700  1
  H  H62  1  0.08776800  0.50000000  0.05329300  1
  H  H63  1  0.41223200  0.00000000  0.94670700  1
  H  H64  1  0.37808550  0.88162550  0.08269300  1
  H  H65  1  0.12191450  0.38162550  0.91730700  1
  H  H66  1  0.12191450  0.61837450  0.91730700  1
  H  H67  1  0.37808550  0.11837450  0.08269300  1
  H  H68  1  0.13390700  0.50000000  0.15446300  1
  H  H69  1  0.36609300  0.00000000  0.84553700  1
  H  H70  1  0.45475150  0.11543950  0.64894300  1
  H  H71  1  0.04524850  0.61543950  0.35105700  1
  H  H72  1  0.04524850  0.38456050  0.35105700  1
  H  H73  1  0.45475150  0.88456050  0.64894300  1
  H  H74  1  0.04138450  0.25249550  0.72052500  1
  H  H75  1  0.45861550  0.75249550  0.27947500  1
  H  H76  1  0.45861550  0.24750450  0.27947500  1
  H  H77  1  0.04138450  0.74750450  0.72052500  1
  H  H78  1  0.04543850  0.81812450  0.96329500  1
  H  H79  1  0.45456150  0.31812450  0.03670500  1
  H  H80  1  0.45456150  0.68187550  0.03670500  1
  H  H81  1  0.04543850  0.18187550  0.96329500  1
  H  H82  1  0.39656550  0.29703050  0.41425300  1
  H  H83  1  0.10343450  0.20296950  0.58574700  1
  H  H84  1  0.26710100  0.30071500  0.20241100  1
  H  H85  1  0.39656550  0.70296950  0.41425300  1
  H  H86  1  0.35790000  0.17768600  0.43963900  1
  H  H87  1  0.14210000  0.67768600  0.56036100  1
  H  H88  1  0.14210000  0.32231400  0.56036100  1
  H  H89  1  0.35790000  0.82231400  0.43963900  1
  H  H90  1  0.11282800  0.00000000  0.08553400  1
  H  H91  1  0.38717200  0.50000000  0.91446600  1
  H  H92  1  0.15524900  0.00000000  0.19652400  1
  H  H93  1  0.34475100  0.50000000  0.80347600  1
  H  H94  1  0.29217900  0.75672900  0.00213900  1
  H  H95  1  0.20782100  0.25672900  0.99786100  1
  H  H96  1  0.20782100  0.74327100  0.99786100  1
  H  H97  1  0.29217900  0.24327100  0.00213900  1
  H  H98  1  0.26710100  0.69928500  0.20241100  1
  H  H99  1  0.23289900  0.19928500  0.79758900  1
  H  H100  1  0.23289900  0.80071500  0.79758900  1
  H  H101  1  0.49204400  0.50000000  0.68070200  1
  H  H102  1  0.00795600  0.00000000  0.31929800  1
  H  H103  1  0.27907300  0.00000000  0.41541400  1
  H  H104  1  0.22092700  0.50000000  0.58458600  1
  H  H105  1  0.29707100  0.38402900  0.62488600  1
  H  H106  1  0.20292900  0.88402900  0.37511400  1
  H  H107  1  0.20292900  0.11597100  0.37511400  1
  H  H108  1  0.29707100  0.61597100  0.62488600  1
  H  H109  1  0.10343450  0.79703050  0.58574700  1
  N  N110  1  0.61653100  0.00000000  0.01236500  1
  N  N111  1  0.88346900  0.50000000  0.98763500  1
  N  N112  1  0.11653100  0.50000000  0.01236500  1
  N  N113  1  0.38346900  0.00000000  0.98763500  1
  O  O114  1  0.53844400  0.00000000  0.26426500  1
  O  O115  1  0.96155600  0.50000000  0.73573500  1
  O  O116  1  0.53545400  0.21180000  0.87164600  1
  O  O117  1  0.96454600  0.71180000  0.12835400  1
  O  O118  1  0.96454600  0.28820000  0.12835400  1
  O  O119  1  0.53545400  0.78820000  0.87164600  1
  O  O120  1  0.87057600  0.77414900  0.34485200  1
  O  O121  1  0.62942400  0.27414900  0.65514800  1
  O  O122  1  0.62942400  0.72585100  0.65514800  1
  O  O123  1  0.87057600  0.22585100  0.34485200  1
  O  O124  1  0.64108800  0.50000000  0.05597500  1
  O  O125  1  0.85891200  0.00000000  0.94402500  1
  O  O126  1  0.79427300  0.21144300  0.15465900  1
  O  O127  1  0.70572700  0.71144300  0.84534100  1
  O  O128  1  0.70572700  0.28855700  0.84534100  1
  O  O129  1  0.79427300  0.78855700  0.15465900  1
  O  O130  1  0.68926600  0.50000000  0.43021000  1
  O  O131  1  0.81073400  0.00000000  0.56979000  1
  O  O132  1  0.78150600  0.68251700  0.73751600  1
  O  O133  1  0.71849400  0.18251700  0.26248400  1
  O  O134  1  0.71849400  0.81748300  0.26248400  1
  O  O135  1  0.78150600  0.31748300  0.73751600  1
  O  O136  1  0.66011500  0.00000000  0.40215100  1
  O  O137  1  0.83988500  0.50000000  0.59784900  1
  O  O138  1  0.56469100  0.50000000  0.11857100  1
  O  O139  1  0.93530900  0.00000000  0.88142900  1
  O  O140  1  0.94106250  0.81793550  0.52454900  1
  O  O141  1  0.55893750  0.31793550  0.47545100  1
  O  O142  1  0.55893750  0.68206450  0.47545100  1
  O  O143  1  0.94106250  0.18206450  0.52454900  1
  O  O144  1  0.03844400  0.50000000  0.26426500  1
  O  O145  1  0.46155600  0.00000000  0.73573500  1
  O  O146  1  0.03545400  0.71180000  0.87164600  1
  O  O147  1  0.46454600  0.21180000  0.12835400  1
  O  O148  1  0.46454600  0.78820000  0.12835400  1
  O  O149  1  0.03545400  0.28820000  0.87164600  1
  O  O150  1  0.37057600  0.27414900  0.34485200  1
  O  O151  1  0.12942400  0.77414900  0.65514800  1
  O  O152  1  0.12942400  0.22585100  0.65514800  1
  O  O153  1  0.37057600  0.72585100  0.34485200  1
  O  O154  1  0.14108800  0.00000000  0.05597500  1
  O  O155  1  0.35891200  0.50000000  0.94402500  1
  O  O156  1  0.29427300  0.71144300  0.15465900  1
  O  O157  1  0.20572700  0.21144300  0.84534100  1
  O  O158  1  0.20572700  0.78855700  0.84534100  1
  O  O159  1  0.29427300  0.28855700  0.15465900  1
  O  O160  1  0.18926600  0.00000000  0.43021000  1
  O  O161  1  0.31073400  0.50000000  0.56979000  1
  O  O162  1  0.28150600  0.18251700  0.73751600  1
  O  O163  1  0.21849400  0.68251700  0.26248400  1
  O  O164  1  0.21849400  0.31748300  0.26248400  1
  O  O165  1  0.28150600  0.81748300  0.73751600  1
  O  O166  1  0.16011500  0.50000000  0.40215100  1
  O  O167  1  0.33988500  0.00000000  0.59784900  1
  O  O168  1  0.06469100  0.00000000  0.11857100  1
  O  O169  1  0.43530900  0.50000000  0.88142900  1
  O  O170  1  0.44106250  0.31793550  0.52454900  1
  O  O171  1  0.05893750  0.81793550  0.47545100  1
  O  O172  1  0.05893750  0.18206450  0.47545100  1
  O  O173  1  0.44106250  0.68206450  0.52454900  1
