# generated using pymatgen
data_KTlO
_symmetry_space_group_name_H-M   'P 1'
_cell_length_a   13.13666600
_cell_length_b   3.70559200
_cell_length_c   6.39049246
_cell_angle_alpha   90.00000000
_cell_angle_beta   106.99252627
_cell_angle_gamma   90.00000000
_symmetry_Int_Tables_number   1
_chemical_formula_structural   KTlO
_chemical_formula_sum   'K4 Tl4 O4'
_cell_volume   297.50256635
_cell_formula_units_Z   4
loop_
 _symmetry_equiv_pos_site_id
 _symmetry_equiv_pos_as_xyz
  1  'x, y, z'
loop_
 _atom_site_type_symbol
 _atom_site_label
 _atom_site_symmetry_multiplicity
 _atom_site_fract_x
 _atom_site_fract_y
 _atom_site_fract_z
 _atom_site_occupancy
  K  K0  1  0.36909200  0.50000000  0.65158500  1
  K  K1  1  0.13090800  0.00000000  0.34841500  1
  K  K2  1  0.86909200  0.00000000  0.65158500  1
  K  K3  1  0.63090800  0.50000000  0.34841500  1
  Tl  Tl4  1  0.36127900  0.00000000  0.15099900  1
  Tl  Tl5  1  0.13872100  0.50000000  0.84900100  1
  Tl  Tl6  1  0.86127900  0.50000000  0.15099900  1
  Tl  Tl7  1  0.63872100  0.00000000  0.84900100  1
  O  O8  1  0.25088100  0.00000000  0.78159100  1
  O  O9  1  0.24911900  0.50000000  0.21840900  1
  O  O10  1  0.75088100  0.50000000  0.78159100  1
  O  O11  1  0.74911900  0.00000000  0.21840900  1
