# generated using pymatgen
data_H7NF4
_symmetry_space_group_name_H-M   'P 1'
_cell_length_a   7.71208791
_cell_length_b   7.71208791
_cell_length_c   12.65645594
_cell_angle_alpha   90.00000000
_cell_angle_beta   90.00000000
_cell_angle_gamma   120.00000000
_symmetry_Int_Tables_number   1
_chemical_formula_structural   H7NF4
_chemical_formula_sum   'H42 N6 F24'
_cell_volume   651.90856343
_cell_formula_units_Z   6
loop_
 _symmetry_equiv_pos_site_id
 _symmetry_equiv_pos_as_xyz
  1  'x, y, z'
loop_
 _atom_site_type_symbol
 _atom_site_label
 _atom_site_symmetry_multiplicity
 _atom_site_fract_x
 _atom_site_fract_y
 _atom_site_fract_z
 _atom_site_occupancy
  H  H0  1  0.33333333  0.66666667  0.24849667  1
  H  H1  1  0.33333333  0.66666667  0.74849667  1
  H  H2  1  0.34899800  0.80098800  0.14049200  1
  H  H3  1  0.19901200  0.54801000  0.14049200  1
  H  H4  1  0.45199000  0.65100200  0.14049200  1
  H  H5  1  0.68233133  0.21467667  0.30715867  1
  H  H6  1  0.78532333  0.46765467  0.30715867  1
  H  H7  1  0.53234533  0.31766867  0.30715867  1
  H  H8  1  0.33114967  0.84777733  0.41698333  1
  H  H9  1  0.15222267  0.48337233  0.41698333  1
  H  H10  1  0.15222267  0.66885033  0.91698333  1
  H  H11  1  0.51662767  0.84777733  0.91698333  1
  H  H12  1  0.33114967  0.48337233  0.91698333  1
  H  H13  1  0.51662767  0.66885033  0.41698333  1
  H  H14  1  0.00000000  0.00000000  0.58183000  1
  H  H15  1  0.00000000  0.00000000  0.08183000  1
  H  H16  1  0.01566467  0.13432133  0.47382533  1
  H  H17  1  0.86567867  0.88134333  0.47382533  1
  H  H18  1  0.11865667  0.98433533  0.47382533  1
  H  H19  1  0.34899800  0.54801000  0.64049200  1
  H  H20  1  0.45199000  0.80098800  0.64049200  1
  H  H21  1  0.19901200  0.65100200  0.64049200  1
  H  H22  1  0.99781633  0.18111067  0.75031667  1
  H  H23  1  0.81888933  0.81670567  0.75031667  1
  H  H24  1  0.81888933  0.00218367  0.25031667  1
  H  H25  1  0.18329433  0.18111067  0.25031667  1
  H  H26  1  0.99781633  0.81670567  0.25031667  1
  H  H27  1  0.18329433  0.00218367  0.75031667  1
  H  H28  1  0.66666667  0.33333333  0.91516333  1
  H  H29  1  0.66666667  0.33333333  0.41516333  1
  H  H30  1  0.68233133  0.46765467  0.80715867  1
  H  H31  1  0.53234533  0.21467667  0.80715867  1
  H  H32  1  0.78532333  0.31766867  0.80715867  1
  H  H33  1  0.01566467  0.88134333  0.97382533  1
  H  H34  1  0.11865667  0.13432133  0.97382533  1
  H  H35  1  0.86567867  0.98433533  0.97382533  1
  H  H36  1  0.66448300  0.51444400  0.08365000  1
  H  H37  1  0.48555600  0.15003900  0.08365000  1
  H  H38  1  0.48555600  0.33551700  0.58365000  1
  H  H39  1  0.84996100  0.51444400  0.58365000  1
  H  H40  1  0.66448300  0.15003900  0.58365000  1
  H  H41  1  0.84996100  0.33551700  0.08365000  1
  N  N42  1  0.33333333  0.66666667  0.16700367  1
  N  N43  1  0.33333333  0.66666667  0.66700367  1
  N  N44  1  0.00000000  0.00000000  0.50033700  1
  N  N45  1  0.00000000  0.00000000  0.00033700  1
  N  N46  1  0.66666667  0.33333333  0.83367033  1
  N  N47  1  0.66666667  0.33333333  0.33367033  1
  F  F48  1  0.66639700  0.64387700  0.09366500  1
  F  F49  1  0.35612300  0.02252000  0.09366500  1
  F  F50  1  0.97748000  0.33360300  0.09366500  1
  F  F51  1  0.99973033  0.68918667  0.26033167  1
  F  F52  1  0.31081333  0.31054367  0.26033167  1
  F  F53  1  0.68945633  0.00026967  0.26033167  1
  F  F54  1  0.33333333  0.66666667  0.40157867  1
  F  F55  1  0.33333333  0.66666667  0.90157867  1
  F  F56  1  0.33306367  0.97721033  0.42699833  1
  F  F57  1  0.02278967  0.35585333  0.42699833  1
  F  F58  1  0.64414667  0.66693633  0.42699833  1
  F  F59  1  0.66639700  0.02252000  0.59366500  1
  F  F60  1  0.97748000  0.64387700  0.59366500  1
  F  F61  1  0.35612300  0.33360300  0.59366500  1
  F  F62  1  0.00000000  0.00000000  0.73491200  1
  F  F63  1  0.00000000  0.00000000  0.23491200  1
  F  F64  1  0.99973033  0.31054367  0.76033167  1
  F  F65  1  0.68945633  0.68918667  0.76033167  1
  F  F66  1  0.31081333  0.00026967  0.76033167  1
  F  F67  1  0.33306367  0.35585333  0.92699833  1
  F  F68  1  0.64414667  0.97721033  0.92699833  1
  F  F69  1  0.02278967  0.66693633  0.92699833  1
  F  F70  1  0.66666667  0.33333333  0.06824533  1
  F  F71  1  0.66666667  0.33333333  0.56824533  1
