# generated using pymatgen
data_BiSeI
_symmetry_space_group_name_H-M   'P 1'
_cell_length_a   4.27399100
_cell_length_b   9.03710600
_cell_length_c   11.27748800
_cell_angle_alpha   90.00000000
_cell_angle_beta   90.00000000
_cell_angle_gamma   90.00000000
_symmetry_Int_Tables_number   1
_chemical_formula_structural   BiSeI
_chemical_formula_sum   'Bi4 Se4 I4'
_cell_volume   435.58744476
_cell_formula_units_Z   4
loop_
 _symmetry_equiv_pos_site_id
 _symmetry_equiv_pos_as_xyz
  1  'x, y, z'
loop_
 _atom_site_type_symbol
 _atom_site_label
 _atom_site_symmetry_multiplicity
 _atom_site_fract_x
 _atom_site_fract_y
 _atom_site_fract_z
 _atom_site_occupancy
  Bi  Bi0  1  0.75000000  0.11074600  0.87189800  1
  Bi  Bi1  1  0.25000000  0.88925400  0.12810200  1
  Bi  Bi2  1  0.75000000  0.61074600  0.62810200  1
  Bi  Bi3  1  0.25000000  0.38925400  0.37189800  1
  Se  Se4  1  0.25000000  0.17159700  0.03872400  1
  Se  Se5  1  0.75000000  0.32840300  0.53872400  1
  Se  Se6  1  0.25000000  0.67159700  0.46127600  1
  Se  Se7  1  0.75000000  0.82840300  0.96127600  1
  I  I8  1  0.25000000  0.47606200  0.81575200  1
  I  I9  1  0.75000000  0.02393800  0.31575200  1
  I  I10  1  0.25000000  0.97606200  0.68424800  1
  I  I11  1  0.75000000  0.52393800  0.18424800  1
