# generated using pymatgen
data_Na6Ge2S7
_symmetry_space_group_name_H-M   'P 1'
_cell_length_a   9.18409600
_cell_length_b   10.56813600
_cell_length_c   15.24210088
_cell_angle_alpha   90.00000000
_cell_angle_beta   104.76403080
_cell_angle_gamma   90.00000000
_symmetry_Int_Tables_number   1
_chemical_formula_structural   Na6Ge2S7
_chemical_formula_sum   'Na24 Ge8 S28'
_cell_volume   1430.53580188
_cell_formula_units_Z   4
loop_
 _symmetry_equiv_pos_site_id
 _symmetry_equiv_pos_as_xyz
  1  'x, y, z'
loop_
 _atom_site_type_symbol
 _atom_site_label
 _atom_site_symmetry_multiplicity
 _atom_site_fract_x
 _atom_site_fract_y
 _atom_site_fract_z
 _atom_site_occupancy
  Na  Na0  1  0.61469450  0.64628550  0.57352500  1
  Na  Na1  1  0.38530550  0.64628550  0.92647500  1
  Na  Na2  1  0.38530550  0.35371450  0.42647500  1
  Na  Na3  1  0.61469450  0.35371450  0.07352500  1
  Na  Na4  1  0.73040800  0.22221100  0.36115700  1
  Na  Na5  1  0.26959200  0.22221100  0.13884300  1
  Na  Na6  1  0.50000000  0.07866200  0.75000000  1
  Na  Na7  1  0.50000000  0.92133800  0.25000000  1
  Na  Na8  1  0.50000000  0.00000000  0.00000000  1
  Na  Na9  1  0.50000000  0.00000000  0.50000000  1
  Na  Na10  1  0.26959200  0.77778900  0.63884300  1
  Na  Na11  1  0.73040800  0.77778900  0.86115700  1
  Na  Na12  1  0.11469450  0.14628550  0.57352500  1
  Na  Na13  1  0.88530550  0.14628550  0.92647500  1
  Na  Na14  1  0.88530550  0.85371450  0.42647500  1
  Na  Na15  1  0.11469450  0.85371450  0.07352500  1
  Na  Na16  1  0.23040800  0.72221100  0.36115700  1
  Na  Na17  1  0.76959200  0.72221100  0.13884300  1
  Na  Na18  1  0.00000000  0.57866200  0.75000000  1
  Na  Na19  1  0.00000000  0.42133800  0.25000000  1
  Na  Na20  1  0.00000000  0.50000000  0.00000000  1
  Na  Na21  1  0.00000000  0.50000000  0.50000000  1
  Na  Na22  1  0.76959200  0.27778900  0.63884300  1
  Na  Na23  1  0.23040800  0.27778900  0.86115700  1
  Ge  Ge24  1  0.15665200  0.91859700  0.86012700  1
  Ge  Ge25  1  0.84334800  0.91859700  0.63987300  1
  Ge  Ge26  1  0.84334800  0.08140300  0.13987300  1
  Ge  Ge27  1  0.15665200  0.08140300  0.36012700  1
  Ge  Ge28  1  0.65665200  0.41859700  0.86012700  1
  Ge  Ge29  1  0.34334800  0.41859700  0.63987300  1
  Ge  Ge30  1  0.34334800  0.58140300  0.13987300  1
  Ge  Ge31  1  0.65665200  0.58140300  0.36012700  1
  S  S32  1  0.55185900  0.75687200  0.39423600  1
  S  S33  1  0.44814100  0.24312800  0.60576400  1
  S  S34  1  0.80288150  0.93722050  0.02859100  1
  S  S35  1  0.19711850  0.93722050  0.47140900  1
  S  S36  1  0.19711850  0.06277950  0.97140900  1
  S  S37  1  0.80288150  0.06277950  0.52859100  1
  S  S38  1  0.63219250  0.87490950  0.67984900  1
  S  S39  1  0.36780750  0.87490950  0.82015100  1
  S  S40  1  0.36780750  0.12509050  0.32015100  1
  S  S41  1  0.63219250  0.12509050  0.17984900  1
  S  S42  1  0.50000000  0.53843600  0.75000000  1
  S  S43  1  0.50000000  0.46156400  0.25000000  1
  S  S44  1  0.55185900  0.24312800  0.89423600  1
  S  S45  1  0.44814100  0.75687200  0.10576400  1
  S  S46  1  0.05185900  0.25687200  0.39423600  1
  S  S47  1  0.94814100  0.74312800  0.60576400  1
  S  S48  1  0.30288150  0.43722050  0.02859100  1
  S  S49  1  0.69711850  0.43722050  0.47140900  1
  S  S50  1  0.69711850  0.56277950  0.97140900  1
  S  S51  1  0.30288150  0.56277950  0.52859100  1
  S  S52  1  0.13219250  0.37490950  0.67984900  1
  S  S53  1  0.86780750  0.37490950  0.82015100  1
  S  S54  1  0.86780750  0.62509050  0.32015100  1
  S  S55  1  0.13219250  0.62509050  0.17984900  1
  S  S56  1  0.00000000  0.03843600  0.75000000  1
  S  S57  1  0.00000000  0.96156400  0.25000000  1
  S  S58  1  0.05185900  0.74312800  0.89423600  1
  S  S59  1  0.94814100  0.25687200  0.10576400  1
