# generated using pymatgen
data_NaZnP2HO7
_symmetry_space_group_name_H-M   'P 1'
_cell_length_a   6.56322300
_cell_length_b   6.61834759
_cell_length_c   6.83014256
_cell_angle_alpha   95.80861077
_cell_angle_beta   113.47924645
_cell_angle_gamma   88.51908797
_symmetry_Int_Tables_number   1
_chemical_formula_structural   NaZnP2HO7
_chemical_formula_sum   'Na2 Zn2 P4 H2 O14'
_cell_volume   270.69008913
_cell_formula_units_Z   2
loop_
 _symmetry_equiv_pos_site_id
 _symmetry_equiv_pos_as_xyz
  1  'x, y, z'
loop_
 _atom_site_type_symbol
 _atom_site_label
 _atom_site_symmetry_multiplicity
 _atom_site_fract_x
 _atom_site_fract_y
 _atom_site_fract_z
 _atom_site_occupancy
  Na  Na0  1  0.78415200  0.64647000  0.75763900  1
  Na  Na1  1  0.21584800  0.35353000  0.24236100  1
  Zn  Zn2  1  0.21650200  0.85131800  0.62685000  1
  Zn  Zn3  1  0.78349800  0.14868200  0.37315000  1
  P  P4  1  0.75793800  0.64204500  0.28286400  1
  P  P5  1  0.24206200  0.35795500  0.71713600  1
  P  P6  1  0.33317700  0.87585700  0.13608500  1
  P  P7  1  0.66682300  0.12414300  0.86391500  1
  H  H8  1  0.06576900  0.70920000  0.20070800  1
  H  H9  1  0.93423100  0.29080000  0.79929200  1
  O  O10  1  0.27640400  0.53580000  0.60755300  1
  O  O11  1  0.72359600  0.46420000  0.39244700  1
  O  O12  1  0.86578200  0.82755600  0.44813400  1
  O  O13  1  0.13421800  0.17244400  0.55186600  1
  O  O14  1  0.88102900  0.59192300  0.13441100  1
  O  O15  1  0.11897100  0.40807700  0.86558900  1
  O  O16  1  0.45193600  0.07531100  0.24774700  1
  O  O17  1  0.54806400  0.92468900  0.75225300  1
  O  O18  1  0.77442000  0.21011300  0.72010200  1
  O  O19  1  0.22558000  0.78988700  0.27989800  1
  O  O20  1  0.48531100  0.28882500  0.87497700  1
  O  O21  1  0.51468900  0.71117500  0.12502300  1
  O  O22  1  0.83610200  0.12236500  0.09244100  1
  O  O23  1  0.16389800  0.87763500  0.90755900  1
