# generated using pymatgen
data_K3PSe16
_symmetry_space_group_name_H-M   'P 1'
_cell_length_a   16.81466600
_cell_length_b   16.81466600
_cell_length_c   16.81466600
_cell_angle_alpha   90.00000000
_cell_angle_beta   90.00000000
_cell_angle_gamma   90.00000000
_symmetry_Int_Tables_number   1
_chemical_formula_structural   K3PSe16
_chemical_formula_sum   'K24 P8 Se128'
_cell_volume   4754.06083929
_cell_formula_units_Z   8
loop_
 _symmetry_equiv_pos_site_id
 _symmetry_equiv_pos_as_xyz
  1  'x, y, z'
loop_
 _atom_site_type_symbol
 _atom_site_label
 _atom_site_symmetry_multiplicity
 _atom_site_fract_x
 _atom_site_fract_y
 _atom_site_fract_z
 _atom_site_occupancy
  K  K0  1  0.00000000  0.00000000  0.50000000  1
  K  K1  1  0.62500000  0.12500000  0.62500000  1
  K  K2  1  0.37500000  0.87500000  0.62500000  1
  K  K3  1  0.12500000  0.87500000  0.87500000  1
  K  K4  1  0.87500000  0.12500000  0.87500000  1
  K  K5  1  0.75000000  0.75000000  0.75000000  1
  K  K6  1  0.00000000  0.50000000  0.00000000  1
  K  K7  1  0.62500000  0.62500000  0.12500000  1
  K  K8  1  0.37500000  0.37500000  0.12500000  1
  K  K9  1  0.12500000  0.37500000  0.37500000  1
  K  K10  1  0.87500000  0.62500000  0.37500000  1
  K  K11  1  0.75000000  0.25000000  0.25000000  1
  K  K12  1  0.50000000  0.00000000  0.00000000  1
  K  K13  1  0.12500000  0.12500000  0.12500000  1
  K  K14  1  0.87500000  0.87500000  0.12500000  1
  K  K15  1  0.62500000  0.87500000  0.37500000  1
  K  K16  1  0.37500000  0.12500000  0.37500000  1
  K  K17  1  0.25000000  0.75000000  0.25000000  1
  K  K18  1  0.50000000  0.50000000  0.50000000  1
  K  K19  1  0.12500000  0.62500000  0.62500000  1
  K  K20  1  0.87500000  0.37500000  0.62500000  1
  K  K21  1  0.62500000  0.37500000  0.87500000  1
  K  K22  1  0.37500000  0.62500000  0.87500000  1
  K  K23  1  0.25000000  0.25000000  0.75000000  1
  P  P24  1  0.25000000  0.75000000  0.75000000  1
  P  P25  1  0.00000000  0.00000000  0.00000000  1
  P  P26  1  0.25000000  0.25000000  0.25000000  1
  P  P27  1  0.00000000  0.50000000  0.50000000  1
  P  P28  1  0.75000000  0.75000000  0.25000000  1
  P  P29  1  0.50000000  0.00000000  0.50000000  1
  P  P30  1  0.75000000  0.25000000  0.75000000  1
  P  P31  1  0.50000000  0.50000000  0.00000000  1
  Se  Se32  1  0.98851200  0.88397250  0.69491350  1
  Se  Se33  1  0.30508650  0.01148800  0.88397250  1
  Se  Se34  1  0.51148800  0.88397250  0.80508650  1
  Se  Se35  1  0.19491350  0.01148800  0.61602750  1
  Se  Se36  1  0.48851200  0.11602750  0.80508650  1
  Se  Se37  1  0.11602750  0.80508650  0.48851200  1
  Se  Se38  1  0.61602750  0.19491350  0.01148800  1
  Se  Se39  1  0.88397250  0.19491350  0.48851200  1
  Se  Se40  1  0.86602750  0.94491350  0.73851200  1
  Se  Se41  1  0.55508650  0.76148800  0.86602750  1
  Se  Se42  1  0.73851200  0.13397250  0.05508650  1
  Se  Se43  1  0.26148800  0.86602750  0.05508650  1
  Se  Se44  1  0.80508650  0.98851200  0.61602750  1
  Se  Se45  1  0.44491350  0.23851200  0.86602750  1
  Se  Se46  1  0.23851200  0.86602750  0.44491350  1
  Se  Se47  1  0.05508650  0.23851200  0.63397250  1
  Se  Se48  1  0.76148800  0.13397250  0.44491350  1
  Se  Se49  1  0.63397250  0.94491350  0.76148800  1
  Se  Se50  1  0.13397250  0.05508650  0.73851200  1
  Se  Se51  1  0.36602750  0.05508650  0.76148800  1
  Se  Se52  1  0.32681533  0.82681533  0.82681533  1
  Se  Se53  1  0.67318467  0.17318467  0.82681533  1
  Se  Se54  1  0.82681533  0.17318467  0.67318467  1
  Se  Se55  1  0.17318467  0.82681533  0.67318467  1
  Se  Se56  1  0.92318467  0.92318467  0.92318467  1
  Se  Se57  1  0.07681533  0.07681533  0.92318467  1
  Se  Se58  1  0.92318467  0.07681533  0.07681533  1
  Se  Se59  1  0.07681533  0.92318467  0.07681533  1
  Se  Se60  1  0.01148800  0.11602750  0.69491350  1
  Se  Se61  1  0.69491350  0.98851200  0.88397250  1
  Se  Se62  1  0.38397250  0.80508650  0.01148800  1
  Se  Se63  1  0.94491350  0.76148800  0.63397250  1
  Se  Se64  1  0.98851200  0.38397250  0.19491350  1
  Se  Se65  1  0.30508650  0.51148800  0.38397250  1
  Se  Se66  1  0.51148800  0.38397250  0.30508650  1
  Se  Se67  1  0.19491350  0.51148800  0.11602750  1
  Se  Se68  1  0.48851200  0.61602750  0.30508650  1
  Se  Se69  1  0.11602750  0.30508650  0.98851200  1
  Se  Se70  1  0.61602750  0.69491350  0.51148800  1
  Se  Se71  1  0.88397250  0.69491350  0.98851200  1
  Se  Se72  1  0.86602750  0.44491350  0.23851200  1
  Se  Se73  1  0.55508650  0.26148800  0.36602750  1
  Se  Se74  1  0.73851200  0.63397250  0.55508650  1
  Se  Se75  1  0.26148800  0.36602750  0.55508650  1
  Se  Se76  1  0.80508650  0.48851200  0.11602750  1
  Se  Se77  1  0.44491350  0.73851200  0.36602750  1
  Se  Se78  1  0.23851200  0.36602750  0.94491350  1
  Se  Se79  1  0.05508650  0.73851200  0.13397250  1
  Se  Se80  1  0.76148800  0.63397250  0.94491350  1
  Se  Se81  1  0.63397250  0.44491350  0.26148800  1
  Se  Se82  1  0.13397250  0.55508650  0.23851200  1
  Se  Se83  1  0.36602750  0.55508650  0.26148800  1
  Se  Se84  1  0.32681533  0.32681533  0.32681533  1
  Se  Se85  1  0.67318467  0.67318467  0.32681533  1
  Se  Se86  1  0.82681533  0.67318467  0.17318467  1
  Se  Se87  1  0.17318467  0.32681533  0.17318467  1
  Se  Se88  1  0.92318467  0.42318467  0.42318467  1
  Se  Se89  1  0.07681533  0.57681533  0.42318467  1
  Se  Se90  1  0.92318467  0.57681533  0.57681533  1
  Se  Se91  1  0.07681533  0.42318467  0.57681533  1
  Se  Se92  1  0.01148800  0.61602750  0.19491350  1
  Se  Se93  1  0.69491350  0.48851200  0.38397250  1
  Se  Se94  1  0.38397250  0.30508650  0.51148800  1
  Se  Se95  1  0.94491350  0.26148800  0.13397250  1
  Se  Se96  1  0.48851200  0.88397250  0.19491350  1
  Se  Se97  1  0.80508650  0.01148800  0.38397250  1
  Se  Se98  1  0.01148800  0.88397250  0.30508650  1
  Se  Se99  1  0.69491350  0.01148800  0.11602750  1
  Se  Se100  1  0.98851200  0.11602750  0.30508650  1
  Se  Se101  1  0.61602750  0.80508650  0.98851200  1
  Se  Se102  1  0.11602750  0.19491350  0.51148800  1
  Se  Se103  1  0.38397250  0.19491350  0.98851200  1
  Se  Se104  1  0.36602750  0.94491350  0.23851200  1
  Se  Se105  1  0.05508650  0.76148800  0.36602750  1
  Se  Se106  1  0.23851200  0.13397250  0.55508650  1
  Se  Se107  1  0.76148800  0.86602750  0.55508650  1
  Se  Se108  1  0.30508650  0.98851200  0.11602750  1
  Se  Se109  1  0.94491350  0.23851200  0.36602750  1
  Se  Se110  1  0.73851200  0.86602750  0.94491350  1
  Se  Se111  1  0.55508650  0.23851200  0.13397250  1
  Se  Se112  1  0.26148800  0.13397250  0.94491350  1
  Se  Se113  1  0.13397250  0.94491350  0.26148800  1
  Se  Se114  1  0.63397250  0.05508650  0.23851200  1
  Se  Se115  1  0.86602750  0.05508650  0.26148800  1
  Se  Se116  1  0.82681533  0.82681533  0.32681533  1
  Se  Se117  1  0.17318467  0.17318467  0.32681533  1
  Se  Se118  1  0.32681533  0.17318467  0.17318467  1
  Se  Se119  1  0.67318467  0.82681533  0.17318467  1
  Se  Se120  1  0.42318467  0.92318467  0.42318467  1
  Se  Se121  1  0.57681533  0.07681533  0.42318467  1
  Se  Se122  1  0.42318467  0.07681533  0.57681533  1
  Se  Se123  1  0.57681533  0.92318467  0.57681533  1
  Se  Se124  1  0.51148800  0.11602750  0.19491350  1
  Se  Se125  1  0.19491350  0.98851200  0.38397250  1
  Se  Se126  1  0.88397250  0.80508650  0.51148800  1
  Se  Se127  1  0.44491350  0.76148800  0.13397250  1
  Se  Se128  1  0.48851200  0.38397250  0.69491350  1
  Se  Se129  1  0.80508650  0.51148800  0.88397250  1
  Se  Se130  1  0.01148800  0.38397250  0.80508650  1
  Se  Se131  1  0.69491350  0.51148800  0.61602750  1
  Se  Se132  1  0.98851200  0.61602750  0.80508650  1
  Se  Se133  1  0.61602750  0.30508650  0.48851200  1
  Se  Se134  1  0.11602750  0.69491350  0.01148800  1
  Se  Se135  1  0.38397250  0.69491350  0.48851200  1
  Se  Se136  1  0.36602750  0.44491350  0.73851200  1
  Se  Se137  1  0.05508650  0.26148800  0.86602750  1
  Se  Se138  1  0.23851200  0.63397250  0.05508650  1
  Se  Se139  1  0.76148800  0.36602750  0.05508650  1
  Se  Se140  1  0.30508650  0.48851200  0.61602750  1
  Se  Se141  1  0.94491350  0.73851200  0.86602750  1
  Se  Se142  1  0.73851200  0.36602750  0.44491350  1
  Se  Se143  1  0.55508650  0.73851200  0.63397250  1
  Se  Se144  1  0.26148800  0.63397250  0.44491350  1
  Se  Se145  1  0.13397250  0.44491350  0.76148800  1
  Se  Se146  1  0.63397250  0.55508650  0.73851200  1
  Se  Se147  1  0.86602750  0.55508650  0.76148800  1
  Se  Se148  1  0.82681533  0.32681533  0.82681533  1
  Se  Se149  1  0.17318467  0.67318467  0.82681533  1
  Se  Se150  1  0.32681533  0.67318467  0.67318467  1
  Se  Se151  1  0.67318467  0.32681533  0.67318467  1
  Se  Se152  1  0.42318467  0.42318467  0.92318467  1
  Se  Se153  1  0.57681533  0.57681533  0.92318467  1
  Se  Se154  1  0.42318467  0.57681533  0.07681533  1
  Se  Se155  1  0.57681533  0.42318467  0.07681533  1
  Se  Se156  1  0.51148800  0.61602750  0.69491350  1
  Se  Se157  1  0.19491350  0.48851200  0.88397250  1
  Se  Se158  1  0.88397250  0.30508650  0.01148800  1
  Se  Se159  1  0.44491350  0.26148800  0.63397250  1
