# generated using pymatgen
data_Hg2ClO
_symmetry_space_group_name_H-M   'P 1'
_cell_length_a   12.30953800
_cell_length_b   6.10631200
_cell_length_c   9.75211341
_cell_angle_alpha   90.00000000
_cell_angle_beta   105.61320317
_cell_angle_gamma   90.00000000
_symmetry_Int_Tables_number   1
_chemical_formula_structural   Hg2ClO
_chemical_formula_sum   'Hg16 Cl8 O8'
_cell_volume   705.97793536
_cell_formula_units_Z   8
loop_
 _symmetry_equiv_pos_site_id
 _symmetry_equiv_pos_as_xyz
  1  'x, y, z'
loop_
 _atom_site_type_symbol
 _atom_site_label
 _atom_site_symmetry_multiplicity
 _atom_site_fract_x
 _atom_site_fract_y
 _atom_site_fract_z
 _atom_site_occupancy
  Hg  Hg0  1  0.55039050  0.30629850  0.39623700  1
  Hg  Hg1  1  0.94960950  0.80629850  0.10376300  1
  Hg  Hg2  1  0.94960950  0.19370150  0.60376300  1
  Hg  Hg3  1  0.55039050  0.69370150  0.89623700  1
  Hg  Hg4  1  0.00000000  0.40566900  0.25000000  1
  Hg  Hg5  1  0.00000000  0.59433100  0.75000000  1
  Hg  Hg6  1  0.75000000  0.75000000  0.50000000  1
  Hg  Hg7  1  0.75000000  0.25000000  0.00000000  1
  Hg  Hg8  1  0.05039050  0.80629850  0.39623700  1
  Hg  Hg9  1  0.44960950  0.30629850  0.10376300  1
  Hg  Hg10  1  0.44960950  0.69370150  0.60376300  1
  Hg  Hg11  1  0.05039050  0.19370150  0.89623700  1
  Hg  Hg12  1  0.50000000  0.90566900  0.25000000  1
  Hg  Hg13  1  0.50000000  0.09433100  0.75000000  1
  Hg  Hg14  1  0.25000000  0.25000000  0.50000000  1
  Hg  Hg15  1  0.25000000  0.75000000  0.00000000  1
  Cl  Cl16  1  0.81013050  0.70095450  0.85944000  1
  Cl  Cl17  1  0.68986950  0.20095450  0.64056000  1
  Cl  Cl18  1  0.68986950  0.79904550  0.14056000  1
  Cl  Cl19  1  0.81013050  0.29904550  0.35944000  1
  Cl  Cl20  1  0.31013050  0.20095450  0.85944000  1
  Cl  Cl21  1  0.18986950  0.70095450  0.64056000  1
  Cl  Cl22  1  0.18986950  0.29904550  0.14056000  1
  Cl  Cl23  1  0.31013050  0.79904550  0.35944000  1
  O  O24  1  0.92031800  0.82471500  0.56071700  1
  O  O25  1  0.57968200  0.32471500  0.93928300  1
  O  O26  1  0.57968200  0.67528500  0.43928300  1
  O  O27  1  0.92031800  0.17528500  0.06071700  1
  O  O28  1  0.42031800  0.32471500  0.56071700  1
  O  O29  1  0.07968200  0.82471500  0.93928300  1
  O  O30  1  0.07968200  0.17528500  0.43928300  1
  O  O31  1  0.42031800  0.67528500  0.06071700  1
