# generated using pymatgen
data_TaPS6
_symmetry_space_group_name_H-M   'P 1'
_cell_length_a   16.14172400
_cell_length_b   16.14172400
_cell_length_c   13.57499600
_cell_angle_alpha   90.00000000
_cell_angle_beta   90.00000000
_cell_angle_gamma   90.00000000
_symmetry_Int_Tables_number   1
_chemical_formula_structural   TaPS6
_chemical_formula_sum   'Ta16 P16 S96'
_cell_volume   3537.03652665
_cell_formula_units_Z   16
loop_
 _symmetry_equiv_pos_site_id
 _symmetry_equiv_pos_as_xyz
  1  'x, y, z'
loop_
 _atom_site_type_symbol
 _atom_site_label
 _atom_site_symmetry_multiplicity
 _atom_site_fract_x
 _atom_site_fract_y
 _atom_site_fract_z
 _atom_site_occupancy
  Ta  Ta0  1  0.57566900  0.57566900  0.25000000  1
  Ta  Ta1  1  0.57566900  0.92433100  0.00000000  1
  Ta  Ta2  1  0.42433100  0.07566900  0.00000000  1
  Ta  Ta3  1  0.92433100  0.92433100  0.75000000  1
  Ta  Ta4  1  0.92433100  0.42433100  0.00000000  1
  Ta  Ta5  1  0.92433100  0.07566900  0.25000000  1
  Ta  Ta6  1  0.57566900  0.42433100  0.75000000  1
  Ta  Ta7  1  0.57566900  0.07566900  0.50000000  1
  Ta  Ta8  1  0.07566900  0.07566900  0.75000000  1
  Ta  Ta9  1  0.07566900  0.42433100  0.50000000  1
  Ta  Ta10  1  0.92433100  0.57566900  0.50000000  1
  Ta  Ta11  1  0.42433100  0.42433100  0.25000000  1
  Ta  Ta12  1  0.42433100  0.92433100  0.50000000  1
  Ta  Ta13  1  0.42433100  0.57566900  0.75000000  1
  Ta  Ta14  1  0.07566900  0.92433100  0.25000000  1
  Ta  Ta15  1  0.07566900  0.57566900  0.00000000  1
  P  P16  1  0.75000000  0.93057500  0.87500000  1
  P  P17  1  0.25000000  0.93057500  0.37500000  1
  P  P18  1  0.93057500  0.25000000  0.12500000  1
  P  P19  1  0.56942500  0.25000000  0.62500000  1
  P  P20  1  0.75000000  0.06942500  0.37500000  1
  P  P21  1  0.75000000  0.56942500  0.37500000  1
  P  P22  1  0.06942500  0.25000000  0.62500000  1
  P  P23  1  0.93057500  0.75000000  0.62500000  1
  P  P24  1  0.25000000  0.43057500  0.37500000  1
  P  P25  1  0.75000000  0.43057500  0.87500000  1
  P  P26  1  0.43057500  0.75000000  0.62500000  1
  P  P27  1  0.06942500  0.75000000  0.12500000  1
  P  P28  1  0.25000000  0.56942500  0.87500000  1
  P  P29  1  0.25000000  0.06942500  0.87500000  1
  P  P30  1  0.56942500  0.75000000  0.12500000  1
  P  P31  1  0.43057500  0.25000000  0.12500000  1
  S  S32  1  0.04340600  0.45398400  0.88044300  1
  S  S33  1  0.71815400  0.50297800  0.25216100  1
  S  S34  1  0.00297800  0.28184600  0.50216100  1
  S  S35  1  0.49702200  0.21815400  0.00216100  1
  S  S36  1  0.78184600  0.99702200  0.75216100  1
  S  S37  1  0.99702200  0.78184600  0.74783900  1
  S  S38  1  0.71815400  0.99702200  0.99783900  1
  S  S39  1  0.78184600  0.50297800  0.49783900  1
  S  S40  1  0.54340600  0.45398400  0.36955700  1
  S  S41  1  0.95398400  0.45659400  0.61955700  1
  S  S42  1  0.54601600  0.04340600  0.11955700  1
  S  S43  1  0.45659400  0.54601600  0.36955700  1
  S  S44  1  0.04601600  0.95659400  0.63044300  1
  S  S45  1  0.54340600  0.04601600  0.88044300  1
  S  S46  1  0.95659400  0.45398400  0.38044300  1
  S  S47  1  0.95398400  0.04340600  0.63044300  1
  S  S48  1  0.45659400  0.04601600  0.38044300  1
  S  S49  1  0.54601600  0.54340600  0.63044300  1
  S  S50  1  0.45398400  0.45659400  0.63044300  1
  S  S51  1  0.50297800  0.71815400  0.24783900  1
  S  S52  1  0.95398400  0.54340600  0.11955700  1
  S  S53  1  0.95659400  0.95398400  0.36955700  1
  S  S54  1  0.04340600  0.04601600  0.36955700  1
  S  S55  1  0.54601600  0.95659400  0.61955700  1
  S  S56  1  0.64385850  0.35325550  0.60993750  1
  S  S57  1  0.85325550  0.35614150  0.85993750  1
  S  S58  1  0.64674450  0.14385850  0.35993750  1
  S  S59  1  0.85614150  0.14674450  0.10993750  1
  S  S60  1  0.64674450  0.35614150  0.89006250  1
  S  S61  1  0.64385850  0.14674450  0.64006250  1
  S  S62  1  0.85614150  0.35325550  0.14006250  1
  S  S63  1  0.85325550  0.14385850  0.39006250  1
  S  S64  1  0.85614150  0.64674450  0.64006250  1
  S  S65  1  0.64674450  0.64385850  0.39006250  1
  S  S66  1  0.85325550  0.85614150  0.89006250  1
  S  S67  1  0.64385850  0.85325550  0.14006250  1
  S  S68  1  0.85325550  0.64385850  0.35993750  1
  S  S69  1  0.85614150  0.85325550  0.60993750  1
  S  S70  1  0.64385850  0.64674450  0.10993750  1
  S  S71  1  0.64674450  0.85614150  0.85993750  1
  S  S72  1  0.99702200  0.28184600  0.00216100  1
  S  S73  1  0.99702200  0.21815400  0.24783900  1
  S  S74  1  0.50297800  0.28184600  0.74783900  1
  S  S75  1  0.71815400  0.00297800  0.49783900  1
  S  S76  1  0.50297800  0.21815400  0.50216100  1
  S  S77  1  0.78184600  0.00297800  0.25216100  1
  S  S78  1  0.71815400  0.49702200  0.75216100  1
  S  S79  1  0.78184600  0.49702200  0.99783900  1
  S  S80  1  0.54340600  0.95398400  0.38044300  1
  S  S81  1  0.21815400  0.00297800  0.75216100  1
  S  S82  1  0.50297800  0.78184600  0.00216100  1
  S  S83  1  0.99702200  0.71815400  0.50216100  1
  S  S84  1  0.28184600  0.49702200  0.25216100  1
  S  S85  1  0.49702200  0.28184600  0.24783900  1
  S  S86  1  0.21815400  0.49702200  0.49783900  1
  S  S87  1  0.28184600  0.00297800  0.99783900  1
  S  S88  1  0.04340600  0.95398400  0.86955700  1
  S  S89  1  0.45398400  0.95659400  0.11955700  1
  S  S90  1  0.04601600  0.54340600  0.61955700  1
  S  S91  1  0.95659400  0.04601600  0.86955700  1
  S  S92  1  0.54601600  0.45659400  0.13044300  1
  S  S93  1  0.04340600  0.54601600  0.38044300  1
  S  S94  1  0.45659400  0.95398400  0.88044300  1
  S  S95  1  0.45398400  0.54340600  0.13044300  1
  S  S96  1  0.95659400  0.54601600  0.88044300  1
  S  S97  1  0.04601600  0.04340600  0.13044300  1
  S  S98  1  0.95398400  0.95659400  0.13044300  1
  S  S99  1  0.00297800  0.21815400  0.74783900  1
  S  S100  1  0.45398400  0.04340600  0.61955700  1
  S  S101  1  0.45659400  0.45398400  0.86955700  1
  S  S102  1  0.54340600  0.54601600  0.86955700  1
  S  S103  1  0.04601600  0.45659400  0.11955700  1
  S  S104  1  0.14385850  0.85325550  0.10993750  1
  S  S105  1  0.35325550  0.85614150  0.35993750  1
  S  S106  1  0.14674450  0.64385850  0.85993750  1
  S  S107  1  0.35614150  0.64674450  0.60993750  1
  S  S108  1  0.14674450  0.85614150  0.39006250  1
  S  S109  1  0.14385850  0.64674450  0.14006250  1
  S  S110  1  0.35614150  0.85325550  0.64006250  1
  S  S111  1  0.35325550  0.64385850  0.89006250  1
  S  S112  1  0.35614150  0.14674450  0.14006250  1
  S  S113  1  0.14674450  0.14385850  0.89006250  1
  S  S114  1  0.35325550  0.35614150  0.39006250  1
  S  S115  1  0.14385850  0.35325550  0.64006250  1
  S  S116  1  0.35325550  0.14385850  0.85993750  1
  S  S117  1  0.35614150  0.35325550  0.10993750  1
  S  S118  1  0.14385850  0.14674450  0.60993750  1
  S  S119  1  0.14674450  0.35614150  0.35993750  1
  S  S120  1  0.49702200  0.78184600  0.50216100  1
  S  S121  1  0.49702200  0.71815400  0.74783900  1
  S  S122  1  0.00297800  0.78184600  0.24783900  1
  S  S123  1  0.21815400  0.50297800  0.99783900  1
  S  S124  1  0.00297800  0.71815400  0.00216100  1
  S  S125  1  0.28184600  0.50297800  0.75216100  1
  S  S126  1  0.21815400  0.99702200  0.25216100  1
  S  S127  1  0.28184600  0.99702200  0.49783900  1
