# generated using pymatgen
data_K2PdF4
_symmetry_space_group_name_H-M   'P 1'
_cell_length_a   9.96748200
_cell_length_b   6.04299600
_cell_length_c   4.32743652
_cell_angle_alpha   90.00000000
_cell_angle_beta   92.95357670
_cell_angle_gamma   90.00000000
_symmetry_Int_Tables_number   1
_chemical_formula_structural   K2PdF4
_chemical_formula_sum   'K4 Pd2 F8'
_cell_volume   260.31019473
_cell_formula_units_Z   2
loop_
 _symmetry_equiv_pos_site_id
 _symmetry_equiv_pos_as_xyz
  1  'x, y, z'
loop_
 _atom_site_type_symbol
 _atom_site_label
 _atom_site_symmetry_multiplicity
 _atom_site_fract_x
 _atom_site_fract_y
 _atom_site_fract_z
 _atom_site_occupancy
  K  K0  1  0.34488800  0.00000000  0.27752800  1
  K  K1  1  0.65511200  0.00000000  0.72247200  1
  K  K2  1  0.84488800  0.50000000  0.27752800  1
  K  K3  1  0.15511200  0.50000000  0.72247200  1
  Pd  Pd4  1  0.00000000  0.00000000  0.00000000  1
  Pd  Pd5  1  0.50000000  0.50000000  0.00000000  1
  F  F6  1  0.38979500  0.73702400  0.78491100  1
  F  F7  1  0.61020500  0.73702400  0.21508900  1
  F  F8  1  0.61020500  0.26297600  0.21508900  1
  F  F9  1  0.38979500  0.26297600  0.78491100  1
  F  F10  1  0.88979500  0.23702400  0.78491100  1
  F  F11  1  0.11020500  0.23702400  0.21508900  1
  F  F12  1  0.11020500  0.76297600  0.21508900  1
  F  F13  1  0.88979500  0.76297600  0.78491100  1
