# generated using pymatgen
data_Rb2CaH4
_symmetry_space_group_name_H-M   'P 1'
_cell_length_a   4.51311600
_cell_length_b   4.51311600
_cell_length_c   14.83993200
_cell_angle_alpha   90.00000000
_cell_angle_beta   90.00000000
_cell_angle_gamma   90.00000000
_symmetry_Int_Tables_number   1
_chemical_formula_structural   Rb2CaH4
_chemical_formula_sum   'Rb4 Ca2 H8'
_cell_volume   302.26294084
_cell_formula_units_Z   2
loop_
 _symmetry_equiv_pos_site_id
 _symmetry_equiv_pos_as_xyz
  1  'x, y, z'
loop_
 _atom_site_type_symbol
 _atom_site_label
 _atom_site_symmetry_multiplicity
 _atom_site_fract_x
 _atom_site_fract_y
 _atom_site_fract_z
 _atom_site_occupancy
  Rb  Rb0  1  0.50000000  0.50000000  0.14801600  1
  Rb  Rb1  1  0.00000000  0.00000000  0.35198400  1
  Rb  Rb2  1  0.00000000  0.00000000  0.64801600  1
  Rb  Rb3  1  0.50000000  0.50000000  0.85198400  1
  Ca  Ca4  1  0.00000000  0.00000000  0.00000000  1
  Ca  Ca5  1  0.50000000  0.50000000  0.50000000  1
  H  H6  1  0.50000000  0.00000000  0.00000000  1
  H  H7  1  0.00000000  0.50000000  0.00000000  1
  H  H8  1  0.50000000  0.50000000  0.34453100  1
  H  H9  1  0.00000000  0.00000000  0.15546900  1
  H  H10  1  0.00000000  0.50000000  0.50000000  1
  H  H11  1  0.50000000  0.00000000  0.50000000  1
  H  H12  1  0.00000000  0.00000000  0.84453100  1
  H  H13  1  0.50000000  0.50000000  0.65546900  1
