# generated using pymatgen
data_SbCl4F
_symmetry_space_group_name_H-M   'P 1'
_cell_length_a   13.44629600
_cell_length_b   13.44629600
_cell_length_c   8.30129400
_cell_angle_alpha   90.00000000
_cell_angle_beta   90.00000000
_cell_angle_gamma   90.00000000
_symmetry_Int_Tables_number   1
_chemical_formula_structural   SbCl4F
_chemical_formula_sum   'Sb8 Cl32 F8'
_cell_volume   1500.89783071
_cell_formula_units_Z   8
loop_
 _symmetry_equiv_pos_site_id
 _symmetry_equiv_pos_as_xyz
  1  'x, y, z'
loop_
 _atom_site_type_symbol
 _atom_site_label
 _atom_site_symmetry_multiplicity
 _atom_site_fract_x
 _atom_site_fract_y
 _atom_site_fract_z
 _atom_site_occupancy
  Sb  Sb0  1  0.77991150  0.04611850  0.00960250  1
  Sb  Sb1  1  0.54611850  0.72008850  0.49039750  1
  Sb  Sb2  1  0.45388150  0.27991150  0.49039750  1
  Sb  Sb3  1  0.22008850  0.95388150  0.00960250  1
  Sb  Sb4  1  0.27991150  0.54611850  0.50960250  1
  Sb  Sb5  1  0.04611850  0.22008850  0.99039750  1
  Sb  Sb6  1  0.95388150  0.77991150  0.99039750  1
  Sb  Sb7  1  0.72008850  0.45388150  0.50960250  1
  Cl  Cl8  1  0.79550700  0.04053600  0.72974600  1
  Cl  Cl9  1  0.20449300  0.95946400  0.72974600  1
  Cl  Cl10  1  0.45946400  0.29550700  0.77025400  1
  Cl  Cl11  1  0.54053600  0.70449300  0.77025400  1
  Cl  Cl12  1  0.30077700  0.80053300  0.01671200  1
  Cl  Cl13  1  0.30053300  0.19922300  0.48328800  1
  Cl  Cl14  1  0.69946700  0.80077700  0.48328800  1
  Cl  Cl15  1  0.69922300  0.19946700  0.01671200  1
  Cl  Cl16  1  0.44119200  0.85801100  0.47928800  1
  Cl  Cl17  1  0.35801100  0.05880800  0.02071200  1
  Cl  Cl18  1  0.64198900  0.94119200  0.02071200  1
  Cl  Cl19  1  0.55880800  0.14198900  0.47928800  1
  Cl  Cl20  1  0.18677700  0.96041300  0.28556300  1
  Cl  Cl21  1  0.46041300  0.31322300  0.21443700  1
  Cl  Cl22  1  0.53958700  0.68677700  0.21443700  1
  Cl  Cl23  1  0.81322300  0.03958700  0.28556300  1
  Cl  Cl24  1  0.29550700  0.54053600  0.22974600  1
  Cl  Cl25  1  0.70449300  0.45946400  0.22974600  1
  Cl  Cl26  1  0.95946400  0.79550700  0.27025400  1
  Cl  Cl27  1  0.04053600  0.20449300  0.27025400  1
  Cl  Cl28  1  0.80077700  0.30053300  0.51671200  1
  Cl  Cl29  1  0.80053300  0.69922300  0.98328800  1
  Cl  Cl30  1  0.19946700  0.30077700  0.98328800  1
  Cl  Cl31  1  0.19922300  0.69946700  0.51671200  1
  Cl  Cl32  1  0.94119200  0.35801100  0.97928800  1
  Cl  Cl33  1  0.85801100  0.55880800  0.52071200  1
  Cl  Cl34  1  0.14198900  0.44119200  0.52071200  1
  Cl  Cl35  1  0.05880800  0.64198900  0.97928800  1
  Cl  Cl36  1  0.68677700  0.46041300  0.78556300  1
  Cl  Cl37  1  0.96041300  0.81322300  0.71443700  1
  Cl  Cl38  1  0.03958700  0.18677700  0.71443700  1
  Cl  Cl39  1  0.31322300  0.53958700  0.78556300  1
  F  F40  1  0.57913500  0.37845300  0.49868500  1
  F  F41  1  0.42086500  0.62154700  0.49868500  1
  F  F42  1  0.12154700  0.07913500  0.00131500  1
  F  F43  1  0.87845300  0.92086500  0.00131500  1
  F  F44  1  0.07913500  0.87845300  0.99868500  1
  F  F45  1  0.92086500  0.12154700  0.99868500  1
  F  F46  1  0.62154700  0.57913500  0.50131500  1
  F  F47  1  0.37845300  0.42086500  0.50131500  1
