# generated using pymatgen
data_Ag3SI
_symmetry_space_group_name_H-M   'P 1'
_cell_length_a   7.00573185
_cell_length_b   7.00573185
_cell_length_c   8.60060319
_cell_angle_alpha   90.00000000
_cell_angle_beta   90.00000000
_cell_angle_gamma   120.00000000
_symmetry_Int_Tables_number   1
_chemical_formula_structural   Ag3SI
_chemical_formula_sum   'Ag9 S3 I3'
_cell_volume   365.56664467
_cell_formula_units_Z   3
loop_
 _symmetry_equiv_pos_site_id
 _symmetry_equiv_pos_as_xyz
  1  'x, y, z'
loop_
 _atom_site_type_symbol
 _atom_site_label
 _atom_site_symmetry_multiplicity
 _atom_site_fract_x
 _atom_site_fract_y
 _atom_site_fract_z
 _atom_site_occupancy
  Ag  Ag0  1  0.71542467  0.78568133  0.31166233  1
  Ag  Ag1  1  0.07025667  0.28457533  0.31166233  1
  Ag  Ag2  1  0.21431867  0.92974333  0.31166233  1
  Ag  Ag3  1  0.38209133  0.11901467  0.64499567  1
  Ag  Ag4  1  0.73692333  0.61790867  0.64499567  1
  Ag  Ag5  1  0.88098533  0.26307667  0.64499567  1
  Ag  Ag6  1  0.04875800  0.45234800  0.97832900  1
  Ag  Ag7  1  0.40359000  0.95124200  0.97832900  1
  Ag  Ag8  1  0.54765200  0.59641000  0.97832900  1
  S  S9  1  0.00000000  0.00000000  0.53080400  1
  S  S10  1  0.66666667  0.33333333  0.86413733  1
  S  S11  1  0.33333333  0.66666667  0.19747067  1
  I  I12  1  0.00000000  0.00000000  0.99820800  1
  I  I13  1  0.66666667  0.33333333  0.33154133  1
  I  I14  1  0.33333333  0.66666667  0.66487467  1
