# generated using pymatgen
data_Rb6Cl4O
_symmetry_space_group_name_H-M   'P 1'
_cell_length_a   12.91128025
_cell_length_b   12.91128025
_cell_length_c   16.07031598
_cell_angle_alpha   90.00000000
_cell_angle_beta   90.00000000
_cell_angle_gamma   120.00000000
_symmetry_Int_Tables_number   1
_chemical_formula_structural   Rb6Cl4O
_chemical_formula_sum   'Rb36 Cl24 O6'
_cell_volume   2320.03033492
_cell_formula_units_Z   6
loop_
 _symmetry_equiv_pos_site_id
 _symmetry_equiv_pos_as_xyz
  1  'x, y, z'
loop_
 _atom_site_type_symbol
 _atom_site_label
 _atom_site_symmetry_multiplicity
 _atom_site_fract_x
 _atom_site_fract_y
 _atom_site_fract_z
 _atom_site_occupancy
  Rb  Rb0  1  0.69516833  0.17804867  0.23451067  1
  Rb  Rb1  1  0.48288033  0.30483167  0.23451067  1
  Rb  Rb2  1  0.82195133  0.51711967  0.23451067  1
  Rb  Rb3  1  0.17804867  0.69516833  0.26548933  1
  Rb  Rb4  1  0.30483167  0.48288033  0.26548933  1
  Rb  Rb5  1  0.51711967  0.82195133  0.26548933  1
  Rb  Rb6  1  0.18378633  0.02850167  0.09882267  1
  Rb  Rb7  1  0.97149833  0.15528467  0.09882267  1
  Rb  Rb8  1  0.84471533  0.81621367  0.09882267  1
  Rb  Rb9  1  0.48861800  0.63816500  0.06784400  1
  Rb  Rb10  1  0.36183500  0.85045300  0.06784400  1
  Rb  Rb11  1  0.14954700  0.51138200  0.06784400  1
  Rb  Rb12  1  0.36183500  0.51138200  0.56784400  1
  Rb  Rb13  1  0.14954700  0.63816500  0.56784400  1
  Rb  Rb14  1  0.48861800  0.85045300  0.56784400  1
  Rb  Rb15  1  0.84471533  0.02850167  0.59882267  1
  Rb  Rb16  1  0.97149833  0.81621367  0.59882267  1
  Rb  Rb17  1  0.18378633  0.15528467  0.59882267  1
  Rb  Rb18  1  0.85045300  0.36183500  0.43215600  1
  Rb  Rb19  1  0.63816500  0.48861800  0.43215600  1
  Rb  Rb20  1  0.51138200  0.14954700  0.43215600  1
  Rb  Rb21  1  0.15528467  0.97149833  0.40117733  1
  Rb  Rb22  1  0.02850167  0.18378633  0.40117733  1
  Rb  Rb23  1  0.81621367  0.84471533  0.40117733  1
  Rb  Rb24  1  0.02850167  0.84471533  0.90117733  1
  Rb  Rb25  1  0.81621367  0.97149833  0.90117733  1
  Rb  Rb26  1  0.15528467  0.18378633  0.90117733  1
  Rb  Rb27  1  0.51138200  0.36183500  0.93215600  1
  Rb  Rb28  1  0.63816500  0.14954700  0.93215600  1
  Rb  Rb29  1  0.85045300  0.48861800  0.93215600  1
  Rb  Rb30  1  0.51711967  0.69516833  0.76548933  1
  Rb  Rb31  1  0.30483167  0.82195133  0.76548933  1
  Rb  Rb32  1  0.17804867  0.48288033  0.76548933  1
  Rb  Rb33  1  0.82195133  0.30483167  0.73451067  1
  Rb  Rb34  1  0.69516833  0.51711967  0.73451067  1
  Rb  Rb35  1  0.48288033  0.17804867  0.73451067  1
  Cl  Cl36  1  0.33333333  0.66666667  0.41666667  1
  Cl  Cl37  1  0.33333333  0.66666667  0.91666667  1
  Cl  Cl38  1  0.29279667  0.33333333  0.08333333  1
  Cl  Cl39  1  0.66666667  0.95946333  0.08333333  1
  Cl  Cl40  1  0.04053667  0.70720333  0.08333333  1
  Cl  Cl41  1  0.37387000  0.00000000  0.25000000  1
  Cl  Cl42  1  0.00000000  0.37387000  0.25000000  1
  Cl  Cl43  1  0.62613000  0.62613000  0.25000000  1
  Cl  Cl44  1  0.00000000  0.00000000  0.75000000  1
  Cl  Cl45  1  0.00000000  0.00000000  0.25000000  1
  Cl  Cl46  1  0.95946333  0.66666667  0.41666667  1
  Cl  Cl47  1  0.33333333  0.29279667  0.41666667  1
  Cl  Cl48  1  0.70720333  0.04053667  0.41666667  1
  Cl  Cl49  1  0.04053667  0.33333333  0.58333333  1
  Cl  Cl50  1  0.66666667  0.70720333  0.58333333  1
  Cl  Cl51  1  0.29279667  0.95946333  0.58333333  1
  Cl  Cl52  1  0.66666667  0.33333333  0.08333333  1
  Cl  Cl53  1  0.66666667  0.33333333  0.58333333  1
  Cl  Cl54  1  0.62613000  0.00000000  0.75000000  1
  Cl  Cl55  1  0.00000000  0.62613000  0.75000000  1
  Cl  Cl56  1  0.37387000  0.37387000  0.75000000  1
  Cl  Cl57  1  0.70720333  0.66666667  0.91666667  1
  Cl  Cl58  1  0.33333333  0.04053667  0.91666667  1
  Cl  Cl59  1  0.95946333  0.29279667  0.91666667  1
  O  O60  1  0.33333333  0.66666667  0.16666667  1
  O  O61  1  0.00000000  0.00000000  0.00000000  1
  O  O62  1  1.00000000  0.00000000  0.50000000  1
  O  O63  1  0.66666667  0.33333333  0.33333333  1
  O  O64  1  0.66666667  0.33333333  0.83333333  1
  O  O65  1  0.33333333  0.66666667  0.66666667  1
