# generated using pymatgen
data_Na2ZnH8(SO6)2
_symmetry_space_group_name_H-M   'P 1'
_cell_length_a   5.57486500
_cell_length_b   8.37235100
_cell_length_c   11.17139850
_cell_angle_alpha   90.00000000
_cell_angle_beta   99.39848509
_cell_angle_gamma   90.00000000
_symmetry_Int_Tables_number   1
_chemical_formula_structural   Na2ZnH8(SO6)2
_chemical_formula_sum   'Na4 Zn2 H16 S4 O24'
_cell_volume   514.42265160
_cell_formula_units_Z   2
loop_
 _symmetry_equiv_pos_site_id
 _symmetry_equiv_pos_as_xyz
  1  'x, y, z'
loop_
 _atom_site_type_symbol
 _atom_site_label
 _atom_site_symmetry_multiplicity
 _atom_site_fract_x
 _atom_site_fract_y
 _atom_site_fract_z
 _atom_site_occupancy
  Na  Na0  1  0.88106600  0.07264600  0.63814000  1
  Na  Na1  1  0.11893400  0.92735400  0.36186000  1
  Na  Na2  1  0.88106600  0.42735400  0.13814000  1
  Na  Na3  1  0.11893400  0.57264600  0.86186000  1
  Zn  Zn4  1  0.00000000  0.50000000  0.50000000  1
  Zn  Zn5  1  0.00000000  0.00000000  0.00000000  1
  H  H6  1  0.75513100  0.72743200  0.98777100  1
  H  H7  1  0.24486900  0.22743200  0.51222900  1
  H  H8  1  0.24486900  0.27256800  0.01222900  1
  H  H9  1  0.75513100  0.77256800  0.48777100  1
  H  H10  1  0.67146900  0.80452600  0.86130400  1
  H  H11  1  0.32853100  0.30452600  0.63869600  1
  H  H12  1  0.32853100  0.19547400  0.13869600  1
  H  H13  1  0.67146900  0.69547400  0.36130400  1
  H  H14  1  0.22886600  0.13606300  0.84529100  1
  H  H15  1  0.77113400  0.63606300  0.65470900  1
  H  H16  1  0.23676900  0.94653300  0.81795500  1
  H  H17  1  0.76323100  0.44653300  0.68204500  1
  H  H18  1  0.76323100  0.05346700  0.18204500  1
  H  H19  1  0.23676900  0.55346700  0.31795500  1
  H  H20  1  0.77113400  0.86393700  0.15470900  1
  H  H21  1  0.22886600  0.36393700  0.34529100  1
  S  S22  1  0.37790900  0.78813500  0.63626400  1
  S  S23  1  0.62209100  0.28813500  0.86373600  1
  S  S24  1  0.62209100  0.21186500  0.36373600  1
  S  S25  1  0.37790900  0.71186500  0.13626400  1
  O  O26  1  0.78269800  0.08479900  0.42250200  1
  O  O27  1  0.21730200  0.91520100  0.57749800  1
  O  O28  1  0.31717500  0.86980600  0.07799100  1
  O  O29  1  0.78269800  0.41520100  0.92250200  1
  O  O30  1  0.68282500  0.13019400  0.92200900  1
  O  O31  1  0.31717500  0.63019400  0.57799100  1
  O  O32  1  0.63986800  0.67669300  0.12701700  1
  O  O33  1  0.36013200  0.17669300  0.37298300  1
  O  O34  1  0.36013200  0.32330700  0.87298300  1
  O  O35  1  0.63986800  0.82330700  0.62701700  1
  O  O36  1  0.87076500  0.96362000  0.16384100  1
  O  O37  1  0.12923500  0.46362000  0.33615900  1
  O  O38  1  0.12923500  0.03638000  0.83615900  1
  O  O39  1  0.87076500  0.53638000  0.66384100  1
  O  O40  1  0.81928300  0.71450500  0.42218300  1
  O  O41  1  0.18071700  0.21450500  0.07781700  1
  O  O42  1  0.18071700  0.28549500  0.57781700  1
  O  O43  1  0.81928300  0.78549500  0.92218300  1
  O  O44  1  0.36046900  0.77916500  0.76954000  1
  O  O45  1  0.63953100  0.27916500  0.73046000  1
  O  O46  1  0.63953100  0.22083500  0.23046000  1
  O  O47  1  0.36046900  0.72083500  0.26954000  1
  O  O48  1  0.68282500  0.36980600  0.42200900  1
  O  O49  1  0.21730200  0.58479900  0.07749800  1
