# generated using pymatgen
data_TlCdI3
_symmetry_space_group_name_H-M   'P 1'
_cell_length_a   4.49742100
_cell_length_b   10.39580700
_cell_length_c   16.63770400
_cell_angle_alpha   90.00000000
_cell_angle_beta   90.00000000
_cell_angle_gamma   90.00000000
_symmetry_Int_Tables_number   1
_chemical_formula_structural   TlCdI3
_chemical_formula_sum   'Tl4 Cd4 I12'
_cell_volume   777.88454876
_cell_formula_units_Z   4
loop_
 _symmetry_equiv_pos_site_id
 _symmetry_equiv_pos_as_xyz
  1  'x, y, z'
loop_
 _atom_site_type_symbol
 _atom_site_label
 _atom_site_symmetry_multiplicity
 _atom_site_fract_x
 _atom_site_fract_y
 _atom_site_fract_z
 _atom_site_occupancy
  Tl  Tl0  1  0.25000000  0.95259700  0.67534600  1
  Tl  Tl1  1  0.75000000  0.04740300  0.32465400  1
  Tl  Tl2  1  0.25000000  0.45259700  0.82465400  1
  Tl  Tl3  1  0.75000000  0.54740300  0.17534600  1
  Cd  Cd4  1  0.25000000  0.66777100  0.44595300  1
  Cd  Cd5  1  0.75000000  0.33222900  0.55404700  1
  Cd  Cd6  1  0.25000000  0.16777100  0.05404700  1
  Cd  Cd7  1  0.75000000  0.83222900  0.94595300  1
  I  I8  1  0.75000000  0.98125700  0.10530000  1
  I  I9  1  0.25000000  0.01874300  0.89470000  1
  I  I10  1  0.75000000  0.48125700  0.39470000  1
  I  I11  1  0.25000000  0.51874300  0.60530000  1
  I  I12  1  0.75000000  0.83589300  0.51029500  1
  I  I13  1  0.25000000  0.16410700  0.48970500  1
  I  I14  1  0.75000000  0.33589300  0.98970500  1
  I  I15  1  0.25000000  0.66410700  0.01029500  1
  I  I16  1  0.75000000  0.71015200  0.78790600  1
  I  I17  1  0.25000000  0.28984800  0.21209400  1
  I  I18  1  0.75000000  0.21015200  0.71209400  1
  I  I19  1  0.25000000  0.78984800  0.28790600  1
