# generated using pymatgen
data_Pb3SO6
_symmetry_space_group_name_H-M   'P 1'
_cell_length_a   10.39004800
_cell_length_b   12.37428000
_cell_length_c   6.03183100
_cell_angle_alpha   90.00000000
_cell_angle_beta   90.00000000
_cell_angle_gamma   90.00000000
_symmetry_Int_Tables_number   1
_chemical_formula_structural   Pb3SO6
_chemical_formula_sum   'Pb12 S4 O24'
_cell_volume   775.50867039
_cell_formula_units_Z   4
loop_
 _symmetry_equiv_pos_site_id
 _symmetry_equiv_pos_as_xyz
  1  'x, y, z'
loop_
 _atom_site_type_symbol
 _atom_site_label
 _atom_site_symmetry_multiplicity
 _atom_site_fract_x
 _atom_site_fract_y
 _atom_site_fract_z
 _atom_site_occupancy
  Pb  Pb0  1  0.50000000  0.60092100  0.25000000  1
  Pb  Pb1  1  0.26735450  0.91043350  0.25000000  1
  Pb  Pb2  1  0.73264550  0.91043350  0.25000000  1
  Pb  Pb3  1  0.50000000  0.39907900  0.75000000  1
  Pb  Pb4  1  0.26735450  0.08956650  0.75000000  1
  Pb  Pb5  1  0.73264550  0.08956650  0.75000000  1
  Pb  Pb6  1  0.00000000  0.10092100  0.25000000  1
  Pb  Pb7  1  0.76735450  0.41043350  0.25000000  1
  Pb  Pb8  1  0.23264550  0.41043350  0.25000000  1
  Pb  Pb9  1  0.00000000  0.89907900  0.75000000  1
  Pb  Pb10  1  0.76735450  0.58956650  0.75000000  1
  Pb  Pb11  1  0.23264550  0.58956650  0.75000000  1
  S  S12  1  0.50000000  0.15140400  0.25000000  1
  S  S13  1  0.50000000  0.84859600  0.75000000  1
  S  S14  1  0.00000000  0.65140400  0.25000000  1
  S  S15  1  0.00000000  0.34859600  0.75000000  1
  O  O16  1  0.38106350  0.08105750  0.25000000  1
  O  O17  1  0.14339600  0.00000000  0.00000000  1
  O  O18  1  0.50000000  0.21845400  0.04688200  1
  O  O19  1  0.50000000  0.21845400  0.45311800  1
  O  O20  1  0.38106350  0.91894250  0.75000000  1
  O  O21  1  0.85660400  0.00000000  0.50000000  1
  O  O22  1  0.50000000  0.78154600  0.54688200  1
  O  O23  1  0.61893650  0.08105750  0.25000000  1
  O  O24  1  0.61893650  0.91894250  0.75000000  1
  O  O25  1  0.50000000  0.78154600  0.95311800  1
  O  O26  1  0.85660400  0.00000000  0.00000000  1
  O  O27  1  0.14339600  0.00000000  0.50000000  1
  O  O28  1  0.88106350  0.58105750  0.25000000  1
  O  O29  1  0.64339600  0.50000000  0.00000000  1
  O  O30  1  0.00000000  0.71845400  0.04688200  1
  O  O31  1  0.00000000  0.71845400  0.45311800  1
  O  O32  1  0.88106350  0.41894250  0.75000000  1
  O  O33  1  0.35660400  0.50000000  0.50000000  1
  O  O34  1  0.00000000  0.28154600  0.54688200  1
  O  O35  1  0.11893650  0.58105750  0.25000000  1
  O  O36  1  0.11893650  0.41894250  0.75000000  1
  O  O37  1  0.00000000  0.28154600  0.95311800  1
  O  O38  1  0.35660400  0.50000000  0.00000000  1
  O  O39  1  0.64339600  0.50000000  0.50000000  1
