# generated using pymatgen
data_CsSrN9
_symmetry_space_group_name_H-M   'P 1'
_cell_length_a   9.36830200
_cell_length_b   10.33610800
_cell_length_c   9.12103071
_cell_angle_alpha   90.00000000
_cell_angle_beta   119.54078363
_cell_angle_gamma   90.00000000
_symmetry_Int_Tables_number   1
_chemical_formula_structural   CsSrN9
_chemical_formula_sum   'Cs4 Sr4 N36'
_cell_volume   768.39330068
_cell_formula_units_Z   4
loop_
 _symmetry_equiv_pos_site_id
 _symmetry_equiv_pos_as_xyz
  1  'x, y, z'
loop_
 _atom_site_type_symbol
 _atom_site_label
 _atom_site_symmetry_multiplicity
 _atom_site_fract_x
 _atom_site_fract_y
 _atom_site_fract_z
 _atom_site_occupancy
  Cs  Cs0  1  0.50000000  0.28933100  0.75000000  1
  Cs  Cs1  1  0.50000000  0.71066900  0.25000000  1
  Cs  Cs2  1  0.00000000  0.78933100  0.75000000  1
  Cs  Cs3  1  0.00000000  0.21066900  0.25000000  1
  Sr  Sr4  1  0.50000000  0.73912300  0.75000000  1
  Sr  Sr5  1  0.50000000  0.26087700  0.25000000  1
  Sr  Sr6  1  0.00000000  0.23912300  0.75000000  1
  Sr  Sr7  1  0.00000000  0.76087700  0.25000000  1
  N  N8  1  0.82794400  0.08520800  0.85042000  1
  N  N9  1  0.17205600  0.08520800  0.64958000  1
  N  N10  1  0.17205600  0.91479200  0.14958000  1
  N  N11  1  0.82794400  0.91479200  0.35042000  1
  N  N12  1  0.50000000  0.00000000  0.00000000  1
  N  N13  1  0.50000000  0.00000000  0.50000000  1
  N  N14  1  0.44496150  0.10443450  0.45084300  1
  N  N15  1  0.55503850  0.10443450  0.04915700  1
  N  N16  1  0.55503850  0.89556550  0.54915700  1
  N  N17  1  0.44496150  0.89556550  0.95084300  1
  N  N18  1  0.80557500  0.01531600  0.39770100  1
  N  N19  1  0.19442500  0.01531600  0.10229900  1
  N  N20  1  0.19442500  0.98468400  0.60229900  1
  N  N21  1  0.80557500  0.98468400  0.89770100  1
  N  N22  1  0.78333950  0.11686650  0.44449800  1
  N  N23  1  0.21666050  0.11686650  0.05550200  1
  N  N24  1  0.21666050  0.88313350  0.55550200  1
  N  N25  1  0.78333950  0.88313350  0.94449800  1
  N  N26  1  0.32794400  0.58520800  0.85042000  1
  N  N27  1  0.67205600  0.58520800  0.64958000  1
  N  N28  1  0.67205600  0.41479200  0.14958000  1
  N  N29  1  0.32794400  0.41479200  0.35042000  1
  N  N30  1  0.00000000  0.50000000  0.00000000  1
  N  N31  1  0.00000000  0.50000000  0.50000000  1
  N  N32  1  0.94496150  0.60443450  0.45084300  1
  N  N33  1  0.05503850  0.60443450  0.04915700  1
  N  N34  1  0.05503850  0.39556550  0.54915700  1
  N  N35  1  0.94496150  0.39556550  0.95084300  1
  N  N36  1  0.30557500  0.51531600  0.39770100  1
  N  N37  1  0.69442500  0.51531600  0.10229900  1
  N  N38  1  0.69442500  0.48468400  0.60229900  1
  N  N39  1  0.30557500  0.48468400  0.89770100  1
  N  N40  1  0.28333950  0.61686650  0.44449800  1
  N  N41  1  0.71666050  0.61686650  0.05550200  1
  N  N42  1  0.71666050  0.38313350  0.55550200  1
  N  N43  1  0.28333950  0.38313350  0.94449800  1
