# generated using pymatgen
data_ZnH12(SO6)2
_symmetry_space_group_name_H-M   'P 1'
_cell_length_a   6.54089200
_cell_length_b   6.74881587
_cell_length_c   7.02231448
_cell_angle_alpha   101.80854415
_cell_angle_beta   96.42759631
_cell_angle_gamma   94.64625177
_symmetry_Int_Tables_number   1
_chemical_formula_structural   ZnH12(SO6)2
_chemical_formula_sum   'Zn1 H12 S2 O12'
_cell_volume   299.79480158
_cell_formula_units_Z   1
loop_
 _symmetry_equiv_pos_site_id
 _symmetry_equiv_pos_as_xyz
  1  'x, y, z'
loop_
 _atom_site_type_symbol
 _atom_site_label
 _atom_site_symmetry_multiplicity
 _atom_site_fract_x
 _atom_site_fract_y
 _atom_site_fract_z
 _atom_site_occupancy
  Zn  Zn0  1  0.00000000  0.00000000  0.00000000  1
  H  H1  1  0.20211000  0.06684400  0.38956800  1
  H  H2  1  0.79789000  0.93315600  0.61043200  1
  H  H3  1  0.18268000  0.83134000  0.29329400  1
  H  H4  1  0.70107600  0.84731900  0.18051000  1
  H  H5  1  0.39109000  0.18267300  0.04259800  1
  H  H6  1  0.60891000  0.81732700  0.95740200  1
  H  H7  1  0.81585000  0.32368900  0.17107400  1
  H  H8  1  0.18415000  0.67631100  0.82892600  1
  H  H9  1  0.05696300  0.40228800  0.18971000  1
  H  H10  1  0.94303700  0.59771200  0.81029000  1
  H  H11  1  0.81732000  0.16866000  0.70670600  1
  H  H12  1  0.29892400  0.15268100  0.81949000  1
  S  S13  1  0.49343000  0.54643900  0.35835600  1
  S  S14  1  0.50657000  0.45356100  0.64164400  1
  O  O15  1  0.64151700  0.72963700  0.39402700  1
  O  O16  1  0.72355500  0.41712300  0.68802000  1
  O  O17  1  0.27644500  0.58287700  0.31198000  1
  O  O18  1  0.44513800  0.62986500  0.77597800  1
  O  O19  1  0.12335300  0.95949400  0.28563300  1
  O  O20  1  0.87664700  0.04050600  0.71436700  1
  O  O21  1  0.29394600  0.09336300  0.93595200  1
  O  O22  1  0.70605400  0.90663700  0.06404800  1
  O  O23  1  0.94558300  0.29952700  0.11531100  1
  O  O24  1  0.05441700  0.70047300  0.88468900  1
  O  O25  1  0.35848300  0.27036300  0.60597300  1
  O  O26  1  0.55486200  0.37013500  0.22402200  1
