# generated using pymatgen
data_AgN3
_symmetry_space_group_name_H-M   'P 1'
_cell_length_a   5.41333600
_cell_length_b   6.36536600
_cell_length_c   6.68435600
_cell_angle_alpha   90.00000000
_cell_angle_beta   90.00000000
_cell_angle_gamma   90.00000000
_symmetry_Int_Tables_number   1
_chemical_formula_structural   AgN3
_chemical_formula_sum   'Ag4 N12'
_cell_volume   230.32863613
_cell_formula_units_Z   4
loop_
 _symmetry_equiv_pos_site_id
 _symmetry_equiv_pos_as_xyz
  1  'x, y, z'
loop_
 _atom_site_type_symbol
 _atom_site_label
 _atom_site_symmetry_multiplicity
 _atom_site_fract_x
 _atom_site_fract_y
 _atom_site_fract_z
 _atom_site_occupancy
  Ag  Ag0  1  0.00000000  0.75000000  0.50000000  1
  Ag  Ag1  1  0.50000000  0.75000000  0.00000000  1
  Ag  Ag2  1  0.50000000  0.25000000  0.00000000  1
  Ag  Ag3  1  0.00000000  0.25000000  0.50000000  1
  N  N4  1  0.68687900  0.50000000  0.40658400  1
  N  N5  1  0.18687900  0.50000000  0.09341600  1
  N  N6  1  0.00000000  0.00000000  0.00000000  1
  N  N7  1  0.00000000  0.50000000  0.00000000  1
  N  N8  1  0.81312100  0.00000000  0.09341600  1
  N  N9  1  0.31312100  0.00000000  0.40658400  1
  N  N10  1  0.18687900  0.00000000  0.90658400  1
  N  N11  1  0.68687900  0.00000000  0.59341600  1
  N  N12  1  0.50000000  0.50000000  0.50000000  1
  N  N13  1  0.50000000  0.00000000  0.50000000  1
  N  N14  1  0.31312100  0.50000000  0.59341600  1
  N  N15  1  0.81312100  0.50000000  0.90658400  1
