# generated using pymatgen
data_BaCN2
_symmetry_space_group_name_H-M   'P 1'
_cell_length_a   15.18914153
_cell_length_b   15.18914153
_cell_length_c   7.52743430
_cell_angle_alpha   90.00000000
_cell_angle_beta   90.00000000
_cell_angle_gamma   120.00000000
_symmetry_Int_Tables_number   1
_chemical_formula_structural   BaCN2
_chemical_formula_sum   'Ba18 C18 N36'
_cell_volume   1503.98693425
_cell_formula_units_Z   18
loop_
 _symmetry_equiv_pos_site_id
 _symmetry_equiv_pos_as_xyz
  1  'x, y, z'
loop_
 _atom_site_type_symbol
 _atom_site_label
 _atom_site_symmetry_multiplicity
 _atom_site_fract_x
 _atom_site_fract_y
 _atom_site_fract_z
 _atom_site_occupancy
  Ba  Ba0  1  0.21014200  0.00000000  0.25000000  1
  Ba  Ba1  1  0.33333333  0.87680867  0.91666667  1
  Ba  Ba2  1  0.45652467  0.12319133  0.58333333  1
  Ba  Ba3  1  0.45652467  0.33333333  0.08333333  1
  Ba  Ba4  1  0.33333333  0.45652467  0.41666667  1
  Ba  Ba5  1  0.21014200  0.21014200  0.75000000  1
  Ba  Ba6  1  0.87680867  0.33333333  0.58333333  1
  Ba  Ba7  1  0.00000000  0.21014200  0.25000000  1
  Ba  Ba8  1  0.12319133  0.45652467  0.91666667  1
  Ba  Ba9  1  0.12319133  0.66666667  0.41666667  1
  Ba  Ba10  1  0.00000000  0.78985800  0.75000000  1
  Ba  Ba11  1  0.87680867  0.54347533  0.08333333  1
  Ba  Ba12  1  0.54347533  0.66666667  0.91666667  1
  Ba  Ba13  1  0.66666667  0.54347533  0.58333333  1
  Ba  Ba14  1  0.78985800  0.78985800  0.25000000  1
  Ba  Ba15  1  0.78985800  0.00000000  0.75000000  1
  Ba  Ba16  1  0.66666667  0.12319133  0.08333333  1
  Ba  Ba17  1  0.54347533  0.87680867  0.41666667  1
  C  C18  1  0.21628100  0.00000000  0.75000000  1
  C  C19  1  0.45038567  0.33333333  0.58333333  1
  C  C20  1  0.33333333  0.45038567  0.91666667  1
  C  C21  1  0.21628100  0.21628100  0.25000000  1
  C  C22  1  0.33333333  0.88294767  0.41666667  1
  C  C23  1  0.45038567  0.11705233  0.08333333  1
  C  C24  1  0.88294767  0.33333333  0.08333333  1
  C  C25  1  0.11705233  0.66666667  0.91666667  1
  C  C26  1  0.00000000  0.78371900  0.25000000  1
  C  C27  1  0.88294767  0.54961433  0.58333333  1
  C  C28  1  0.00000000  0.21628100  0.75000000  1
  C  C29  1  0.11705233  0.45038567  0.41666667  1
  C  C30  1  0.54961433  0.66666667  0.41666667  1
  C  C31  1  0.78371900  0.00000000  0.25000000  1
  C  C32  1  0.66666667  0.11705233  0.58333333  1
  C  C33  1  0.54961433  0.88294767  0.91666667  1
  C  C34  1  0.66666667  0.54961433  0.08333333  1
  C  C35  1  0.78371900  0.78371900  0.75000000  1
  N  N36  1  0.47548933  0.09327667  0.94220067  1
  N  N37  1  0.28445400  0.85784400  0.27553400  1
  N  N38  1  0.19117733  0.95112067  0.89113267  1
  N  N39  1  0.24005667  0.04887933  0.60886733  1
  N  N40  1  0.42661000  0.14215600  0.22446600  1
  N  N41  1  0.38221267  0.90672333  0.55779933  1
  N  N42  1  0.19117733  0.24005667  0.39113267  1
  N  N43  1  0.38221267  0.47548933  0.05779933  1
  N  N44  1  0.42661000  0.28445400  0.72446600  1
  N  N45  1  0.24005667  0.19117733  0.10886733  1
  N  N46  1  0.28445400  0.42661000  0.77553400  1
  N  N47  1  0.47548933  0.38221267  0.44220067  1
  N  N48  1  0.14215600  0.42661000  0.27553400  1
  N  N49  1  0.95112067  0.19117733  0.60886733  1
  N  N50  1  0.85784400  0.28445400  0.22446600  1
  N  N51  1  0.90672333  0.38221267  0.94220067  1
  N  N52  1  0.09327667  0.47548933  0.55779933  1
  N  N53  1  0.04887933  0.24005667  0.89113267  1
  N  N54  1  0.85784400  0.57339000  0.72446600  1
  N  N55  1  0.04887933  0.80882267  0.39113267  1
  N  N56  1  0.09327667  0.61778733  0.05779933  1
  N  N57  1  0.90672333  0.52451067  0.44220067  1
  N  N58  1  0.95112067  0.75994333  0.10886733  1
  N  N59  1  0.14215600  0.71554600  0.77553400  1
  N  N60  1  0.80882267  0.75994333  0.60886733  1
  N  N61  1  0.61778733  0.52451067  0.94220067  1
  N  N62  1  0.52451067  0.61778733  0.55779933  1
  N  N63  1  0.57339000  0.71554600  0.27553400  1
  N  N64  1  0.75994333  0.80882267  0.89113267  1
  N  N65  1  0.71554600  0.57339000  0.22446600  1
  N  N66  1  0.52451067  0.90672333  0.05779933  1
  N  N67  1  0.71554600  0.14215600  0.72446600  1
  N  N68  1  0.75994333  0.95112067  0.39113267  1
  N  N69  1  0.57339000  0.85784400  0.77553400  1
  N  N70  1  0.61778733  0.09327667  0.44220067  1
  N  N71  1  0.80882267  0.04887933  0.10886733  1
