# generated using pymatgen
data_MgH2SO5
_symmetry_space_group_name_H-M   'P 1'
_cell_length_a   6.83879800
_cell_length_b   7.84662200
_cell_length_c   7.65709165
_cell_angle_alpha   90.00000000
_cell_angle_beta   115.60481928
_cell_angle_gamma   90.00000000
_symmetry_Int_Tables_number   1
_chemical_formula_structural   MgH2SO5
_chemical_formula_sum   'Mg4 H8 S4 O20'
_cell_volume   370.53969887
_cell_formula_units_Z   4
loop_
 _symmetry_equiv_pos_site_id
 _symmetry_equiv_pos_as_xyz
  1  'x, y, z'
loop_
 _atom_site_type_symbol
 _atom_site_label
 _atom_site_symmetry_multiplicity
 _atom_site_fract_x
 _atom_site_fract_y
 _atom_site_fract_z
 _atom_site_occupancy
  Mg  Mg0  1  0.75000000  0.25000000  0.00000000  1
  Mg  Mg1  1  0.75000000  0.75000000  0.50000000  1
  Mg  Mg2  1  0.25000000  0.75000000  0.00000000  1
  Mg  Mg3  1  0.25000000  0.25000000  0.50000000  1
  H  H4  1  0.90957200  0.95696100  0.79207500  1
  H  H5  1  0.09042800  0.95696100  0.70792500  1
  H  H6  1  0.09042800  0.04303900  0.20792500  1
  H  H7  1  0.90957200  0.04303900  0.29207500  1
  H  H8  1  0.40957200  0.45696100  0.79207500  1
  H  H9  1  0.59042800  0.45696100  0.70792500  1
  H  H10  1  0.59042800  0.54303900  0.20792500  1
  H  H11  1  0.40957200  0.54303900  0.29207500  1
  S  S12  1  0.50000000  0.08957300  0.25000000  1
  S  S13  1  0.50000000  0.91042700  0.75000000  1
  S  S14  1  0.00000000  0.58957300  0.25000000  1
  S  S15  1  0.00000000  0.41042700  0.75000000  1
  O  O16  1  0.47056100  0.19726300  0.39472900  1
  O  O17  1  0.52943900  0.19726300  0.10527100  1
  O  O18  1  0.52943900  0.80273700  0.60527100  1
  O  O19  1  0.47056100  0.80273700  0.89472900  1
  O  O20  1  0.30385300  0.97823200  0.15360000  1
  O  O21  1  0.69614700  0.97823200  0.34640000  1
  O  O22  1  0.69614700  0.02176800  0.84640000  1
  O  O23  1  0.30385300  0.02176800  0.65360000  1
  O  O24  1  0.50000000  0.61774200  0.25000000  1
  O  O25  1  0.50000000  0.38225800  0.75000000  1
  O  O26  1  0.97056100  0.69726300  0.39472900  1
  O  O27  1  0.02943900  0.69726300  0.10527100  1
  O  O28  1  0.02943900  0.30273700  0.60527100  1
  O  O29  1  0.97056100  0.30273700  0.89472900  1
  O  O30  1  0.80385300  0.47823200  0.15360000  1
  O  O31  1  0.19614700  0.47823200  0.34640000  1
  O  O32  1  0.19614700  0.52176800  0.84640000  1
  O  O33  1  0.80385300  0.52176800  0.65360000  1
  O  O34  1  0.00000000  0.11774200  0.25000000  1
  O  O35  1  0.00000000  0.88225800  0.75000000  1
