# generated using pymatgen
data_CuHgSCl
_symmetry_space_group_name_H-M   'P 1'
_cell_length_a   4.05619700
_cell_length_b   9.98551700
_cell_length_c   18.39898100
_cell_angle_alpha   90.00000000
_cell_angle_beta   90.00000000
_cell_angle_gamma   90.00000000
_symmetry_Int_Tables_number   1
_chemical_formula_structural   CuHgSCl
_chemical_formula_sum   'Cu8 Hg8 S8 Cl8'
_cell_volume   745.21805063
_cell_formula_units_Z   8
loop_
 _symmetry_equiv_pos_site_id
 _symmetry_equiv_pos_as_xyz
  1  'x, y, z'
loop_
 _atom_site_type_symbol
 _atom_site_label
 _atom_site_symmetry_multiplicity
 _atom_site_fract_x
 _atom_site_fract_y
 _atom_site_fract_z
 _atom_site_occupancy
  Cu  Cu0  1  0.00000000  0.90126600  0.62273000  1
  Cu  Cu1  1  0.00000000  0.09873400  0.37727000  1
  Cu  Cu2  1  0.00000000  0.40126600  0.87727000  1
  Cu  Cu3  1  0.00000000  0.43618200  0.42773000  1
  Cu  Cu4  1  0.00000000  0.93618200  0.07227000  1
  Cu  Cu5  1  0.00000000  0.06381800  0.92773000  1
  Cu  Cu6  1  0.00000000  0.56381800  0.57227000  1
  Cu  Cu7  1  0.00000000  0.59873400  0.12273000  1
  Hg  Hg8  1  0.50000000  0.25761300  0.10789100  1
  Hg  Hg9  1  0.50000000  0.97542100  0.23539500  1
  Hg  Hg10  1  0.50000000  0.02457900  0.76460500  1
  Hg  Hg11  1  0.50000000  0.75761300  0.39210900  1
  Hg  Hg12  1  0.50000000  0.52457900  0.73539500  1
  Hg  Hg13  1  0.50000000  0.24238700  0.60789100  1
  Hg  Hg14  1  0.50000000  0.74238700  0.89210900  1
  Hg  Hg15  1  0.50000000  0.47542100  0.26460500  1
  S  S16  1  0.50000000  0.48710800  0.60414600  1
  S  S17  1  0.50000000  0.50372600  0.86699600  1
  S  S18  1  0.50000000  0.49627400  0.13300400  1
  S  S19  1  0.50000000  0.00372600  0.63300400  1
  S  S20  1  0.50000000  0.99627400  0.36699600  1
  S  S21  1  0.50000000  0.01289200  0.10414600  1
  S  S22  1  0.50000000  0.51289200  0.39585400  1
  S  S23  1  0.50000000  0.98710800  0.89585400  1
  Cl  Cl24  1  0.00000000  0.26774300  0.98354900  1
  Cl  Cl25  1  0.00000000  0.76774300  0.51645100  1
  Cl  Cl26  1  0.00000000  0.74972300  0.22530500  1
  Cl  Cl27  1  0.00000000  0.24972300  0.27469500  1
  Cl  Cl28  1  0.00000000  0.73225700  0.01645100  1
  Cl  Cl29  1  0.00000000  0.23225700  0.48354900  1
  Cl  Cl30  1  0.00000000  0.75027700  0.72530500  1
  Cl  Cl31  1  0.00000000  0.25027700  0.77469500  1
