# generated using pymatgen
data_GeBi2O5
_symmetry_space_group_name_H-M   'P 1'
_cell_length_a   5.60987600
_cell_length_b   15.85339200
_cell_length_c   5.48159900
_cell_angle_alpha   90.00000000
_cell_angle_beta   90.00000000
_cell_angle_gamma   90.00000000
_symmetry_Int_Tables_number   1
_chemical_formula_structural   GeBi2O5
_chemical_formula_sum   'Ge4 Bi8 O20'
_cell_volume   487.50909485
_cell_formula_units_Z   4
loop_
 _symmetry_equiv_pos_site_id
 _symmetry_equiv_pos_as_xyz
  1  'x, y, z'
loop_
 _atom_site_type_symbol
 _atom_site_label
 _atom_site_symmetry_multiplicity
 _atom_site_fract_x
 _atom_site_fract_y
 _atom_site_fract_z
 _atom_site_occupancy
  Ge  Ge0  1  0.31480100  0.00000000  0.30847300  1
  Ge  Ge1  1  0.68519900  0.00000000  0.80847300  1
  Ge  Ge2  1  0.81480100  0.50000000  0.30847300  1
  Ge  Ge3  1  0.18519900  0.50000000  0.80847300  1
  Bi  Bi4  1  0.71862200  0.33090200  0.75386300  1
  Bi  Bi5  1  0.78137800  0.16909800  0.25386300  1
  Bi  Bi6  1  0.28137800  0.33090200  0.25386300  1
  Bi  Bi7  1  0.21862200  0.16909800  0.75386300  1
  Bi  Bi8  1  0.21862200  0.83090200  0.75386300  1
  Bi  Bi9  1  0.28137800  0.66909800  0.25386300  1
  Bi  Bi10  1  0.78137800  0.83090200  0.25386300  1
  Bi  Bi11  1  0.71862200  0.66909800  0.75386300  1
  O  O12  1  0.98741400  0.25064900  0.52994900  1
  O  O13  1  0.51258600  0.24935100  0.02994900  1
  O  O14  1  0.01258600  0.25064900  0.02994900  1
  O  O15  1  0.48741400  0.24935100  0.52994900  1
  O  O16  1  0.66846650  0.40422050  0.35976600  1
  O  O17  1  0.83153350  0.09577950  0.85976600  1
  O  O18  1  0.58595700  0.00000000  0.49294100  1
  O  O19  1  0.41404300  0.00000000  0.99294100  1
  O  O20  1  0.16846650  0.09577950  0.35976600  1
  O  O21  1  0.33153350  0.40422050  0.85976600  1
  O  O22  1  0.48741400  0.75064900  0.52994900  1
  O  O23  1  0.01258600  0.74935100  0.02994900  1
  O  O24  1  0.51258600  0.75064900  0.02994900  1
  O  O25  1  0.98741400  0.74935100  0.52994900  1
  O  O26  1  0.16846650  0.90422050  0.35976600  1
  O  O27  1  0.33153350  0.59577950  0.85976600  1
  O  O28  1  0.08595700  0.50000000  0.49294100  1
  O  O29  1  0.91404300  0.50000000  0.99294100  1
  O  O30  1  0.66846650  0.59577950  0.35976600  1
  O  O31  1  0.83153350  0.90422050  0.85976600  1
