# generated using pymatgen
data_Er(ClO4)3
_symmetry_space_group_name_H-M   'P 1'
_cell_length_a   9.45847410
_cell_length_b   9.45847410
_cell_length_c   5.57080000
_cell_angle_alpha   90.00000000
_cell_angle_beta   90.00000000
_cell_angle_gamma   120.00000000
_symmetry_Int_Tables_number   1
_chemical_formula_structural   Er(ClO4)3
_chemical_formula_sum   'Er2 Cl6 O24'
_cell_volume   431.60886543
_cell_formula_units_Z   2
loop_
 _symmetry_equiv_pos_site_id
 _symmetry_equiv_pos_as_xyz
  1  'x, y, z'
loop_
 _atom_site_type_symbol
 _atom_site_label
 _atom_site_symmetry_multiplicity
 _atom_site_fract_x
 _atom_site_fract_y
 _atom_site_fract_z
 _atom_site_occupancy
  Er  Er0  1  0.66666667  0.33333333  0.25000000  1
  Er  Er1  1  0.33333333  0.66666667  0.75000000  1
  Cl  Cl2  1  0.60891800  0.90424900  0.25000000  1
  Cl  Cl3  1  0.70466900  0.60891800  0.75000000  1
  Cl  Cl4  1  0.90424900  0.29533100  0.75000000  1
  Cl  Cl5  1  0.09575100  0.70466900  0.25000000  1
  Cl  Cl6  1  0.29533100  0.39108200  0.25000000  1
  Cl  Cl7  1  0.39108200  0.09575100  0.75000000  1
  O  O8  1  0.78070000  0.97303600  0.25000000  1
  O  O9  1  0.80766400  0.78070000  0.75000000  1
  O  O10  1  0.97303600  0.19233600  0.75000000  1
  O  O11  1  0.02696400  0.80766400  0.25000000  1
  O  O12  1  0.19233600  0.21930000  0.25000000  1
  O  O13  1  0.21930000  0.02696400  0.75000000  1
  O  O14  1  0.26031600  0.46209800  0.03768100  1
  O  O15  1  0.79821800  0.26031600  0.53768100  1
  O  O16  1  0.44275900  0.97403600  0.75000000  1
  O  O17  1  0.46872300  0.44275900  0.25000000  1
  O  O18  1  0.97403600  0.53127700  0.25000000  1
  O  O19  1  0.02596400  0.46872300  0.75000000  1
  O  O20  1  0.53127700  0.55724100  0.75000000  1
  O  O21  1  0.55724100  0.02596400  0.25000000  1
  O  O22  1  0.26031600  0.46209800  0.46231900  1
  O  O23  1  0.79821800  0.26031600  0.96231900  1
  O  O24  1  0.46209800  0.20178200  0.96231900  1
  O  O25  1  0.53790200  0.79821800  0.46231900  1
  O  O26  1  0.20178200  0.73968400  0.46231900  1
  O  O27  1  0.73968400  0.53790200  0.96231900  1
  O  O28  1  0.73968400  0.53790200  0.53768100  1
  O  O29  1  0.20178200  0.73968400  0.03768100  1
  O  O30  1  0.53790200  0.79821800  0.03768100  1
  O  O31  1  0.46209800  0.20178200  0.53768100  1
