# generated using pymatgen
data_Bi2(PO4)3
_symmetry_space_group_name_H-M   'P 1'
_cell_length_a   8.74808346
_cell_length_b   8.74808346
_cell_length_c   24.10435035
_cell_angle_alpha   90.00000000
_cell_angle_beta   90.00000000
_cell_angle_gamma   120.00000000
_symmetry_Int_Tables_number   1
_chemical_formula_structural   Bi2(PO4)3
_chemical_formula_sum   'Bi12 P18 O72'
_cell_volume   1597.54057915
_cell_formula_units_Z   6
loop_
 _symmetry_equiv_pos_site_id
 _symmetry_equiv_pos_as_xyz
  1  'x, y, z'
loop_
 _atom_site_type_symbol
 _atom_site_label
 _atom_site_symmetry_multiplicity
 _atom_site_fract_x
 _atom_site_fract_y
 _atom_site_fract_z
 _atom_site_occupancy
  Bi  Bi0  1  0.33333333  0.66666667  0.32046967  1
  Bi  Bi1  1  0.00000000  0.00000000  0.14389700  1
  Bi  Bi2  1  0.66666667  0.33333333  0.18943633  1
  Bi  Bi3  1  0.33333333  0.66666667  0.01286367  1
  Bi  Bi4  1  0.00000000  0.00000000  0.65380300  1
  Bi  Bi5  1  0.66666667  0.33333333  0.47723033  1
  Bi  Bi6  1  0.33333333  0.66666667  0.52276967  1
  Bi  Bi7  1  0.00000000  0.00000000  0.34619700  1
  Bi  Bi8  1  0.66666667  0.33333333  0.98713633  1
  Bi  Bi9  1  0.33333333  0.66666667  0.81056367  1
  Bi  Bi10  1  0.00000000  0.00000000  0.85610300  1
  Bi  Bi11  1  0.66666667  0.33333333  0.67953033  1
  P  P12  1  0.00235867  0.70386333  0.25179033  1
  P  P13  1  0.96516200  0.33569200  0.08154300  1
  P  P14  1  0.70150467  0.99764133  0.25179033  1
  P  P15  1  0.66430800  0.62947000  0.08154300  1
  P  P16  1  0.37053000  0.03483800  0.08154300  1
  P  P17  1  0.29613667  0.29849533  0.25179033  1
  P  P18  1  0.66902533  0.03719667  0.58512367  1
  P  P19  1  0.63182867  0.66902533  0.41487633  1
  P  P20  1  0.36817133  0.33097467  0.58512367  1
  P  P21  1  0.33097467  0.96280333  0.41487633  1
  P  P22  1  0.03719667  0.36817133  0.41487633  1
  P  P23  1  0.96280333  0.63182867  0.58512367  1
  P  P24  1  0.33569200  0.37053000  0.91845700  1
  P  P25  1  0.29849533  0.00235867  0.74820967  1
  P  P26  1  0.03483800  0.66430800  0.91845700  1
  P  P27  1  0.99764133  0.29613667  0.74820967  1
  P  P28  1  0.70386333  0.70150467  0.74820967  1
  P  P29  1  0.62947000  0.96516200  0.91845700  1
  O  O30  1  0.46968033  0.57189367  0.06534667  1
  O  O31  1  0.49911400  0.38755400  0.24933100  1
  O  O32  1  0.23604667  0.14829833  0.29624033  1
  O  O33  1  0.23856033  0.43554667  0.26798667  1
  O  O34  1  0.16755267  0.94577933  0.08400233  1
  O  O35  1  0.43062000  0.18503500  0.03709300  1
  O  O36  1  0.42810633  0.89778667  0.06534667  1
  O  O37  1  0.75441500  0.56938000  0.03709300  1
  O  O38  1  0.01253800  0.78579100  0.19463300  1
  O  O39  1  0.81496500  0.24558500  0.03709300  1
  O  O40  1  0.88844000  0.50088600  0.24933100  1
  O  O41  1  0.45245767  0.10658633  0.13870033  1
  O  O42  1  0.10221333  0.53031967  0.06534667  1
  O  O43  1  0.05422067  0.22177333  0.08400233  1
  O  O44  1  0.65412867  0.54754233  0.13870033  1
  O  O45  1  0.89341367  0.34587133  0.13870033  1
  O  O46  1  0.77325300  0.98746200  0.19463300  1
  O  O47  1  0.19698633  0.76143967  0.26798667  1
  O  O48  1  0.61244600  0.11156000  0.24933100  1
  O  O49  1  0.56445333  0.80301367  0.26798667  1
  O  O50  1  0.21420900  0.22674700  0.19463300  1
  O  O51  1  0.77822667  0.83244733  0.08400233  1
  O  O52  1  0.85170167  0.08774833  0.29624033  1
  O  O53  1  0.91225167  0.76395333  0.29624033  1
  O  O54  1  0.13634700  0.90522700  0.39868000  1
  O  O55  1  0.16578067  0.72088733  0.58266433  1
  O  O56  1  0.90271333  0.48163167  0.62957367  1
  O  O57  1  0.90522700  0.76888000  0.60132000  1
  O  O58  1  0.83421933  0.27911267  0.41733567  1
  O  O59  1  0.09728667  0.51836833  0.37042633  1
  O  O60  1  0.09477300  0.23112000  0.39868000  1
  O  O61  1  0.42108167  0.90271333  0.37042633  1
  O  O62  1  0.67920467  0.11912433  0.52796633  1
  O  O63  1  0.48163167  0.57891833  0.37042633  1
  O  O64  1  0.55510667  0.83421933  0.58266433  1
  O  O65  1  0.11912433  0.43991967  0.47203367  1
  O  O66  1  0.76888000  0.86365300  0.39868000  1
  O  O67  1  0.72088733  0.55510667  0.41733567  1
  O  O68  1  0.32079533  0.88087567  0.47203367  1
  O  O69  1  0.56008033  0.67920467  0.47203367  1
  O  O70  1  0.43991967  0.32079533  0.52796633  1
  O  O71  1  0.86365300  0.09477300  0.60132000  1
  O  O72  1  0.27911267  0.44489333  0.58266433  1
  O  O73  1  0.23112000  0.13634700  0.60132000  1
  O  O74  1  0.88087567  0.56008033  0.52796633  1
  O  O75  1  0.44489333  0.16578067  0.41733567  1
  O  O76  1  0.51836833  0.42108167  0.62957367  1
  O  O77  1  0.57891833  0.09728667  0.62957367  1
  O  O78  1  0.80301367  0.23856033  0.73201333  1
  O  O79  1  0.83244733  0.05422067  0.91599767  1
  O  O80  1  0.56938000  0.81496500  0.96290700  1
  O  O81  1  0.57189367  0.10221333  0.93465333  1
  O  O82  1  0.50088600  0.61244600  0.75066900  1
  O  O83  1  0.76395333  0.85170167  0.70375967  1
  O  O84  1  0.76143967  0.56445333  0.73201333  1
  O  O85  1  0.08774833  0.23604667  0.70375967  1
  O  O86  1  0.34587133  0.45245767  0.86129967  1
  O  O87  1  0.14829833  0.91225167  0.70375967  1
  O  O88  1  0.22177333  0.16755267  0.91599767  1
  O  O89  1  0.78579100  0.77325300  0.80536700  1
  O  O90  1  0.43554667  0.19698633  0.73201333  1
  O  O91  1  0.38755400  0.88844000  0.75066900  1
  O  O92  1  0.98746200  0.21420900  0.80536700  1
  O  O93  1  0.22674700  0.01253800  0.80536700  1
  O  O94  1  0.10658633  0.65412867  0.86129967  1
  O  O95  1  0.53031967  0.42810633  0.93465333  1
  O  O96  1  0.94577933  0.77822667  0.91599767  1
  O  O97  1  0.89778667  0.46968033  0.93465333  1
  O  O98  1  0.54754233  0.89341367  0.86129967  1
  O  O99  1  0.11156000  0.49911400  0.75066900  1
  O  O100  1  0.18503500  0.75441500  0.96290700  1
  O  O101  1  0.24558500  0.43062000  0.96290700  1
