# generated using pymatgen
data_Ba5Pt2O9
_symmetry_space_group_name_H-M   'P 1'
_cell_length_a   10.34119785
_cell_length_b   10.34119785
_cell_length_c   9.03017600
_cell_angle_alpha   90.00000000
_cell_angle_beta   90.00000000
_cell_angle_gamma   120.00000000
_symmetry_Int_Tables_number   1
_chemical_formula_structural   Ba5Pt2O9
_chemical_formula_sum   'Ba15 Pt6 O27'
_cell_volume   836.31240940
_cell_formula_units_Z   3
loop_
 _symmetry_equiv_pos_site_id
 _symmetry_equiv_pos_as_xyz
  1  'x, y, z'
loop_
 _atom_site_type_symbol
 _atom_site_label
 _atom_site_symmetry_multiplicity
 _atom_site_fract_x
 _atom_site_fract_y
 _atom_site_fract_z
 _atom_site_occupancy
  Ba  Ba0  1  0.03229933  0.69674767  0.26391000  1
  Ba  Ba1  1  0.30325233  0.33555167  0.26391000  1
  Ba  Ba2  1  0.66444833  0.96770067  0.26391000  1
  Ba  Ba3  1  0.33555167  0.30325233  0.73609000  1
  Ba  Ba4  1  0.96770067  0.66444833  0.73609000  1
  Ba  Ba5  1  0.69674767  0.03229933  0.73609000  1
  Ba  Ba6  1  0.00000000  0.00000000  0.00000000  1
  Ba  Ba7  1  0.33333333  0.66666667  0.75200300  1
  Ba  Ba8  1  0.66666667  0.33333333  0.24799700  1
  Ba  Ba9  1  0.63383400  0.63383400  0.00000000  1
  Ba  Ba10  1  0.00000000  0.36616600  0.00000000  1
  Ba  Ba11  1  0.36616600  0.00000000  0.00000000  1
  Ba  Ba12  1  0.67095400  0.67095400  0.50000000  1
  Ba  Ba13  1  0.00000000  0.32904600  0.50000000  1
  Ba  Ba14  1  0.32904600  0.00000000  0.50000000  1
  Pt  Pt15  1  0.33333333  0.66666667  0.09825400  1
  Pt  Pt16  1  0.66666667  0.33333333  0.90174600  1
  Pt  Pt17  1  0.33333333  0.66666667  0.40785000  1
  Pt  Pt18  1  0.66666667  0.33333333  0.59215000  1
  Pt  Pt19  1  0.00000000  0.00000000  0.34540700  1
  Pt  Pt20  1  0.00000000  0.00000000  0.65459300  1
  O  O21  1  0.14814200  0.14814200  0.50000000  1
  O  O22  1  0.00000000  0.85185800  0.50000000  1
  O  O23  1  0.85185800  0.00000000  0.50000000  1
  O  O24  1  0.17601033  0.68253567  0.53277300  1
  O  O25  1  0.31746433  0.49347467  0.53277300  1
  O  O26  1  0.50652533  0.82398967  0.53277300  1
  O  O27  1  0.49347467  0.31746433  0.46722700  1
  O  O28  1  0.82398967  0.50652533  0.46722700  1
  O  O29  1  0.68253567  0.17601033  0.46722700  1
  O  O30  1  0.52202133  0.17251067  0.74697000  1
  O  O31  1  0.82748933  0.34951067  0.74697000  1
  O  O32  1  0.65048933  0.47797867  0.74697000  1
  O  O33  1  0.34951067  0.82748933  0.25303000  1
  O  O34  1  0.47797867  0.65048933  0.25303000  1
  O  O35  1  0.17251067  0.52202133  0.25303000  1
  O  O36  1  0.00618533  0.17396867  0.77890300  1
  O  O37  1  0.82603133  0.83221667  0.77890300  1
  O  O38  1  0.16778333  0.99381467  0.77890300  1
  O  O39  1  0.83221667  0.82603133  0.22109700  1
  O  O40  1  0.99381467  0.16778333  0.22109700  1
  O  O41  1  0.17396867  0.00618533  0.22109700  1
  O  O42  1  0.82537733  0.50993467  0.02696900  1
  O  O43  1  0.49006533  0.31544267  0.02696900  1
  O  O44  1  0.68455733  0.17462267  0.02696900  1
  O  O45  1  0.31544267  0.49006533  0.97303100  1
  O  O46  1  0.17462267  0.68455733  0.97303100  1
  O  O47  1  0.50993467  0.82537733  0.97303100  1
