# generated using pymatgen
data_B10H13
_symmetry_space_group_name_H-M   'P 1'
_cell_length_a   12.12997200
_cell_length_b   12.12997200
_cell_length_c   23.77387600
_cell_angle_alpha   90.00000000
_cell_angle_beta   90.00000000
_cell_angle_gamma   90.00000000
_symmetry_Int_Tables_number   1
_chemical_formula_structural   B10H13
_chemical_formula_sum   'B160 H208'
_cell_volume   3497.99826652
_cell_formula_units_Z   16
loop_
 _symmetry_equiv_pos_site_id
 _symmetry_equiv_pos_as_xyz
  1  'x, y, z'
loop_
 _atom_site_type_symbol
 _atom_site_label
 _atom_site_symmetry_multiplicity
 _atom_site_fract_x
 _atom_site_fract_y
 _atom_site_fract_z
 _atom_site_occupancy
  B  B0  1  0.61351550  0.25443750  0.07172450  1
  B  B1  1  0.38648450  0.74556250  0.07172450  1
  B  B2  1  0.75443750  0.38648450  0.82172450  1
  B  B3  1  0.24556250  0.61351550  0.82172450  1
  B  B4  1  0.74556250  0.88648450  0.82172450  1
  B  B5  1  0.11351550  0.24556250  0.07172450  1
  B  B6  1  0.88648450  0.75443750  0.07172450  1
  B  B7  1  0.25443750  0.11351550  0.82172450  1
  B  B8  1  0.59786950  0.36168950  0.02118650  1
  B  B9  1  0.40213050  0.63831050  0.02118650  1
  B  B10  1  0.86168950  0.40213050  0.77118650  1
  B  B11  1  0.13831050  0.59786950  0.77118650  1
  B  B12  1  0.63831050  0.90213050  0.77118650  1
  B  B13  1  0.09786950  0.13831050  0.02118650  1
  B  B14  1  0.90213050  0.86168950  0.02118650  1
  B  B15  1  0.36168950  0.09786950  0.77118650  1
  B  B16  1  0.50447050  0.30836650  0.97026450  1
  B  B17  1  0.49552950  0.69163350  0.97026450  1
  B  B18  1  0.30836650  0.99552950  0.22026450  1
  B  B19  1  0.69163350  0.00447050  0.22026450  1
  B  B20  1  0.19163350  0.49552950  0.22026450  1
  B  B21  1  0.00447050  0.19163350  0.97026450  1
  B  B22  1  0.99552950  0.80836650  0.97026450  1
  B  B23  1  0.80836650  0.50447050  0.22026450  1
  B  B24  1  0.53489100  0.15890700  0.94116000  1
  B  B25  1  0.46510900  0.84109300  0.94116000  1
  B  B26  1  0.15890700  0.96510900  0.19116000  1
  B  B27  1  0.84109300  0.03489100  0.19116000  1
  B  B28  1  0.34109300  0.46510900  0.19116000  1
  B  B29  1  0.03489100  0.34109300  0.94116000  1
  B  B30  1  0.96510900  0.65890700  0.94116000  1
  B  B31  1  0.65890700  0.53489100  0.19116000  1
  B  B32  1  0.65377250  0.09225950  0.96842550  1
  B  B33  1  0.34622750  0.90774050  0.96842550  1
  B  B34  1  0.09225950  0.84622750  0.21842550  1
  B  B35  1  0.90774050  0.15377250  0.21842550  1
  B  B36  1  0.40774050  0.34622750  0.21842550  1
  B  B37  1  0.15377250  0.40774050  0.96842550  1
  B  B38  1  0.84622750  0.59225950  0.96842550  1
  B  B39  1  0.59225950  0.65377250  0.21842550  1
  B  B40  1  0.64402100  0.10628100  0.04257900  1
  B  B41  1  0.35597900  0.89371900  0.04257900  1
  B  B42  1  0.60628100  0.35597900  0.79257900  1
  B  B43  1  0.39371900  0.64402100  0.79257900  1
  B  B44  1  0.89371900  0.85597900  0.79257900  1
  B  B45  1  0.14402100  0.39371900  0.04257900  1
  B  B46  1  0.85597900  0.60628100  0.04257900  1
  B  B47  1  0.10628100  0.14402100  0.79257900  1
  B  B48  1  0.48192000  0.29331900  0.04422600  1
  B  B49  1  0.51808000  0.70668100  0.04422600  1
  B  B50  1  0.79331900  0.51808000  0.79422600  1
  B  B51  1  0.20668100  0.48192000  0.79422600  1
  B  B52  1  0.70668100  0.01808000  0.79422600  1
  B  B53  1  0.98192000  0.20668100  0.04422600  1
  B  B54  1  0.01808000  0.79331900  0.04422600  1
  B  B55  1  0.29331900  0.98192000  0.79422600  1
  B  B56  1  0.44464550  0.18722950  0.99632550  1
  B  B57  1  0.55535450  0.81277050  0.99632550  1
  B  B58  1  0.18722950  0.05535450  0.24632550  1
  B  B59  1  0.81277050  0.94464550  0.24632550  1
  B  B60  1  0.31277050  0.55535450  0.24632550  1
  B  B61  1  0.94464550  0.31277050  0.99632550  1
  B  B62  1  0.05535450  0.68722950  0.99632550  1
  B  B63  1  0.68722950  0.44464550  0.24632550  1
  B  B64  1  0.52784200  0.06496400  0.00008700  1
  B  B65  1  0.47215800  0.93503600  0.00008700  1
  B  B66  1  0.56496400  0.47215800  0.75008700  1
  B  B67  1  0.43503600  0.52784200  0.75008700  1
  B  B68  1  0.93503600  0.97215800  0.75008700  1
  B  B69  1  0.02784200  0.43503600  0.00008700  1
  B  B70  1  0.97215800  0.56496400  0.00008700  1
  B  B71  1  0.06496400  0.02784200  0.75008700  1
  B  B72  1  0.51258800  0.15345600  0.06010200  1
  B  B73  1  0.48741200  0.84654400  0.06010200  1
  B  B74  1  0.65345600  0.48741200  0.81010200  1
  B  B75  1  0.34654400  0.51258800  0.81010200  1
  B  B76  1  0.84654400  0.98741200  0.81010200  1
  B  B77  1  0.01258800  0.34654400  0.06010200  1
  B  B78  1  0.98741200  0.65345600  0.06010200  1
  B  B79  1  0.15345600  0.01258800  0.81010200  1
  B  B80  1  0.11351550  0.75443750  0.57172450  1
  B  B81  1  0.88648450  0.24556250  0.57172450  1
  B  B82  1  0.25443750  0.88648450  0.32172450  1
  B  B83  1  0.74556250  0.11351550  0.32172450  1
  B  B84  1  0.24556250  0.38648450  0.32172450  1
  B  B85  1  0.61351550  0.74556250  0.57172450  1
  B  B86  1  0.38648450  0.25443750  0.57172450  1
  B  B87  1  0.75443750  0.61351550  0.32172450  1
  B  B88  1  0.09786950  0.86168950  0.52118650  1
  B  B89  1  0.90213050  0.13831050  0.52118650  1
  B  B90  1  0.36168950  0.90213050  0.27118650  1
  B  B91  1  0.63831050  0.09786950  0.27118650  1
  B  B92  1  0.13831050  0.40213050  0.27118650  1
  B  B93  1  0.59786950  0.63831050  0.52118650  1
  B  B94  1  0.40213050  0.36168950  0.52118650  1
  B  B95  1  0.86168950  0.59786950  0.27118650  1
  B  B96  1  0.00447050  0.80836650  0.47026450  1
  B  B97  1  0.99552950  0.19163350  0.47026450  1
  B  B98  1  0.80836650  0.49552950  0.72026450  1
  B  B99  1  0.19163350  0.50447050  0.72026450  1
  B  B100  1  0.69163350  0.99552950  0.72026450  1
  B  B101  1  0.50447050  0.69163350  0.47026450  1
  B  B102  1  0.49552950  0.30836650  0.47026450  1
  B  B103  1  0.30836650  0.00447050  0.72026450  1
  B  B104  1  0.03489100  0.65890700  0.44116000  1
  B  B105  1  0.96510900  0.34109300  0.44116000  1
  B  B106  1  0.65890700  0.46510900  0.69116000  1
  B  B107  1  0.34109300  0.53489100  0.69116000  1
  B  B108  1  0.84109300  0.96510900  0.69116000  1
  B  B109  1  0.53489100  0.84109300  0.44116000  1
  B  B110  1  0.46510900  0.15890700  0.44116000  1
  B  B111  1  0.15890700  0.03489100  0.69116000  1
  B  B112  1  0.15377250  0.59225950  0.46842550  1
  B  B113  1  0.84622750  0.40774050  0.46842550  1
  B  B114  1  0.59225950  0.34622750  0.71842550  1
  B  B115  1  0.40774050  0.65377250  0.71842550  1
  B  B116  1  0.90774050  0.84622750  0.71842550  1
  B  B117  1  0.65377250  0.90774050  0.46842550  1
  B  B118  1  0.34622750  0.09225950  0.46842550  1
  B  B119  1  0.09225950  0.15377250  0.71842550  1
  B  B120  1  0.14402100  0.60628100  0.54257900  1
  B  B121  1  0.85597900  0.39371900  0.54257900  1
  B  B122  1  0.10628100  0.85597900  0.29257900  1
  B  B123  1  0.89371900  0.14402100  0.29257900  1
  B  B124  1  0.39371900  0.35597900  0.29257900  1
  B  B125  1  0.64402100  0.89371900  0.54257900  1
  B  B126  1  0.35597900  0.10628100  0.54257900  1
  B  B127  1  0.60628100  0.64402100  0.29257900  1
  B  B128  1  0.98192000  0.79331900  0.54422600  1
  B  B129  1  0.01808000  0.20668100  0.54422600  1
  B  B130  1  0.29331900  0.01808000  0.29422600  1
  B  B131  1  0.70668100  0.98192000  0.29422600  1
  B  B132  1  0.20668100  0.51808000  0.29422600  1
  B  B133  1  0.48192000  0.70668100  0.54422600  1
  B  B134  1  0.51808000  0.29331900  0.54422600  1
  B  B135  1  0.79331900  0.48192000  0.29422600  1
  B  B136  1  0.94464550  0.68722950  0.49632550  1
  B  B137  1  0.05535450  0.31277050  0.49632550  1
  B  B138  1  0.68722950  0.55535450  0.74632550  1
  B  B139  1  0.31277050  0.44464550  0.74632550  1
  B  B140  1  0.81277050  0.05535450  0.74632550  1
  B  B141  1  0.44464550  0.81277050  0.49632550  1
  B  B142  1  0.55535450  0.18722950  0.49632550  1
  B  B143  1  0.18722950  0.94464550  0.74632550  1
  B  B144  1  0.02784200  0.56496400  0.50008700  1
  B  B145  1  0.97215800  0.43503600  0.50008700  1
  B  B146  1  0.06496400  0.97215800  0.25008700  1
  B  B147  1  0.93503600  0.02784200  0.25008700  1
  B  B148  1  0.43503600  0.47215800  0.25008700  1
  B  B149  1  0.52784200  0.93503600  0.50008700  1
  B  B150  1  0.47215800  0.06496400  0.50008700  1
  B  B151  1  0.56496400  0.52784200  0.25008700  1
  B  B152  1  0.01258800  0.65345600  0.56010200  1
  B  B153  1  0.98741200  0.34654400  0.56010200  1
  B  B154  1  0.15345600  0.98741200  0.31010200  1
  B  B155  1  0.84654400  0.01258800  0.31010200  1
  B  B156  1  0.34654400  0.48741200  0.31010200  1
  B  B157  1  0.51258800  0.84654400  0.56010200  1
  B  B158  1  0.48741200  0.15345600  0.56010200  1
  B  B159  1  0.65345600  0.51258800  0.31010200  1
  H  H160  1  0.68497650  0.30031450  0.03654550  1
  H  H161  1  0.31502350  0.69968550  0.03654550  1
  H  H162  1  0.80031450  0.31502350  0.78654550  1
  H  H163  1  0.19968550  0.68497650  0.78654550  1
  H  H164  1  0.69968550  0.81502350  0.78654550  1
  H  H165  1  0.18497650  0.19968550  0.03654550  1
  H  H166  1  0.81502350  0.80031450  0.03654550  1
  H  H167  1  0.30031450  0.18497650  0.78654550  1
  H  H168  1  0.60973100  0.33658400  0.96638400  1
  H  H169  1  0.39026900  0.66341600  0.96638400  1
  H  H170  1  0.33658400  0.89026900  0.21638400  1
  H  H171  1  0.66341600  0.10973100  0.21638400  1
  H  H172  1  0.16341600  0.39026900  0.21638400  1
  H  H173  1  0.10973100  0.16341600  0.96638400  1
  H  H174  1  0.89026900  0.83658400  0.96638400  1
  H  H175  1  0.83658400  0.60973100  0.21638400  1
  H  H176  1  0.64100450  0.18227050  0.93606650  1
  H  H177  1  0.35899550  0.81772950  0.93606650  1
  H  H178  1  0.18227050  0.85899550  0.18606650  1
  H  H179  1  0.81772950  0.14100450  0.18606650  1
  H  H180  1  0.31772950  0.35899550  0.18606650  1
  H  H181  1  0.14100450  0.31772950  0.93606650  1
  H  H182  1  0.85899550  0.68227050  0.93606650  1
  H  H183  1  0.68227050  0.64100450  0.18606650  1
  H  H184  1  0.71592700  0.14684500  0.00621000  1
  H  H185  1  0.28407300  0.85315500  0.00621000  1
  H  H186  1  0.64684500  0.28407300  0.75621000  1
  H  H187  1  0.35315500  0.71592700  0.75621000  1
  H  H188  1  0.85315500  0.78407300  0.75621000  1
  H  H189  1  0.21592700  0.35315500  0.00621000  1
  H  H190  1  0.78407300  0.64684500  0.00621000  1
  H  H191  1  0.14684500  0.21592700  0.75621000  1
  H  H192  1  0.64934550  0.27604550  0.11716050  1
  H  H193  1  0.35065450  0.72395450  0.11716050  1
  H  H194  1  0.77604550  0.35065450  0.86716050  1
  H  H195  1  0.22395450  0.64934550  0.86716050  1
  H  H196  1  0.72395450  0.85065450  0.86716050  1
  H  H197  1  0.14934550  0.22395450  0.11716050  1
  H  H198  1  0.85065450  0.77604550  0.11716050  1
  H  H199  1  0.27604550  0.14934550  0.86716050  1
  H  H200  1  0.62486050  0.45539450  0.02638250  1
  H  H201  1  0.37513950  0.54460550  0.02638250  1
  H  H202  1  0.95539450  0.37513950  0.77638250  1
  H  H203  1  0.04460550  0.62486050  0.77638250  1
  H  H204  1  0.54460550  0.87513950  0.77638250  1
  H  H205  1  0.41311900  0.34178400  0.07015600  1
  H  H206  1  0.12486050  0.04460550  0.02638250  1
  H  H207  1  0.45539450  0.12486050  0.77638250  1
  H  H208  1  0.45823600  0.37027900  0.93924600  1
  H  H209  1  0.54176400  0.62972100  0.93924600  1
  H  H210  1  0.37027900  0.04176400  0.18924600  1
  H  H211  1  0.62972100  0.95823600  0.18924600  1
  H  H212  1  0.12972100  0.54176400  0.18924600  1
  H  H213  1  0.95823600  0.12972100  0.93924600  1
  H  H214  1  0.04176400  0.87027900  0.93924600  1
  H  H215  1  0.87027900  0.45823600  0.18924600  1
  H  H216  1  0.50546550  0.14095950  0.89423750  1
  H  H217  1  0.49453450  0.85904050  0.89423750  1
  H  H218  1  0.14095950  0.99453450  0.14423750  1
  H  H219  1  0.85904050  0.00546550  0.14423750  1
  H  H220  1  0.35904050  0.49453450  0.14423750  1
  H  H221  1  0.00546550  0.35904050  0.89423750  1
  H  H222  1  0.99453450  0.64095950  0.89423750  1
  H  H223  1  0.64095950  0.50546550  0.14423750  1
  H  H224  1  0.71499750  0.03349250  0.94325350  1
  H  H225  1  0.28500250  0.96650750  0.94325350  1
  H  H226  1  0.03349250  0.78500250  0.19325350  1
  H  H227  1  0.96650750  0.21499750  0.19325350  1
  H  H228  1  0.46650750  0.28500250  0.19325350  1
  H  H229  1  0.21499750  0.46650750  0.94325350  1
  H  H230  1  0.78500250  0.53349250  0.94325350  1
  H  H231  1  0.53349250  0.71499750  0.19325350  1
  H  H232  1  0.69694050  0.04719550  0.07217350  1
  H  H233  1  0.30305950  0.95280450  0.07217350  1
  H  H234  1  0.54719550  0.30305950  0.82217350  1
  H  H235  1  0.45280450  0.69694050  0.82217350  1
  H  H236  1  0.95280450  0.80305950  0.82217350  1
  H  H237  1  0.19694050  0.45280450  0.07217350  1
  H  H238  1  0.80305950  0.54719550  0.07217350  1
  H  H239  1  0.04719550  0.19694050  0.82217350  1
  H  H240  1  0.11516650  0.97464750  0.85220650  1
  H  H241  1  0.02535250  0.61516650  0.10220650  1
  H  H242  1  0.97464750  0.38483350  0.10220650  1
  H  H243  1  0.88483350  0.02535250  0.85220650  1
  H  H244  1  0.38483350  0.47464750  0.85220650  1
  H  H245  1  0.61516650  0.52535250  0.85220650  1
  H  H246  1  0.52535250  0.88483350  0.10220650  1
  H  H247  1  0.47464750  0.11516650  0.10220650  1
  H  H248  1  0.67707400  0.34906700  0.23453700  1
  H  H249  1  0.15093300  0.67707400  0.98453700  1
  H  H250  1  0.84906700  0.32292600  0.98453700  1
  H  H251  1  0.32292600  0.65093300  0.23453700  1
  H  H252  1  0.82292600  0.84906700  0.23453700  1
  H  H253  1  0.17707400  0.15093300  0.23453700  1
  H  H254  1  0.65093300  0.82292600  0.98453700  1
  H  H255  1  0.34906700  0.17707400  0.98453700  1
  H  H256  1  0.34178400  0.91311900  0.82015600  1
  H  H257  1  0.08688100  0.84178400  0.07015600  1
  H  H258  1  0.91311900  0.15821600  0.07015600  1
  H  H259  1  0.65821600  0.08688100  0.82015600  1
  H  H260  1  0.15821600  0.41311900  0.82015600  1
  H  H261  1  0.84178400  0.58688100  0.82015600  1
  H  H262  1  0.58688100  0.65821600  0.07015600  1
  H  H263  1  0.87513950  0.95539450  0.02638250  1
  H  H264  1  0.18497650  0.80031450  0.53654550  1
  H  H265  1  0.81502350  0.19968550  0.53654550  1
  H  H266  1  0.30031450  0.81502350  0.28654550  1
  H  H267  1  0.69968550  0.18497650  0.28654550  1
  H  H268  1  0.19968550  0.31502350  0.28654550  1
  H  H269  1  0.68497650  0.69968550  0.53654550  1
  H  H270  1  0.31502350  0.30031450  0.53654550  1
  H  H271  1  0.80031450  0.68497650  0.28654550  1
  H  H272  1  0.10973100  0.83658400  0.46638400  1
  H  H273  1  0.89026900  0.16341600  0.46638400  1
  H  H274  1  0.83658400  0.39026900  0.71638400  1
  H  H275  1  0.16341600  0.60973100  0.71638400  1
  H  H276  1  0.66341600  0.89026900  0.71638400  1
  H  H277  1  0.60973100  0.66341600  0.46638400  1
  H  H278  1  0.39026900  0.33658400  0.46638400  1
  H  H279  1  0.33658400  0.10973100  0.71638400  1
  H  H280  1  0.14100450  0.68227050  0.43606650  1
  H  H281  1  0.85899550  0.31772950  0.43606650  1
  H  H282  1  0.68227050  0.35899550  0.68606650  1
  H  H283  1  0.31772950  0.64100450  0.68606650  1
  H  H284  1  0.81772950  0.85899550  0.68606650  1
  H  H285  1  0.64100450  0.81772950  0.43606650  1
  H  H286  1  0.35899550  0.18227050  0.43606650  1
  H  H287  1  0.18227050  0.14100450  0.68606650  1
  H  H288  1  0.21592700  0.64684500  0.50621000  1
  H  H289  1  0.78407300  0.35315500  0.50621000  1
  H  H290  1  0.14684500  0.78407300  0.25621000  1
  H  H291  1  0.85315500  0.21592700  0.25621000  1
  H  H292  1  0.35315500  0.28407300  0.25621000  1
  H  H293  1  0.71592700  0.85315500  0.50621000  1
  H  H294  1  0.28407300  0.14684500  0.50621000  1
  H  H295  1  0.64684500  0.71592700  0.25621000  1
  H  H296  1  0.14934550  0.77604550  0.61716050  1
  H  H297  1  0.85065450  0.22395450  0.61716050  1
  H  H298  1  0.27604550  0.85065450  0.36716050  1
  H  H299  1  0.72395450  0.14934550  0.36716050  1
  H  H300  1  0.22395450  0.35065450  0.36716050  1
  H  H301  1  0.64934550  0.72395450  0.61716050  1
  H  H302  1  0.35065450  0.27604550  0.61716050  1
  H  H303  1  0.77604550  0.64934550  0.36716050  1
  H  H304  1  0.12486050  0.95539450  0.52638250  1
  H  H305  1  0.87513950  0.04460550  0.52638250  1
  H  H306  1  0.45539450  0.87513950  0.27638250  1
  H  H307  1  0.54460550  0.12486050  0.27638250  1
  H  H308  1  0.04460550  0.37513950  0.27638250  1
  H  H309  1  0.91311900  0.84178400  0.57015600  1
  H  H310  1  0.62486050  0.54460550  0.52638250  1
  H  H311  1  0.95539450  0.62486050  0.27638250  1
  H  H312  1  0.95823600  0.87027900  0.43924600  1
  H  H313  1  0.04176400  0.12972100  0.43924600  1
  H  H314  1  0.87027900  0.54176400  0.68924600  1
  H  H315  1  0.12972100  0.45823600  0.68924600  1
  H  H316  1  0.62972100  0.04176400  0.68924600  1
  H  H317  1  0.45823600  0.62972100  0.43924600  1
  H  H318  1  0.54176400  0.37027900  0.43924600  1
  H  H319  1  0.37027900  0.95823600  0.68924600  1
  H  H320  1  0.00546550  0.64095950  0.39423750  1
  H  H321  1  0.99453450  0.35904050  0.39423750  1
  H  H322  1  0.64095950  0.49453450  0.64423750  1
  H  H323  1  0.35904050  0.50546550  0.64423750  1
  H  H324  1  0.85904050  0.99453450  0.64423750  1
  H  H325  1  0.50546550  0.85904050  0.39423750  1
  H  H326  1  0.49453450  0.14095950  0.39423750  1
  H  H327  1  0.14095950  0.00546550  0.64423750  1
  H  H328  1  0.21499750  0.53349250  0.44325350  1
  H  H329  1  0.78500250  0.46650750  0.44325350  1
  H  H330  1  0.53349250  0.28500250  0.69325350  1
  H  H331  1  0.46650750  0.71499750  0.69325350  1
  H  H332  1  0.96650750  0.78500250  0.69325350  1
  H  H333  1  0.71499750  0.96650750  0.44325350  1
  H  H334  1  0.28500250  0.03349250  0.44325350  1
  H  H335  1  0.03349250  0.21499750  0.69325350  1
  H  H336  1  0.19694050  0.54719550  0.57217350  1
  H  H337  1  0.80305950  0.45280450  0.57217350  1
  H  H338  1  0.04719550  0.80305950  0.32217350  1
  H  H339  1  0.95280450  0.19694050  0.32217350  1
  H  H340  1  0.45280450  0.30305950  0.32217350  1
  H  H341  1  0.69694050  0.95280450  0.57217350  1
  H  H342  1  0.30305950  0.04719550  0.57217350  1
  H  H343  1  0.54719550  0.69694050  0.32217350  1
  H  H344  1  0.61516650  0.47464750  0.35220650  1
  H  H345  1  0.52535250  0.11516650  0.60220650  1
  H  H346  1  0.47464750  0.88483350  0.60220650  1
  H  H347  1  0.38483350  0.52535250  0.35220650  1
  H  H348  1  0.88483350  0.97464750  0.35220650  1
  H  H349  1  0.11516650  0.02535250  0.35220650  1
  H  H350  1  0.02535250  0.38483350  0.60220650  1
  H  H351  1  0.97464750  0.61516650  0.60220650  1
  H  H352  1  0.17707400  0.84906700  0.73453700  1
  H  H353  1  0.65093300  0.17707400  0.48453700  1
  H  H354  1  0.34906700  0.82292600  0.48453700  1
  H  H355  1  0.82292600  0.15093300  0.73453700  1
  H  H356  1  0.32292600  0.34906700  0.73453700  1
  H  H357  1  0.67707400  0.65093300  0.73453700  1
  H  H358  1  0.15093300  0.32292600  0.48453700  1
  H  H359  1  0.84906700  0.67707400  0.48453700  1
  H  H360  1  0.84178400  0.41311900  0.32015600  1
  H  H361  1  0.58688100  0.34178400  0.57015600  1
  H  H362  1  0.41311900  0.65821600  0.57015600  1
  H  H363  1  0.15821600  0.58688100  0.32015600  1
  H  H364  1  0.65821600  0.91311900  0.32015600  1
  H  H365  1  0.34178400  0.08688100  0.32015600  1
  H  H366  1  0.08688100  0.15821600  0.57015600  1
  H  H367  1  0.37513950  0.45539450  0.52638250  1
