# generated using pymatgen
data_SrNb2Bi2O9
_symmetry_space_group_name_H-M   'P 1'
_cell_length_a   5.64761400
_cell_length_b   25.40471200
_cell_length_c   5.68848400
_cell_angle_alpha   90.00000000
_cell_angle_beta   90.00000000
_cell_angle_gamma   90.00000000
_symmetry_Int_Tables_number   1
_chemical_formula_structural   SrNb2Bi2O9
_chemical_formula_sum   'Sr4 Nb8 Bi8 O36'
_cell_volume   816.16097110
_cell_formula_units_Z   4
loop_
 _symmetry_equiv_pos_site_id
 _symmetry_equiv_pos_as_xyz
  1  'x, y, z'
loop_
 _atom_site_type_symbol
 _atom_site_label
 _atom_site_symmetry_multiplicity
 _atom_site_fract_x
 _atom_site_fract_y
 _atom_site_fract_z
 _atom_site_occupancy
  Sr  Sr0  1  0.25159700  0.00000000  0.98342300  1
  Sr  Sr1  1  0.74840300  0.00000000  0.48342300  1
  Sr  Sr2  1  0.75159700  0.50000000  0.98342300  1
  Sr  Sr3  1  0.24840300  0.50000000  0.48342300  1
  Nb  Nb4  1  0.75128800  0.91731500  0.97532100  1
  Nb  Nb5  1  0.24871200  0.91731500  0.47532100  1
  Nb  Nb6  1  0.25128800  0.58268500  0.97532100  1
  Nb  Nb7  1  0.74871200  0.58268500  0.47532100  1
  Nb  Nb8  1  0.25128800  0.41731500  0.97532100  1
  Nb  Nb9  1  0.74871200  0.41731500  0.47532100  1
  Nb  Nb10  1  0.75128800  0.08268500  0.97532100  1
  Nb  Nb11  1  0.24871200  0.08268500  0.47532100  1
  Bi  Bi12  1  0.28622100  0.79974400  0.06559100  1
  Bi  Bi13  1  0.21377900  0.70025600  0.56559100  1
  Bi  Bi14  1  0.71377900  0.79974400  0.56559100  1
  Bi  Bi15  1  0.78622100  0.70025600  0.06559100  1
  Bi  Bi16  1  0.78622100  0.29974400  0.06559100  1
  Bi  Bi17  1  0.71377900  0.20025600  0.56559100  1
  Bi  Bi18  1  0.21377900  0.29974400  0.56559100  1
  Bi  Bi19  1  0.28622100  0.20025600  0.06559100  1
  O  O20  1  0.47582350  0.93468550  0.71603700  1
  O  O21  1  0.02417650  0.56531450  0.21603700  1
  O  O22  1  0.52417650  0.93468550  0.21603700  1
  O  O23  1  0.97582350  0.56531450  0.71603700  1
  O  O24  1  0.97104450  0.91373150  0.66906000  1
  O  O25  1  0.52895550  0.58626850  0.16906000  1
  O  O26  1  0.02895550  0.91373150  0.16906000  1
  O  O27  1  0.47104450  0.58626850  0.66906000  1
  O  O28  1  0.97839750  0.75066150  0.77440800  1
  O  O29  1  0.52160250  0.74933850  0.27440800  1
  O  O30  1  0.19354300  0.00000000  0.43403300  1
  O  O31  1  0.80645700  0.00000000  0.93403300  1
  O  O32  1  0.33107950  0.84490750  0.43785500  1
  O  O33  1  0.16892050  0.65509250  0.93785500  1
  O  O34  1  0.66892050  0.84490750  0.93785500  1
  O  O35  1  0.83107950  0.65509250  0.43785500  1
  O  O36  1  0.47839750  0.74933850  0.77440800  1
  O  O37  1  0.02160250  0.75066150  0.27440800  1
  O  O38  1  0.97582350  0.43468550  0.71603700  1
  O  O39  1  0.52417650  0.06531450  0.21603700  1
  O  O40  1  0.02417650  0.43468550  0.21603700  1
  O  O41  1  0.47582350  0.06531450  0.71603700  1
  O  O42  1  0.47104450  0.41373150  0.66906000  1
  O  O43  1  0.02895550  0.08626850  0.16906000  1
  O  O44  1  0.52895550  0.41373150  0.16906000  1
  O  O45  1  0.97104450  0.08626850  0.66906000  1
  O  O46  1  0.47839750  0.25066150  0.77440800  1
  O  O47  1  0.02160250  0.24933850  0.27440800  1
  O  O48  1  0.69354300  0.50000000  0.43403300  1
  O  O49  1  0.30645700  0.50000000  0.93403300  1
  O  O50  1  0.83107950  0.34490750  0.43785500  1
  O  O51  1  0.66892050  0.15509250  0.93785500  1
  O  O52  1  0.16892050  0.34490750  0.93785500  1
  O  O53  1  0.33107950  0.15509250  0.43785500  1
  O  O54  1  0.97839750  0.24933850  0.77440800  1
  O  O55  1  0.52160250  0.25066150  0.27440800  1
