# generated using pymatgen
data_Na2Gd2Ti3O10
_symmetry_space_group_name_H-M   'P 1'
_cell_length_a   3.83156600
_cell_length_b   3.83156600
_cell_length_c   28.61499600
_cell_angle_alpha   90.00000000
_cell_angle_beta   90.00000000
_cell_angle_gamma   90.00000000
_symmetry_Int_Tables_number   1
_chemical_formula_structural   Na2Gd2Ti3O10
_chemical_formula_sum   'Na4 Gd4 Ti6 O20'
_cell_volume   420.09383790
_cell_formula_units_Z   2
loop_
 _symmetry_equiv_pos_site_id
 _symmetry_equiv_pos_as_xyz
  1  'x, y, z'
loop_
 _atom_site_type_symbol
 _atom_site_label
 _atom_site_symmetry_multiplicity
 _atom_site_fract_x
 _atom_site_fract_y
 _atom_site_fract_z
 _atom_site_occupancy
  Na  Na0  1  0.50000000  0.50000000  0.21206500  1
  Na  Na1  1  0.00000000  0.00000000  0.28793500  1
  Na  Na2  1  0.00000000  0.00000000  0.71206500  1
  Na  Na3  1  0.50000000  0.50000000  0.78793500  1
  Gd  Gd4  1  0.50000000  0.50000000  0.07582800  1
  Gd  Gd5  1  0.00000000  0.00000000  0.42417200  1
  Gd  Gd6  1  0.00000000  0.00000000  0.57582800  1
  Gd  Gd7  1  0.50000000  0.50000000  0.92417200  1
  Ti  Ti8  1  0.50000000  0.50000000  0.35404300  1
  Ti  Ti9  1  0.00000000  0.00000000  0.14595700  1
  Ti  Ti10  1  0.00000000  0.00000000  0.00000000  1
  Ti  Ti11  1  0.00000000  0.00000000  0.85404300  1
  Ti  Ti12  1  0.50000000  0.50000000  0.64595700  1
  Ti  Ti13  1  0.50000000  0.50000000  0.50000000  1
  O  O14  1  0.50000000  0.00000000  0.36928500  1
  O  O15  1  0.00000000  0.50000000  0.36928500  1
  O  O16  1  0.00000000  0.50000000  0.13071500  1
  O  O17  1  0.50000000  0.00000000  0.13071500  1
  O  O18  1  0.50000000  0.50000000  0.29231200  1
  O  O19  1  0.00000000  0.00000000  0.20768800  1
  O  O20  1  0.00000000  0.50000000  0.00000000  1
  O  O21  1  0.00000000  0.00000000  0.06759200  1
  O  O22  1  0.50000000  0.50000000  0.43240800  1
  O  O23  1  0.50000000  0.00000000  0.00000000  1
  O  O24  1  0.00000000  0.50000000  0.86928500  1
  O  O25  1  0.50000000  0.00000000  0.86928500  1
  O  O26  1  0.50000000  0.00000000  0.63071500  1
  O  O27  1  0.00000000  0.50000000  0.63071500  1
  O  O28  1  0.00000000  0.00000000  0.79231200  1
  O  O29  1  0.50000000  0.50000000  0.70768800  1
  O  O30  1  0.50000000  0.00000000  0.50000000  1
  O  O31  1  0.50000000  0.50000000  0.56759200  1
  O  O32  1  0.00000000  0.00000000  0.93240800  1
  O  O33  1  0.00000000  0.50000000  0.50000000  1
