# generated using pymatgen
data_BaTa2Bi2O9
_symmetry_space_group_name_H-M   'P 1'
_cell_length_a   3.96873000
_cell_length_b   3.96873000
_cell_length_c   25.26357200
_cell_angle_alpha   90.00000000
_cell_angle_beta   90.00000000
_cell_angle_gamma   90.00000000
_symmetry_Int_Tables_number   1
_chemical_formula_structural   BaTa2Bi2O9
_chemical_formula_sum   'Ba2 Ta4 Bi4 O18'
_cell_volume   397.92191988
_cell_formula_units_Z   2
loop_
 _symmetry_equiv_pos_site_id
 _symmetry_equiv_pos_as_xyz
  1  'x, y, z'
loop_
 _atom_site_type_symbol
 _atom_site_label
 _atom_site_symmetry_multiplicity
 _atom_site_fract_x
 _atom_site_fract_y
 _atom_site_fract_z
 _atom_site_occupancy
  Ba  Ba0  1  0.00000000  0.00000000  0.00000000  1
  Ba  Ba1  1  0.50000000  0.50000000  0.50000000  1
  Ta  Ta2  1  0.00000000  0.00000000  0.41199700  1
  Ta  Ta3  1  0.50000000  0.50000000  0.08800300  1
  Ta  Ta4  1  0.50000000  0.50000000  0.91199700  1
  Ta  Ta5  1  0.00000000  0.00000000  0.58800300  1
  Bi  Bi6  1  0.00000000  0.00000000  0.20134300  1
  Bi  Bi7  1  0.50000000  0.50000000  0.29865700  1
  Bi  Bi8  1  0.50000000  0.50000000  0.70134300  1
  Bi  Bi9  1  0.00000000  0.00000000  0.79865700  1
  O  O10  1  0.50000000  0.00000000  0.08079400  1
  O  O11  1  0.00000000  0.50000000  0.08079400  1
  O  O12  1  0.00000000  0.50000000  0.41920600  1
  O  O13  1  0.50000000  0.00000000  0.41920600  1
  O  O14  1  0.00000000  0.50000000  0.25000000  1
  O  O15  1  0.50000000  0.50000000  0.00000000  1
  O  O16  1  0.00000000  0.00000000  0.33720400  1
  O  O17  1  0.50000000  0.50000000  0.16279600  1
  O  O18  1  0.50000000  0.00000000  0.25000000  1
  O  O19  1  0.00000000  0.50000000  0.58079400  1
  O  O20  1  0.50000000  0.00000000  0.58079400  1
  O  O21  1  0.50000000  0.00000000  0.91920600  1
  O  O22  1  0.00000000  0.50000000  0.91920600  1
  O  O23  1  0.50000000  0.00000000  0.75000000  1
  O  O24  1  0.00000000  0.00000000  0.50000000  1
  O  O25  1  0.50000000  0.50000000  0.83720400  1
  O  O26  1  0.00000000  0.00000000  0.66279600  1
  O  O27  1  0.00000000  0.50000000  0.75000000  1
