# generated using pymatgen
data_Ba5(GaS4)2
_symmetry_space_group_name_H-M   'P 1'
_cell_length_a   12.28189200
_cell_length_b   22.76651000
_cell_length_c   12.02954700
_cell_angle_alpha   90.00000000
_cell_angle_beta   90.00000000
_cell_angle_gamma   90.00000000
_symmetry_Int_Tables_number   1
_chemical_formula_structural   Ba5(GaS4)2
_chemical_formula_sum   'Ba40 Ga16 S64'
_cell_volume   3363.65161299
_cell_formula_units_Z   8
loop_
 _symmetry_equiv_pos_site_id
 _symmetry_equiv_pos_as_xyz
  1  'x, y, z'
loop_
 _atom_site_type_symbol
 _atom_site_label
 _atom_site_symmetry_multiplicity
 _atom_site_fract_x
 _atom_site_fract_y
 _atom_site_fract_z
 _atom_site_occupancy
  Ba  Ba0  1  0.74281900  0.25000000  0.75000000  1
  Ba  Ba1  1  0.25718100  0.25000000  0.25000000  1
  Ba  Ba2  1  0.75718100  0.25000000  0.25000000  1
  Ba  Ba3  1  0.24281900  0.25000000  0.75000000  1
  Ba  Ba4  1  0.83813700  0.09781400  0.50502000  1
  Ba  Ba5  1  0.16186300  0.40218600  0.00502000  1
  Ba  Ba6  1  0.83813700  0.40218600  0.99498000  1
  Ba  Ba7  1  0.16186300  0.09781400  0.49498000  1
  Ba  Ba8  1  0.66186300  0.40218600  0.49498000  1
  Ba  Ba9  1  0.33813700  0.09781400  0.99498000  1
  Ba  Ba10  1  0.66186300  0.09781400  0.00502000  1
  Ba  Ba11  1  0.33813700  0.40218600  0.50502000  1
  Ba  Ba12  1  0.50441250  0.10145650  0.34041800  1
  Ba  Ba13  1  0.49558750  0.39854350  0.84041800  1
  Ba  Ba14  1  0.50441250  0.39854350  0.15958200  1
  Ba  Ba15  1  0.49558750  0.10145650  0.65958200  1
  Ba  Ba16  1  0.99558750  0.39854350  0.65958200  1
  Ba  Ba17  1  0.00441250  0.10145650  0.15958200  1
  Ba  Ba18  1  0.99558750  0.10145650  0.84041800  1
  Ba  Ba19  1  0.00441250  0.39854350  0.34041800  1
  Ba  Ba20  1  0.24281900  0.75000000  0.75000000  1
  Ba  Ba21  1  0.75718100  0.75000000  0.25000000  1
  Ba  Ba22  1  0.25718100  0.75000000  0.25000000  1
  Ba  Ba23  1  0.74281900  0.75000000  0.75000000  1
  Ba  Ba24  1  0.33813700  0.59781400  0.50502000  1
  Ba  Ba25  1  0.66186300  0.90218600  0.00502000  1
  Ba  Ba26  1  0.33813700  0.90218600  0.99498000  1
  Ba  Ba27  1  0.66186300  0.59781400  0.49498000  1
  Ba  Ba28  1  0.16186300  0.90218600  0.49498000  1
  Ba  Ba29  1  0.83813700  0.59781400  0.99498000  1
  Ba  Ba30  1  0.16186300  0.59781400  0.00502000  1
  Ba  Ba31  1  0.83813700  0.90218600  0.50502000  1
  Ba  Ba32  1  0.00441250  0.60145650  0.34041800  1
  Ba  Ba33  1  0.99558750  0.89854350  0.84041800  1
  Ba  Ba34  1  0.00441250  0.89854350  0.15958200  1
  Ba  Ba35  1  0.99558750  0.60145650  0.65958200  1
  Ba  Ba36  1  0.49558750  0.89854350  0.65958200  1
  Ba  Ba37  1  0.50441250  0.60145650  0.15958200  1
  Ba  Ba38  1  0.49558750  0.60145650  0.84041800  1
  Ba  Ba39  1  0.50441250  0.89854350  0.34041800  1
  Ga  Ga40  1  0.00000000  0.24979800  0.50000000  1
  Ga  Ga41  1  0.00000000  0.25020200  0.00000000  1
  Ga  Ga42  1  0.50000000  0.25020200  0.50000000  1
  Ga  Ga43  1  0.50000000  0.24979800  0.00000000  1
  Ga  Ga44  1  0.81253100  0.00000000  0.23252500  1
  Ga  Ga45  1  0.68746900  0.00000000  0.73252500  1
  Ga  Ga46  1  0.31253100  0.00000000  0.26747500  1
  Ga  Ga47  1  0.18746900  0.00000000  0.76747500  1
  Ga  Ga48  1  0.50000000  0.74979800  0.50000000  1
  Ga  Ga49  1  0.50000000  0.75020200  0.00000000  1
  Ga  Ga50  1  0.00000000  0.75020200  0.50000000  1
  Ga  Ga51  1  0.00000000  0.74979800  0.00000000  1
  Ga  Ga52  1  0.31253100  0.50000000  0.23252500  1
  Ga  Ga53  1  0.18746900  0.50000000  0.73252500  1
  Ga  Ga54  1  0.81253100  0.50000000  0.26747500  1
  Ga  Ga55  1  0.68746900  0.50000000  0.76747500  1
  S  S56  1  0.85516100  0.00000000  0.04121600  1
  S  S57  1  0.64483900  0.00000000  0.54121600  1
  S  S58  1  0.35516100  0.00000000  0.45878400  1
  S  S59  1  0.14483900  0.00000000  0.95878400  1
  S  S60  1  0.75578450  0.40823050  0.74192200  1
  S  S61  1  0.24421550  0.09176950  0.24192200  1
  S  S62  1  0.75578450  0.09176950  0.75807800  1
  S  S63  1  0.24421550  0.40823050  0.25807800  1
  S  S64  1  0.74421550  0.09176950  0.25807800  1
  S  S65  1  0.25578450  0.40823050  0.75807800  1
  S  S66  1  0.74421550  0.40823050  0.24192200  1
  S  S67  1  0.25578450  0.09176950  0.74192200  1
  S  S68  1  0.85270150  0.18797950  0.00341900  1
  S  S69  1  0.14729850  0.31202050  0.50341900  1
  S  S70  1  0.96918500  0.00000000  0.34813900  1
  S  S71  1  0.85270150  0.31202050  0.49658100  1
  S  S72  1  0.64729850  0.31202050  0.99658100  1
  S  S73  1  0.35270150  0.18797950  0.49658100  1
  S  S74  1  0.64729850  0.18797950  0.50341900  1
  S  S75  1  0.35270150  0.31202050  0.00341900  1
  S  S76  1  0.00038800  0.18685400  0.35218600  1
  S  S77  1  0.99961200  0.31314600  0.85218600  1
  S  S78  1  0.00038800  0.31314600  0.14781400  1
  S  S79  1  0.99961200  0.18685400  0.64781400  1
  S  S80  1  0.49961200  0.31314600  0.64781400  1
  S  S81  1  0.50038800  0.18685400  0.14781400  1
  S  S82  1  0.49961200  0.18685400  0.85218600  1
  S  S83  1  0.50038800  0.31314600  0.35218600  1
  S  S84  1  0.03081500  0.00000000  0.65186100  1
  S  S85  1  0.46918500  0.00000000  0.15186100  1
  S  S86  1  0.53081500  0.00000000  0.84813900  1
  S  S87  1  0.14729850  0.18797950  0.99658100  1
  S  S88  1  0.35516100  0.50000000  0.04121600  1
  S  S89  1  0.14483900  0.50000000  0.54121600  1
  S  S90  1  0.85516100  0.50000000  0.45878400  1
  S  S91  1  0.64483900  0.50000000  0.95878400  1
  S  S92  1  0.25578450  0.90823050  0.74192200  1
  S  S93  1  0.74421550  0.59176950  0.24192200  1
  S  S94  1  0.25578450  0.59176950  0.75807800  1
  S  S95  1  0.74421550  0.90823050  0.25807800  1
  S  S96  1  0.24421550  0.59176950  0.25807800  1
  S  S97  1  0.75578450  0.90823050  0.75807800  1
  S  S98  1  0.24421550  0.90823050  0.24192200  1
  S  S99  1  0.75578450  0.59176950  0.74192200  1
  S  S100  1  0.35270150  0.68797950  0.00341900  1
  S  S101  1  0.64729850  0.81202050  0.50341900  1
  S  S102  1  0.46918500  0.50000000  0.34813900  1
  S  S103  1  0.35270150  0.81202050  0.49658100  1
  S  S104  1  0.14729850  0.81202050  0.99658100  1
  S  S105  1  0.85270150  0.68797950  0.49658100  1
  S  S106  1  0.14729850  0.68797950  0.50341900  1
  S  S107  1  0.85270150  0.81202050  0.00341900  1
  S  S108  1  0.50038800  0.68685400  0.35218600  1
  S  S109  1  0.49961200  0.81314600  0.85218600  1
  S  S110  1  0.50038800  0.81314600  0.14781400  1
  S  S111  1  0.49961200  0.68685400  0.64781400  1
  S  S112  1  0.99961200  0.81314600  0.64781400  1
  S  S113  1  0.00038800  0.68685400  0.14781400  1
  S  S114  1  0.99961200  0.68685400  0.85218600  1
  S  S115  1  0.00038800  0.81314600  0.35218600  1
  S  S116  1  0.53081500  0.50000000  0.65186100  1
  S  S117  1  0.96918500  0.50000000  0.15186100  1
  S  S118  1  0.03081500  0.50000000  0.84813900  1
  S  S119  1  0.64729850  0.68797950  0.99658100  1
