# generated using pymatgen
data_Na3H5(CO4)2
_symmetry_space_group_name_H-M   'P 1'
_cell_length_a   20.39125400
_cell_length_b   3.57124600
_cell_length_c   10.43678294
_cell_angle_alpha   90.00000000
_cell_angle_beta   106.81641799
_cell_angle_gamma   90.00000000
_symmetry_Int_Tables_number   1
_chemical_formula_structural   Na3H5(CO4)2
_chemical_formula_sum   'Na12 H20 C8 O32'
_cell_volume   727.52792023
_cell_formula_units_Z   4
loop_
 _symmetry_equiv_pos_site_id
 _symmetry_equiv_pos_as_xyz
  1  'x, y, z'
loop_
 _atom_site_type_symbol
 _atom_site_label
 _atom_site_symmetry_multiplicity
 _atom_site_fract_x
 _atom_site_fract_y
 _atom_site_fract_z
 _atom_site_occupancy
  Na  Na0  1  0.34750750  0.33868750  0.07240200  1
  Na  Na1  1  0.15249250  0.83868750  0.42759800  1
  Na  Na2  1  0.15249250  0.16131250  0.92759800  1
  Na  Na3  1  0.34750750  0.66131250  0.57240200  1
  Na  Na4  1  0.00000000  0.25326800  0.25000000  1
  Na  Na5  1  0.00000000  0.74673200  0.75000000  1
  Na  Na6  1  0.84750750  0.83868750  0.07240200  1
  Na  Na7  1  0.65249250  0.33868750  0.42759800  1
  Na  Na8  1  0.65249250  0.66131250  0.92759800  1
  Na  Na9  1  0.84750750  0.16131250  0.57240200  1
  Na  Na10  1  0.50000000  0.75326800  0.25000000  1
  Na  Na11  1  0.50000000  0.24673200  0.75000000  1
  H  H12  1  0.25995500  0.27515100  0.36287400  1
  H  H13  1  0.24004500  0.77515100  0.13712600  1
  H  H14  1  0.24004500  0.22484900  0.63712600  1
  H  H15  1  0.25995500  0.72484900  0.86287400  1
  H  H16  1  0.30873900  0.91872600  0.24260400  1
  H  H17  1  0.19126100  0.41872600  0.25739600  1
  H  H18  1  0.00000000  0.00000000  0.50000000  1
  H  H19  1  0.30873900  0.08127400  0.74260400  1
  H  H20  1  0.19126100  0.58127400  0.75739600  1
  H  H21  1  0.00000000  0.00000000  0.00000000  1
  H  H22  1  0.75995500  0.77515100  0.36287400  1
  H  H23  1  0.74004500  0.27515100  0.13712600  1
  H  H24  1  0.74004500  0.72484900  0.63712600  1
  H  H25  1  0.75995500  0.22484900  0.86287400  1
  H  H26  1  0.80873900  0.41872600  0.24260400  1
  H  H27  1  0.69126100  0.91872600  0.25739600  1
  H  H28  1  0.50000000  0.50000000  0.50000000  1
  H  H29  1  0.80873900  0.58127400  0.74260400  1
  H  H30  1  0.69126100  0.08127400  0.75739600  1
  H  H31  1  0.50000000  0.50000000  0.00000000  1
  C  C32  1  0.40659150  0.24005350  0.39452200  1
  C  C33  1  0.40659150  0.75994650  0.89452200  1
  C  C34  1  0.09340850  0.25994650  0.60547800  1
  C  C35  1  0.09340850  0.74005350  0.10547800  1
  C  C36  1  0.90659150  0.74005350  0.39452200  1
  C  C37  1  0.90659150  0.25994650  0.89452200  1
  C  C38  1  0.59340850  0.75994650  0.60547800  1
  C  C39  1  0.59340850  0.24005350  0.10547800  1
  O  O40  1  0.07272150  0.25282150  0.70996300  1
  O  O41  1  0.05430700  0.12058600  0.49026200  1
  O  O42  1  0.05430700  0.87941400  0.99026200  1
  O  O43  1  0.44569300  0.37941400  0.50973800  1
  O  O44  1  0.42727850  0.75282150  0.79003700  1
  O  O45  1  0.34786100  0.89547500  0.89599300  1
  O  O46  1  0.07272150  0.74717850  0.20996300  1
  O  O47  1  0.42727850  0.24717850  0.29003700  1
  O  O48  1  0.28818050  0.15904050  0.64685600  1
  O  O49  1  0.21181950  0.65904050  0.85314400  1
  O  O50  1  0.21181950  0.34095950  0.35314400  1
  O  O51  1  0.28818050  0.84095950  0.14685600  1
  O  O52  1  0.15213900  0.60452500  0.10400700  1
  O  O53  1  0.15213900  0.39547500  0.60400700  1
  O  O54  1  0.44569300  0.62058600  0.00973800  1
  O  O55  1  0.34786100  0.10452500  0.39599300  1
  O  O56  1  0.57272150  0.75282150  0.70996300  1
  O  O57  1  0.55430700  0.62058600  0.49026200  1
  O  O58  1  0.55430700  0.37941400  0.99026200  1
  O  O59  1  0.94569300  0.87941400  0.50973800  1
  O  O60  1  0.92727850  0.25282150  0.79003700  1
  O  O61  1  0.84786100  0.39547500  0.89599300  1
  O  O62  1  0.57272150  0.24717850  0.20996300  1
  O  O63  1  0.92727850  0.74717850  0.29003700  1
  O  O64  1  0.78818050  0.65904050  0.64685600  1
  O  O65  1  0.71181950  0.15904050  0.85314400  1
  O  O66  1  0.71181950  0.84095950  0.35314400  1
  O  O67  1  0.78818050  0.34095950  0.14685600  1
  O  O68  1  0.65213900  0.10452500  0.10400700  1
  O  O69  1  0.65213900  0.89547500  0.60400700  1
  O  O70  1  0.94569300  0.12058600  0.00973800  1
  O  O71  1  0.84786100  0.60452500  0.39599300  1
