# generated using pymatgen
data_KP(HO2)2
_symmetry_space_group_name_H-M   'P 1'
_cell_length_a   7.11309200
_cell_length_b   10.65449400
_cell_length_c   10.73911800
_cell_angle_alpha   90.00000000
_cell_angle_beta   90.00000000
_cell_angle_gamma   90.00000000
_symmetry_Int_Tables_number   1
_chemical_formula_structural   KP(HO2)2
_chemical_formula_sum   'K8 P8 H16 O32'
_cell_volume   813.87904982
_cell_formula_units_Z   8
loop_
 _symmetry_equiv_pos_site_id
 _symmetry_equiv_pos_as_xyz
  1  'x, y, z'
loop_
 _atom_site_type_symbol
 _atom_site_label
 _atom_site_symmetry_multiplicity
 _atom_site_fract_x
 _atom_site_fract_y
 _atom_site_fract_z
 _atom_site_occupancy
  K  K0  1  0.24543000  0.25000000  0.75000000  1
  K  K1  1  0.99543000  0.00000000  0.50000000  1
  K  K2  1  0.74543000  0.25000000  0.25000000  1
  K  K3  1  0.49543000  0.00000000  0.00000000  1
  K  K4  1  0.74543000  0.75000000  0.75000000  1
  K  K5  1  0.49543000  0.50000000  0.50000000  1
  K  K6  1  0.24543000  0.75000000  0.25000000  1
  K  K7  1  0.99543000  0.50000000  0.00000000  1
  P  P8  1  0.26496500  0.75000000  0.75000000  1
  P  P9  1  0.51496500  0.00000000  0.50000000  1
  P  P10  1  0.76496500  0.75000000  0.25000000  1
  P  P11  1  0.01496500  0.00000000  0.00000000  1
  P  P12  1  0.76496500  0.25000000  0.75000000  1
  P  P13  1  0.01496500  0.50000000  0.50000000  1
  P  P14  1  0.26496500  0.25000000  0.25000000  1
  P  P15  1  0.51496500  0.50000000  0.00000000  1
  H  H16  1  0.88110950  0.03845350  0.81646000  1
  H  H17  1  0.38110950  0.96154650  0.68354000  1
  H  H18  1  0.13110950  0.71154650  0.56646000  1
  H  H19  1  0.63110950  0.28845350  0.93354000  1
  H  H20  1  0.38110950  0.03845350  0.31646000  1
  H  H21  1  0.88110950  0.96154650  0.18354000  1
  H  H22  1  0.63110950  0.71154650  0.06646000  1
  H  H23  1  0.13110950  0.28845350  0.43354000  1
  H  H24  1  0.38110950  0.53845350  0.81646000  1
  H  H25  1  0.88110950  0.46154650  0.68354000  1
  H  H26  1  0.63110950  0.21154650  0.56646000  1
  H  H27  1  0.13110950  0.78845350  0.93354000  1
  H  H28  1  0.88110950  0.53845350  0.31646000  1
  H  H29  1  0.38110950  0.46154650  0.18354000  1
  H  H30  1  0.13110950  0.21154650  0.06646000  1
  H  H31  1  0.63110950  0.78845350  0.43354000  1
  O  O32  1  0.13011000  0.38290000  0.53140600  1
  O  O33  1  0.13011000  0.11710000  0.96859400  1
  O  O34  1  0.38011000  0.86710000  0.78140600  1
  O  O35  1  0.88011000  0.13290000  0.71859400  1
  O  O36  1  0.38013350  0.03197200  0.61422050  1
  O  O37  1  0.38013350  0.46802800  0.88577950  1
  O  O38  1  0.63013350  0.21802800  0.86422050  1
  O  O39  1  0.13013350  0.78197200  0.63577950  1
  O  O40  1  0.63011000  0.38290000  0.03140600  1
  O  O41  1  0.63011000  0.11710000  0.46859400  1
  O  O42  1  0.88011000  0.86710000  0.28140600  1
  O  O43  1  0.38011000  0.13290000  0.21859400  1
  O  O44  1  0.88013350  0.03197200  0.11422050  1
  O  O45  1  0.88013350  0.46802800  0.38577950  1
  O  O46  1  0.13013350  0.21802800  0.36422050  1
  O  O47  1  0.63013350  0.78197200  0.13577950  1
  O  O48  1  0.63011000  0.88290000  0.53140600  1
  O  O49  1  0.63011000  0.61710000  0.96859400  1
  O  O50  1  0.88011000  0.36710000  0.78140600  1
  O  O51  1  0.38011000  0.63290000  0.71859400  1
  O  O52  1  0.88013350  0.53197200  0.61422050  1
  O  O53  1  0.88013350  0.96802800  0.88577950  1
  O  O54  1  0.13013350  0.71802800  0.86422050  1
  O  O55  1  0.63013350  0.28197200  0.63577950  1
  O  O56  1  0.13011000  0.88290000  0.03140600  1
  O  O57  1  0.13011000  0.61710000  0.46859400  1
  O  O58  1  0.38011000  0.36710000  0.28140600  1
  O  O59  1  0.88011000  0.63290000  0.21859400  1
  O  O60  1  0.38013350  0.53197200  0.11422050  1
  O  O61  1  0.38013350  0.96802800  0.38577950  1
  O  O62  1  0.63013350  0.71802800  0.36422050  1
  O  O63  1  0.13013350  0.28197200  0.13577950  1
