# generated using pymatgen
data_Ca5(GaN2)2
_symmetry_space_group_name_H-M   'P 1'
_cell_length_a   4.87959600
_cell_length_b   11.20644400
_cell_length_c   14.33811400
_cell_angle_alpha   90.00000000
_cell_angle_beta   90.00000000
_cell_angle_gamma   90.00000000
_symmetry_Int_Tables_number   1
_chemical_formula_structural   Ca5(GaN2)2
_chemical_formula_sum   'Ca20 Ga8 N16'
_cell_volume   784.04993101
_cell_formula_units_Z   4
loop_
 _symmetry_equiv_pos_site_id
 _symmetry_equiv_pos_as_xyz
  1  'x, y, z'
loop_
 _atom_site_type_symbol
 _atom_site_label
 _atom_site_symmetry_multiplicity
 _atom_site_fract_x
 _atom_site_fract_y
 _atom_site_fract_z
 _atom_site_occupancy
  Ca  Ca0  1  0.50000000  0.61529800  0.82684100  1
  Ca  Ca1  1  0.50000000  0.88470200  0.32684100  1
  Ca  Ca2  1  0.00000000  0.88470200  0.17315900  1
  Ca  Ca3  1  0.50000000  0.50000000  0.50000000  1
  Ca  Ca4  1  0.50000000  0.77129900  0.58038200  1
  Ca  Ca5  1  0.00000000  0.77129900  0.91961800  1
  Ca  Ca6  1  0.50000000  0.72870100  0.08038200  1
  Ca  Ca7  1  0.00000000  0.50000000  0.00000000  1
  Ca  Ca8  1  0.00000000  0.61529800  0.67315900  1
  Ca  Ca9  1  0.00000000  0.72870100  0.41961800  1
  Ca  Ca10  1  0.00000000  0.11529800  0.82684100  1
  Ca  Ca11  1  0.00000000  0.38470200  0.32684100  1
  Ca  Ca12  1  0.50000000  0.38470200  0.17315900  1
  Ca  Ca13  1  0.00000000  0.00000000  0.50000000  1
  Ca  Ca14  1  0.00000000  0.27129900  0.58038200  1
  Ca  Ca15  1  0.50000000  0.27129900  0.91961800  1
  Ca  Ca16  1  0.00000000  0.22870100  0.08038200  1
  Ca  Ca17  1  0.50000000  0.00000000  0.00000000  1
  Ca  Ca18  1  0.50000000  0.11529800  0.67315900  1
  Ca  Ca19  1  0.50000000  0.22870100  0.41961800  1
  Ga  Ga20  1  0.00000000  0.59312800  0.19256100  1
  Ga  Ga21  1  0.50000000  0.90687200  0.80743900  1
  Ga  Ga22  1  0.50000000  0.59312800  0.30743900  1
  Ga  Ga23  1  0.00000000  0.90687200  0.69256100  1
  Ga  Ga24  1  0.50000000  0.09312800  0.19256100  1
  Ga  Ga25  1  0.00000000  0.40687200  0.80743900  1
  Ga  Ga26  1  0.00000000  0.09312800  0.30743900  1
  Ga  Ga27  1  0.50000000  0.40687200  0.69256100  1
  N  N28  1  0.50000000  0.91986900  0.15707400  1
  N  N29  1  0.50000000  0.80539600  0.91941000  1
  N  N30  1  0.00000000  0.69460400  0.08059000  1
  N  N31  1  0.00000000  0.91986900  0.34292600  1
  N  N32  1  0.50000000  0.58013100  0.65707400  1
  N  N33  1  0.50000000  0.69460400  0.41941000  1
  N  N34  1  0.00000000  0.58013100  0.84292600  1
  N  N35  1  0.00000000  0.80539600  0.58059000  1
  N  N36  1  0.00000000  0.41986900  0.15707400  1
  N  N37  1  0.00000000  0.30539600  0.91941000  1
  N  N38  1  0.50000000  0.19460400  0.08059000  1
  N  N39  1  0.50000000  0.41986900  0.34292600  1
  N  N40  1  0.00000000  0.08013100  0.65707400  1
  N  N41  1  0.00000000  0.19460400  0.41941000  1
  N  N42  1  0.50000000  0.08013100  0.84292600  1
  N  N43  1  0.50000000  0.30539600  0.58059000  1
