# generated using pymatgen
data_Sn2OF5
_symmetry_space_group_name_H-M   'P 1'
_cell_length_a   9.36005600
_cell_length_b   6.78521200
_cell_length_c   8.48248454
_cell_angle_alpha   90.00000000
_cell_angle_beta   116.68992599
_cell_angle_gamma   90.00000000
_symmetry_Int_Tables_number   1
_chemical_formula_structural   Sn2OF5
_chemical_formula_sum   'Sn8 O4 F20'
_cell_volume   481.32163267
_cell_formula_units_Z   4
loop_
 _symmetry_equiv_pos_site_id
 _symmetry_equiv_pos_as_xyz
  1  'x, y, z'
loop_
 _atom_site_type_symbol
 _atom_site_label
 _atom_site_symmetry_multiplicity
 _atom_site_fract_x
 _atom_site_fract_y
 _atom_site_fract_z
 _atom_site_occupancy
  Sn  Sn0  1  0.00000000  0.50000000  0.00000000  1
  Sn  Sn1  1  0.50000000  0.00000000  0.50000000  1
  Sn  Sn2  1  0.52585700  0.50000000  0.32302400  1
  Sn  Sn3  1  0.97414300  0.00000000  0.67697600  1
  Sn  Sn4  1  0.50000000  0.00000000  0.00000000  1
  Sn  Sn5  1  0.00000000  0.50000000  0.50000000  1
  Sn  Sn6  1  0.02585700  0.00000000  0.32302400  1
  Sn  Sn7  1  0.47414300  0.50000000  0.67697600  1
  O  O8  1  0.00000000  0.80599700  0.50000000  1
  O  O9  1  0.50000000  0.69400300  0.50000000  1
  O  O10  1  0.50000000  0.30599700  0.50000000  1
  O  O11  1  0.00000000  0.19400300  0.50000000  1
  F  F12  1  0.79619200  0.00000000  0.14720100  1
  F  F13  1  0.70380800  0.50000000  0.85279900  1
  F  F14  1  0.72344500  0.00000000  0.50167300  1
  F  F15  1  0.77655500  0.50000000  0.49832700  1
  F  F16  1  0.10234100  0.50000000  0.76046300  1
  F  F17  1  0.39765900  0.00000000  0.23953700  1
  F  F18  1  0.91792050  0.20899550  0.80301600  1
  F  F19  1  0.58207950  0.70899550  0.19698400  1
  F  F20  1  0.58207950  0.29100450  0.19698400  1
  F  F21  1  0.91792050  0.79100450  0.80301600  1
  F  F22  1  0.29619200  0.50000000  0.14720100  1
  F  F23  1  0.20380800  0.00000000  0.85279900  1
  F  F24  1  0.22344500  0.50000000  0.50167300  1
  F  F25  1  0.27655500  0.00000000  0.49832700  1
  F  F26  1  0.60234100  0.00000000  0.76046300  1
  F  F27  1  0.89765900  0.50000000  0.23953700  1
  F  F28  1  0.41792050  0.70899550  0.80301600  1
  F  F29  1  0.08207950  0.20899550  0.19698400  1
  F  F30  1  0.08207950  0.79100450  0.19698400  1
  F  F31  1  0.41792050  0.29100450  0.80301600  1
