# generated using pymatgen
data_TiO2
_symmetry_space_group_name_H-M   'P 1'
_cell_length_a   2.99710012
_cell_length_b   2.99710012
_cell_length_c   14.61087988
_cell_angle_alpha   90.00000000
_cell_angle_beta   90.00000000
_cell_angle_gamma   120.00000000
_symmetry_Int_Tables_number   1
_chemical_formula_structural   TiO2
_chemical_formula_sum   'Ti3 O6'
_cell_volume   113.66048465
_cell_formula_units_Z   3
loop_
 _symmetry_equiv_pos_site_id
 _symmetry_equiv_pos_as_xyz
  1  'x, y, z'
loop_
 _atom_site_type_symbol
 _atom_site_label
 _atom_site_symmetry_multiplicity
 _atom_site_fract_x
 _atom_site_fract_y
 _atom_site_fract_z
 _atom_site_occupancy
  Ti  Ti0  1  0.00000000  0.00000000  0.00000000  1
  Ti  Ti1  1  0.66666667  0.33333333  0.33333333  1
  Ti  Ti2  1  0.33333333  0.66666667  0.66666667  1
  O  O3  1  0.66666667  0.33333333  0.06618733  1
  O  O4  1  0.00000000  0.00000000  0.26714600  1
  O  O5  1  0.33333333  0.66666667  0.39952067  1
  O  O6  1  0.66666667  0.33333333  0.60047933  1
  O  O7  1  0.00000000  0.00000000  0.73285400  1
  O  O8  1  0.33333333  0.66666667  0.93381267  1
