# generated using pymatgen
data_La2Be2O5
_symmetry_space_group_name_H-M   'P 1'
_cell_length_a   7.59484000
_cell_length_b   7.38274000
_cell_length_c   7.45791953
_cell_angle_alpha   90.00000000
_cell_angle_beta   91.07208446
_cell_angle_gamma   90.00000000
_symmetry_Int_Tables_number   1
_chemical_formula_structural   La2Be2O5
_chemical_formula_sum   'La8 Be8 O20'
_cell_volume   418.09778331
_cell_formula_units_Z   4
loop_
 _symmetry_equiv_pos_site_id
 _symmetry_equiv_pos_as_xyz
  1  'x, y, z'
loop_
 _atom_site_type_symbol
 _atom_site_label
 _atom_site_symmetry_multiplicity
 _atom_site_fract_x
 _atom_site_fract_y
 _atom_site_fract_z
 _atom_site_occupancy
  La  La0  1  0.23601800  0.96416700  0.69403600  1
  La  La1  1  0.76398200  0.96416700  0.80596400  1
  La  La2  1  0.76398200  0.03583300  0.30596400  1
  La  La3  1  0.23601800  0.03583300  0.19403600  1
  La  La4  1  0.73601800  0.46416700  0.69403600  1
  La  La5  1  0.26398200  0.46416700  0.80596400  1
  La  La6  1  0.26398200  0.53583300  0.30596400  1
  La  La7  1  0.73601800  0.53583300  0.19403600  1
  Be  Be8  1  0.53018200  0.78220200  0.46987000  1
  Be  Be9  1  0.46981800  0.78220200  0.03013000  1
  Be  Be10  1  0.53018200  0.21779800  0.96987000  1
  Be  Be11  1  0.46981800  0.21779800  0.53013000  1
  Be  Be12  1  0.03018200  0.28220200  0.46987000  1
  Be  Be13  1  0.96981800  0.28220200  0.03013000  1
  Be  Be14  1  0.03018200  0.71779800  0.96987000  1
  Be  Be15  1  0.96981800  0.71779800  0.53013000  1
  O  O16  1  0.50000000  0.74703900  0.25000000  1
  O  O17  1  0.50000000  0.25296100  0.75000000  1
  O  O18  1  0.50000000  0.00000000  0.50000000  1
  O  O19  1  0.50000000  0.00000000  0.00000000  1
  O  O20  1  0.59995150  0.65621450  0.91599700  1
  O  O21  1  0.40004850  0.65621450  0.58400300  1
  O  O22  1  0.40004850  0.34378550  0.08400300  1
  O  O23  1  0.59995150  0.34378550  0.41599700  1
  O  O24  1  0.75000000  0.75000000  0.50000000  1
  O  O25  1  0.75000000  0.25000000  0.00000000  1
  O  O26  1  0.00000000  0.24703900  0.25000000  1
  O  O27  1  0.00000000  0.75296100  0.75000000  1
  O  O28  1  0.00000000  0.50000000  0.50000000  1
  O  O29  1  0.00000000  0.50000000  0.00000000  1
  O  O30  1  0.09995150  0.15621450  0.91599700  1
  O  O31  1  0.90004850  0.15621450  0.58400300  1
  O  O32  1  0.90004850  0.84378550  0.08400300  1
  O  O33  1  0.09995150  0.84378550  0.41599700  1
  O  O34  1  0.25000000  0.25000000  0.50000000  1
  O  O35  1  0.25000000  0.75000000  0.00000000  1
