# generated using pymatgen
data_Li2MgBr4
_symmetry_space_group_name_H-M   'P 1'
_cell_length_a   7.86059000
_cell_length_b   11.13824200
_cell_length_c   3.89053800
_cell_angle_alpha   90.00000000
_cell_angle_beta   90.00000000
_cell_angle_gamma   90.00000000
_symmetry_Int_Tables_number   1
_chemical_formula_structural   Li2MgBr4
_chemical_formula_sum   'Li4 Mg2 Br8'
_cell_volume   340.62887142
_cell_formula_units_Z   2
loop_
 _symmetry_equiv_pos_site_id
 _symmetry_equiv_pos_as_xyz
  1  'x, y, z'
loop_
 _atom_site_type_symbol
 _atom_site_label
 _atom_site_symmetry_multiplicity
 _atom_site_fract_x
 _atom_site_fract_y
 _atom_site_fract_z
 _atom_site_occupancy
  Li  Li0  1  0.25000000  0.75000000  0.50000000  1
  Li  Li1  1  0.25000000  0.25000000  0.50000000  1
  Li  Li2  1  0.75000000  0.25000000  0.50000000  1
  Li  Li3  1  0.75000000  0.75000000  0.50000000  1
  Mg  Mg4  1  0.00000000  0.00000000  0.00000000  1
  Mg  Mg5  1  0.50000000  0.50000000  0.00000000  1
  Br  Br6  1  0.76208500  0.00000000  0.50000000  1
  Br  Br7  1  0.23791500  0.00000000  0.50000000  1
  Br  Br8  1  0.50000000  0.74137000  0.00000000  1
  Br  Br9  1  0.50000000  0.25863000  0.00000000  1
  Br  Br10  1  0.26208500  0.50000000  0.50000000  1
  Br  Br11  1  0.73791500  0.50000000  0.50000000  1
  Br  Br12  1  0.00000000  0.24137000  0.00000000  1
  Br  Br13  1  0.00000000  0.75863000  0.00000000  1
