# generated using pymatgen
data_PaCl5
_symmetry_space_group_name_H-M   'P 1'
_cell_length_a   8.57012600
_cell_length_b   12.18020400
_cell_length_c   8.47692126
_cell_angle_alpha   90.00000000
_cell_angle_beta   105.08067036
_cell_angle_gamma   90.00000000
_symmetry_Int_Tables_number   1
_chemical_formula_structural   PaCl5
_chemical_formula_sum   'Pa4 Cl20'
_cell_volume   854.39636452
_cell_formula_units_Z   4
loop_
 _symmetry_equiv_pos_site_id
 _symmetry_equiv_pos_as_xyz
  1  'x, y, z'
loop_
 _atom_site_type_symbol
 _atom_site_label
 _atom_site_symmetry_multiplicity
 _atom_site_fract_x
 _atom_site_fract_y
 _atom_site_fract_z
 _atom_site_occupancy
  Pa  Pa0  1  0.50000000  0.43136200  0.75000000  1
  Pa  Pa1  1  0.50000000  0.56863800  0.25000000  1
  Pa  Pa2  1  0.00000000  0.93136200  0.75000000  1
  Pa  Pa3  1  0.00000000  0.06863800  0.25000000  1
  Cl  Cl4  1  0.50476650  0.37852850  0.43646200  1
  Cl  Cl5  1  0.49523350  0.37852850  0.06353800  1
  Cl  Cl6  1  0.50000000  0.77450300  0.25000000  1
  Cl  Cl7  1  0.50000000  0.22549700  0.75000000  1
  Cl  Cl8  1  0.69920200  0.06257800  0.16924900  1
  Cl  Cl9  1  0.30079800  0.06257800  0.33075100  1
  Cl  Cl10  1  0.30079800  0.93742200  0.83075100  1
  Cl  Cl11  1  0.69920200  0.93742200  0.66924900  1
  Cl  Cl12  1  0.50476650  0.62147150  0.93646200  1
  Cl  Cl13  1  0.49523350  0.62147150  0.56353800  1
  Cl  Cl14  1  0.00476650  0.87852850  0.43646200  1
  Cl  Cl15  1  0.99523350  0.87852850  0.06353800  1
  Cl  Cl16  1  0.00000000  0.27450300  0.25000000  1
  Cl  Cl17  1  0.00000000  0.72549700  0.75000000  1
  Cl  Cl18  1  0.19920200  0.56257800  0.16924900  1
  Cl  Cl19  1  0.80079800  0.56257800  0.33075100  1
  Cl  Cl20  1  0.80079800  0.43742200  0.83075100  1
  Cl  Cl21  1  0.19920200  0.43742200  0.66924900  1
  Cl  Cl22  1  0.00476650  0.12147150  0.93646200  1
  Cl  Cl23  1  0.99523350  0.12147150  0.56353800  1
