# generated using pymatgen
data_Hg3(SeI)2
_symmetry_space_group_name_H-M   'P 1'
_cell_length_a   9.96748600
_cell_length_b   10.07881400
_cell_length_c   20.04111800
_cell_angle_alpha   90.00000000
_cell_angle_beta   90.00000000
_cell_angle_gamma   90.00000000
_symmetry_Int_Tables_number   1
_chemical_formula_structural   Hg3(SeI)2
_chemical_formula_sum   'Hg24 Se16 I16'
_cell_volume   2013.33948110
_cell_formula_units_Z   8
loop_
 _symmetry_equiv_pos_site_id
 _symmetry_equiv_pos_as_xyz
  1  'x, y, z'
loop_
 _atom_site_type_symbol
 _atom_site_label
 _atom_site_symmetry_multiplicity
 _atom_site_fract_x
 _atom_site_fract_y
 _atom_site_fract_z
 _atom_site_occupancy
  Hg  Hg0  1  0.25000000  0.25000000  0.09875200  1
  Hg  Hg1  1  0.25000000  0.75000000  0.40124800  1
  Hg  Hg2  1  0.25000000  0.25000000  0.40124800  1
  Hg  Hg3  1  0.25000000  0.75000000  0.09875200  1
  Hg  Hg4  1  0.00488200  0.27949500  0.25000000  1
  Hg  Hg5  1  0.00488200  0.72050500  0.25000000  1
  Hg  Hg6  1  0.49511800  0.77949500  0.25000000  1
  Hg  Hg7  1  0.49511800  0.22050500  0.25000000  1
  Hg  Hg8  1  0.54986250  0.50000000  0.38326650  1
  Hg  Hg9  1  0.54986250  0.50000000  0.11673350  1
  Hg  Hg10  1  0.95013750  0.00000000  0.11673350  1
  Hg  Hg11  1  0.95013750  0.00000000  0.38326650  1
  Hg  Hg12  1  0.75000000  0.75000000  0.59875200  1
  Hg  Hg13  1  0.75000000  0.25000000  0.90124800  1
  Hg  Hg14  1  0.75000000  0.75000000  0.90124800  1
  Hg  Hg15  1  0.75000000  0.25000000  0.59875200  1
  Hg  Hg16  1  0.50488200  0.77949500  0.75000000  1
  Hg  Hg17  1  0.50488200  0.22050500  0.75000000  1
  Hg  Hg18  1  0.99511800  0.27949500  0.75000000  1
  Hg  Hg19  1  0.99511800  0.72050500  0.75000000  1
  Hg  Hg20  1  0.04986250  0.00000000  0.88326650  1
  Hg  Hg21  1  0.04986250  0.00000000  0.61673350  1
  Hg  Hg22  1  0.45013750  0.50000000  0.61673350  1
  Hg  Hg23  1  0.45013750  0.50000000  0.88326650  1
  Se  Se24  1  0.99387200  0.25258800  0.12241600  1
  Se  Se25  1  0.99387200  0.74741200  0.37758400  1
  Se  Se26  1  0.50612800  0.75258800  0.37758400  1
  Se  Se27  1  0.50612800  0.24741200  0.12241600  1
  Se  Se28  1  0.50612800  0.24741200  0.37758400  1
  Se  Se29  1  0.50612800  0.75258800  0.12241600  1
  Se  Se30  1  0.99387200  0.74741200  0.12241600  1
  Se  Se31  1  0.99387200  0.25258800  0.37758400  1
  Se  Se32  1  0.49387200  0.75258800  0.62241600  1
  Se  Se33  1  0.49387200  0.24741200  0.87758400  1
  Se  Se34  1  0.00612800  0.25258800  0.87758400  1
  Se  Se35  1  0.00612800  0.74741200  0.62241600  1
  Se  Se36  1  0.00612800  0.74741200  0.87758400  1
  Se  Se37  1  0.00612800  0.25258800  0.62241600  1
  Se  Se38  1  0.49387200  0.24741200  0.62241600  1
  Se  Se39  1  0.49387200  0.75258800  0.87758400  1
  I  I40  1  0.25448800  0.00000000  0.00077000  1
  I  I41  1  0.25448800  0.00000000  0.49923000  1
  I  I42  1  0.24551200  0.50000000  0.49923000  1
  I  I43  1  0.24551200  0.50000000  0.00077000  1
  I  I44  1  0.26583800  0.00000000  0.25000000  1
  I  I45  1  0.23416200  0.50000000  0.25000000  1
  I  I46  1  0.74706700  0.00000000  0.25000000  1
  I  I47  1  0.75293300  0.50000000  0.25000000  1
  I  I48  1  0.75448800  0.50000000  0.50077000  1
  I  I49  1  0.75448800  0.50000000  0.99923000  1
  I  I50  1  0.74551200  0.00000000  0.99923000  1
  I  I51  1  0.74551200  0.00000000  0.50077000  1
  I  I52  1  0.76583800  0.50000000  0.75000000  1
  I  I53  1  0.73416200  0.00000000  0.75000000  1
  I  I54  1  0.24706700  0.50000000  0.75000000  1
  I  I55  1  0.25293300  0.00000000  0.75000000  1
