# generated using pymatgen
data_Mg3Si2H4O9
_symmetry_space_group_name_H-M   'P 1'
_cell_length_a   5.37138760
_cell_length_b   5.37138760
_cell_length_c   7.37757500
_cell_angle_alpha   90.00000000
_cell_angle_beta   90.00000000
_cell_angle_gamma   120.00000000
_symmetry_Int_Tables_number   1
_chemical_formula_structural   Mg3Si2H4O9
_chemical_formula_sum   'Mg3 Si2 H4 O9'
_cell_volume   184.33900944
_cell_formula_units_Z   1
loop_
 _symmetry_equiv_pos_site_id
 _symmetry_equiv_pos_as_xyz
  1  'x, y, z'
loop_
 _atom_site_type_symbol
 _atom_site_label
 _atom_site_symmetry_multiplicity
 _atom_site_fract_x
 _atom_site_fract_y
 _atom_site_fract_z
 _atom_site_occupancy
  Mg  Mg0  1  0.33141950  0.00000000  0.45884200  1
  Mg  Mg1  1  0.00000000  0.33141950  0.45884200  1
  Mg  Mg2  1  0.66858050  0.66858050  0.45884200  1
  Si  Si3  1  0.33333333  0.66666667  0.07719400  1
  Si  Si4  1  0.66666667  0.33333333  0.07719400  1
  H  H5  1  0.00000000  0.00000000  0.17696300  1
  H  H6  1  0.34948100  0.34948100  0.72280200  1
  H  H7  1  0.00000000  0.65051900  0.72280200  1
  H  H8  1  0.65051900  0.00000000  0.72280200  1
  O  O9  1  0.00000000  0.00000000  0.30806300  1
  O  O10  1  0.33333333  0.66666667  0.29537300  1
  O  O11  1  0.66666667  0.33333333  0.29537300  1
  O  O12  1  0.51140950  0.00000000  0.99411500  1
  O  O13  1  0.00000000  0.51140950  0.99411500  1
  O  O14  1  0.48859050  0.48859050  0.99411500  1
  O  O15  1  0.66464750  0.00000000  0.59148800  1
  O  O16  1  0.00000000  0.66464750  0.59148800  1
  O  O17  1  0.33535250  0.33535250  0.59148800  1
