# generated using pymatgen
data_KIn5S8
_symmetry_space_group_name_H-M   'P 1'
_cell_length_a   19.28338800
_cell_length_b   3.91682400
_cell_length_c   9.35456229
_cell_angle_alpha   90.00000000
_cell_angle_beta   102.91497956
_cell_angle_gamma   90.00000000
_symmetry_Int_Tables_number   1
_chemical_formula_structural   KIn5S8
_chemical_formula_sum   'K2 In10 S16'
_cell_volume   688.67303600
_cell_formula_units_Z   2
loop_
 _symmetry_equiv_pos_site_id
 _symmetry_equiv_pos_as_xyz
  1  'x, y, z'
loop_
 _atom_site_type_symbol
 _atom_site_label
 _atom_site_symmetry_multiplicity
 _atom_site_fract_x
 _atom_site_fract_y
 _atom_site_fract_z
 _atom_site_occupancy
  K  K0  1  0.00000000  0.50000000  0.50000000  1
  K  K1  1  0.50000000  0.00000000  0.50000000  1
  In  In2  1  0.71306000  0.00000000  0.33826200  1
  In  In3  1  0.64477900  0.00000000  0.90804700  1
  In  In4  1  0.85522100  0.50000000  0.09195300  1
  In  In5  1  0.78694000  0.50000000  0.66173800  1
  In  In6  1  0.00000000  0.00000000  0.00000000  1
  In  In7  1  0.21306000  0.50000000  0.33826200  1
  In  In8  1  0.14477900  0.50000000  0.90804700  1
  In  In9  1  0.35522100  0.00000000  0.09195300  1
  In  In10  1  0.28694000  0.00000000  0.66173800  1
  In  In11  1  0.50000000  0.50000000  0.00000000  1
  S  S12  1  0.83524600  0.00000000  0.52418400  1
  S  S13  1  0.93117300  0.00000000  0.21744500  1
  S  S14  1  0.56882700  0.50000000  0.78255500  1
  S  S15  1  0.58541600  0.00000000  0.12438200  1
  S  S16  1  0.91458400  0.50000000  0.87561800  1
  S  S17  1  0.76250600  0.00000000  0.84730400  1
  S  S18  1  0.73749400  0.50000000  0.15269600  1
  S  S19  1  0.66475400  0.50000000  0.47581600  1
  S  S20  1  0.33524600  0.50000000  0.52418400  1
  S  S21  1  0.43117300  0.50000000  0.21744500  1
  S  S22  1  0.06882700  0.00000000  0.78255500  1
  S  S23  1  0.08541600  0.50000000  0.12438200  1
  S  S24  1  0.41458400  0.00000000  0.87561800  1
  S  S25  1  0.26250600  0.50000000  0.84730400  1
  S  S26  1  0.23749400  0.00000000  0.15269600  1
  S  S27  1  0.16475400  0.00000000  0.47581600  1
