# generated using pymatgen
data_Ge3(BiO3)4
_symmetry_space_group_name_H-M   'P 1'
_cell_length_a   10.66304400
_cell_length_b   10.66304400
_cell_length_c   10.66304400
_cell_angle_alpha   90.00000000
_cell_angle_beta   90.00000000
_cell_angle_gamma   90.00000000
_symmetry_Int_Tables_number   1
_chemical_formula_structural   Ge3(BiO3)4
_chemical_formula_sum   'Ge12 Bi16 O48'
_cell_volume   1212.39351265
_cell_formula_units_Z   4
loop_
 _symmetry_equiv_pos_site_id
 _symmetry_equiv_pos_as_xyz
  1  'x, y, z'
loop_
 _atom_site_type_symbol
 _atom_site_label
 _atom_site_symmetry_multiplicity
 _atom_site_fract_x
 _atom_site_fract_y
 _atom_site_fract_z
 _atom_site_occupancy
  Ge  Ge0  1  0.75000000  0.37500000  0.50000000  1
  Ge  Ge1  1  0.50000000  0.75000000  0.37500000  1
  Ge  Ge2  1  0.50000000  0.25000000  0.12500000  1
  Ge  Ge3  1  0.37500000  0.50000000  0.75000000  1
  Ge  Ge4  1  0.12500000  0.50000000  0.25000000  1
  Ge  Ge5  1  0.25000000  0.12500000  0.50000000  1
  Ge  Ge6  1  0.25000000  0.87500000  0.00000000  1
  Ge  Ge7  1  0.00000000  0.25000000  0.87500000  1
  Ge  Ge8  1  0.00000000  0.75000000  0.62500000  1
  Ge  Ge9  1  0.87500000  0.00000000  0.25000000  1
  Ge  Ge10  1  0.62500000  0.00000000  0.75000000  1
  Ge  Ge11  1  0.75000000  0.62500000  0.00000000  1
  Bi  Bi12  1  0.08676050  0.58676050  0.91323950  1
  Bi  Bi13  1  0.16323950  0.83676050  0.33676050  1
  Bi  Bi14  1  0.16323950  0.16323950  0.16323950  1
  Bi  Bi15  1  0.33676050  0.16323950  0.83676050  1
  Bi  Bi16  1  0.41323950  0.41323950  0.41323950  1
  Bi  Bi17  1  0.58676050  0.91323950  0.08676050  1
  Bi  Bi18  1  0.91323950  0.08676050  0.58676050  1
  Bi  Bi19  1  0.83676050  0.33676050  0.16323950  1
  Bi  Bi20  1  0.58676050  0.08676050  0.41323950  1
  Bi  Bi21  1  0.66323950  0.33676050  0.83676050  1
  Bi  Bi22  1  0.66323950  0.66323950  0.66323950  1
  Bi  Bi23  1  0.83676050  0.66323950  0.33676050  1
  Bi  Bi24  1  0.91323950  0.91323950  0.91323950  1
  Bi  Bi25  1  0.08676050  0.41323950  0.58676050  1
  Bi  Bi26  1  0.41323950  0.58676050  0.08676050  1
  Bi  Bi27  1  0.33676050  0.83676050  0.66323950  1
  O  O28  1  0.20961500  0.56999300  0.12480100  1
  O  O29  1  0.12480100  0.20961500  0.56999300  1
  O  O30  1  0.43000700  0.37519900  0.20961500  1
  O  O31  1  0.29038500  0.56999300  0.87519900  1
  O  O32  1  0.12480100  0.79038500  0.93000700  1
  O  O33  1  0.56999300  0.12480100  0.20961500  1
  O  O34  1  0.62519900  0.31999300  0.04038500  1
  O  O35  1  0.37480100  0.18000700  0.04038500  1
  O  O36  1  0.12519900  0.18000700  0.95961500  1
  O  O37  1  0.04038500  0.37480100  0.18000700  1
  O  O38  1  0.31999300  0.04038500  0.62519900  1
  O  O39  1  0.81999300  0.45961500  0.37480100  1
  O  O40  1  0.45961500  0.37480100  0.81999300  1
  O  O41  1  0.18000700  0.04038500  0.37480100  1
  O  O42  1  0.37480100  0.81999300  0.45961500  1
  O  O43  1  0.93000700  0.12480100  0.79038500  1
  O  O44  1  0.56999300  0.87519900  0.29038500  1
  O  O45  1  0.37519900  0.20961500  0.43000700  1
  O  O46  1  0.87519900  0.29038500  0.56999300  1
  O  O47  1  0.79038500  0.93000700  0.12480100  1
  O  O48  1  0.20961500  0.43000700  0.37519900  1
  O  O49  1  0.04038500  0.62519900  0.31999300  1
  O  O50  1  0.18000700  0.95961500  0.12519900  1
  O  O51  1  0.95961500  0.12519900  0.18000700  1
  O  O52  1  0.70961500  0.06999300  0.62480100  1
  O  O53  1  0.62480100  0.70961500  0.06999300  1
  O  O54  1  0.93000700  0.87519900  0.70961500  1
  O  O55  1  0.79038500  0.06999300  0.37519900  1
  O  O56  1  0.62480100  0.29038500  0.43000700  1
  O  O57  1  0.06999300  0.62480100  0.70961500  1
  O  O58  1  0.12519900  0.81999300  0.54038500  1
  O  O59  1  0.87480100  0.68000700  0.54038500  1
  O  O60  1  0.62519900  0.68000700  0.45961500  1
  O  O61  1  0.54038500  0.87480100  0.68000700  1
  O  O62  1  0.81999300  0.54038500  0.12519900  1
  O  O63  1  0.31999300  0.95961500  0.87480100  1
  O  O64  1  0.95961500  0.87480100  0.31999300  1
  O  O65  1  0.68000700  0.54038500  0.87480100  1
  O  O66  1  0.87480100  0.31999300  0.95961500  1
  O  O67  1  0.43000700  0.62480100  0.29038500  1
  O  O68  1  0.06999300  0.37519900  0.79038500  1
  O  O69  1  0.87519900  0.70961500  0.93000700  1
  O  O70  1  0.37519900  0.79038500  0.06999300  1
  O  O71  1  0.29038500  0.43000700  0.62480100  1
  O  O72  1  0.70961500  0.93000700  0.87519900  1
  O  O73  1  0.54038500  0.12519900  0.81999300  1
  O  O74  1  0.68000700  0.45961500  0.62519900  1
  O  O75  1  0.45961500  0.62519900  0.68000700  1
