# generated using pymatgen
data_HS3N
_symmetry_space_group_name_H-M   'P 1'
_cell_length_a   8.51050000
_cell_length_b   13.19236300
_cell_length_c   9.33723003
_cell_angle_alpha   90.00000000
_cell_angle_beta   121.18561497
_cell_angle_gamma   90.00000000
_symmetry_Int_Tables_number   1
_chemical_formula_structural   HS3N
_chemical_formula_sum   'H8 S24 N8'
_cell_volume   896.83560873
_cell_formula_units_Z   8
loop_
 _symmetry_equiv_pos_site_id
 _symmetry_equiv_pos_as_xyz
  1  'x, y, z'
loop_
 _atom_site_type_symbol
 _atom_site_label
 _atom_site_symmetry_multiplicity
 _atom_site_fract_x
 _atom_site_fract_y
 _atom_site_fract_z
 _atom_site_occupancy
  H  H0  1  0.71572700  0.53976700  0.07626000  1
  H  H1  1  0.28427300  0.53976700  0.42374000  1
  H  H2  1  0.28427300  0.46023300  0.92374000  1
  H  H3  1  0.71572700  0.46023300  0.57626000  1
  H  H4  1  0.78139000  0.92432900  0.36709000  1
  H  H5  1  0.21861000  0.92432900  0.13291000  1
  H  H6  1  0.21861000  0.07567100  0.63291000  1
  H  H7  1  0.78139000  0.07567100  0.86709000  1
  S  S8  1  0.79263000  0.59471700  0.46168700  1
  S  S9  1  0.20737000  0.59471700  0.03831300  1
  S  S10  1  0.20737000  0.40528300  0.53831300  1
  S  S11  1  0.79263000  0.40528300  0.96168700  1
  S  S12  1  0.57411900  0.69254000  0.38089200  1
  S  S13  1  0.42588100  0.69254000  0.11910800  1
  S  S14  1  0.42588100  0.30746000  0.61910800  1
  S  S15  1  0.57411900  0.30746000  0.88089200  1
  S  S16  1  0.64128900  0.60822200  0.81647800  1
  S  S17  1  0.35871100  0.60822200  0.68352200  1
  S  S18  1  0.35871100  0.39177800  0.18352200  1
  S  S19  1  0.64128900  0.39177800  0.31647800  1
  S  S20  1  0.92460500  0.15686500  0.30952400  1
  S  S21  1  0.07539500  0.15686500  0.19047600  1
  S  S22  1  0.07539500  0.84313500  0.69047600  1
  S  S23  1  0.92460500  0.84313500  0.80952400  1
  S  S24  1  0.70561900  0.05936400  0.18203100  1
  S  S25  1  0.29438100  0.05936400  0.31796900  1
  S  S26  1  0.29438100  0.94063600  0.81796900  1
  S  S27  1  0.70561900  0.94063600  0.68203100  1
  S  S28  1  0.85891800  0.85637500  0.18015000  1
  S  S29  1  0.14108200  0.85637500  0.31985000  1
  S  S30  1  0.14108200  0.14362500  0.81985000  1
  S  S31  1  0.85891800  0.14362500  0.68015000  1
  N  N32  1  0.73223100  0.52408200  0.97737800  1
  N  N33  1  0.26776900  0.52408200  0.52262200  1
  N  N34  1  0.26776900  0.47591800  0.02262200  1
  N  N35  1  0.73223100  0.47591800  0.47737800  1
  N  N36  1  0.76361500  0.93993400  0.25212400  1
  N  N37  1  0.23638500  0.93993400  0.24787600  1
  N  N38  1  0.23638500  0.06006600  0.74787600  1
  N  N39  1  0.76361500  0.06006600  0.75212400  1
