# generated using pymatgen
data_Te4O9
_symmetry_space_group_name_H-M   'P 1'
_cell_length_a   9.48603403
_cell_length_b   9.48603403
_cell_length_c   15.32134585
_cell_angle_alpha   90.00000000
_cell_angle_beta   90.00000000
_cell_angle_gamma   120.00000000
_symmetry_Int_Tables_number   1
_chemical_formula_structural   Te4O9
_chemical_formula_sum   'Te24 O54'
_cell_volume   1193.97959440
_cell_formula_units_Z   6
loop_
 _symmetry_equiv_pos_site_id
 _symmetry_equiv_pos_as_xyz
  1  'x, y, z'
loop_
 _atom_site_type_symbol
 _atom_site_label
 _atom_site_symmetry_multiplicity
 _atom_site_fract_x
 _atom_site_fract_y
 _atom_site_fract_z
 _atom_site_occupancy
  Te  Te0  1  0.35423967  0.40195933  0.24220233  1
  Te  Te1  1  0.59804067  0.95228033  0.24220233  1
  Te  Te2  1  0.04771967  0.64576033  0.24220233  1
  Te  Te3  1  0.31242700  0.93137400  0.09113100  1
  Te  Te4  1  0.06862600  0.38105300  0.09113100  1
  Te  Te5  1  0.61894700  0.68757300  0.09113100  1
  Te  Te6  1  0.33333333  0.66666667  0.85020767  1
  Te  Te7  1  0.33333333  0.66666667  0.48312567  1
  Te  Te8  1  0.02090633  0.73529267  0.57553567  1
  Te  Te9  1  0.26470733  0.28561367  0.57553567  1
  Te  Te10  1  0.71438633  0.97909367  0.57553567  1
  Te  Te11  1  0.97909367  0.26470733  0.42446433  1
  Te  Te12  1  0.73529267  0.71438633  0.42446433  1
  Te  Te13  1  0.28561367  0.02090633  0.42446433  1
  Te  Te14  1  0.00000000  0.00000000  0.18354100  1
  Te  Te15  1  0.00000000  0.00000000  0.81645900  1
  Te  Te16  1  0.68757300  0.06862600  0.90886900  1
  Te  Te17  1  0.93137400  0.61894700  0.90886900  1
  Te  Te18  1  0.38105300  0.31242700  0.90886900  1
  Te  Te19  1  0.64576033  0.59804067  0.75779767  1
  Te  Te20  1  0.40195933  0.04771967  0.75779767  1
  Te  Te21  1  0.95228033  0.35423967  0.75779767  1
  Te  Te22  1  0.66666667  0.33333333  0.51687433  1
  Te  Te23  1  0.66666667  0.33333333  0.14979233  1
  O  O24  1  0.36409800  0.92359300  0.21201400  1
  O  O25  1  0.07640700  0.44050500  0.21201400  1
  O  O26  1  0.55949500  0.63590200  0.21201400  1
  O  O27  1  0.30256867  0.40974033  0.12131933  1
  O  O28  1  0.59025967  0.89282833  0.12131933  1
  O  O29  1  0.10717167  0.69743133  0.12131933  1
  O  O30  1  0.31345633  0.82147167  0.40903367  1
  O  O31  1  0.17852833  0.49198467  0.40903367  1
  O  O32  1  0.81326833  0.51204167  0.22966867  1
  O  O33  1  0.69877333  0.18673167  0.22966867  1
  O  O34  1  0.48795833  0.30122667  0.22966867  1
  O  O35  1  0.85339833  0.82129167  0.10366467  1
  O  O36  1  0.96789333  0.14660167  0.10366467  1
  O  O37  1  0.17870833  0.03210667  0.10366467  1
  O  O38  1  0.15865133  0.64678967  0.92429967  1
  O  O39  1  0.48813833  0.84134867  0.92429967  1
  O  O40  1  0.35321033  0.51186167  0.92429967  1
  O  O41  1  0.50801533  0.68654367  0.40903367  1
  O  O42  1  0.03076467  0.25692633  0.54534733  1
  O  O43  1  0.74307367  0.77383833  0.54534733  1
  O  O44  1  0.22616167  0.96923533  0.54534733  1
  O  O45  1  0.96923533  0.74307367  0.45465267  1
  O  O46  1  0.25692633  0.22616167  0.45465267  1
  O  O47  1  0.77383833  0.03076467  0.45465267  1
  O  O48  1  0.98012300  0.15480500  0.74236700  1
  O  O49  1  0.84519500  0.82531800  0.74236700  1
  O  O50  1  0.47993500  0.84537500  0.56300200  1
  O  O51  1  0.36544000  0.52006500  0.56300200  1
  O  O52  1  0.15462500  0.63456000  0.56300200  1
  O  O53  1  0.52006500  0.15462500  0.43699800  1
  O  O54  1  0.63456000  0.47993500  0.43699800  1
  O  O55  1  0.84537500  0.36544000  0.43699800  1
  O  O56  1  0.82531800  0.98012300  0.25763300  1
  O  O57  1  0.15480500  0.17468200  0.25763300  1
  O  O58  1  0.01987700  0.84519500  0.25763300  1
  O  O59  1  0.17468200  0.01987700  0.74236700  1
  O  O60  1  0.69743133  0.59025967  0.87868067  1
  O  O61  1  0.40974033  0.10717167  0.87868067  1
  O  O62  1  0.89282833  0.30256867  0.87868067  1
  O  O63  1  0.63590200  0.07640700  0.78798600  1
  O  O64  1  0.92359300  0.55949500  0.78798600  1
  O  O65  1  0.44050500  0.36409800  0.78798600  1
  O  O66  1  0.64678967  0.48813833  0.07570033  1
  O  O67  1  0.51186167  0.15865133  0.07570033  1
  O  O68  1  0.14660167  0.17870833  0.89633533  1
  O  O69  1  0.03210667  0.85339833  0.89633533  1
  O  O70  1  0.82129167  0.96789333  0.89633533  1
  O  O71  1  0.18673167  0.48795833  0.77033133  1
  O  O72  1  0.30122667  0.81326833  0.77033133  1
  O  O73  1  0.51204167  0.69877333  0.77033133  1
  O  O74  1  0.49198467  0.31345633  0.59096633  1
  O  O75  1  0.82147167  0.50801533  0.59096633  1
  O  O76  1  0.68654367  0.17852833  0.59096633  1
  O  O77  1  0.84134867  0.35321033  0.07570033  1
