# generated using pymatgen
data_Si3(BiO3)4
_symmetry_space_group_name_H-M   'P 1'
_cell_length_a   10.42875600
_cell_length_b   10.42875600
_cell_length_c   10.42875600
_cell_angle_alpha   90.00000000
_cell_angle_beta   90.00000000
_cell_angle_gamma   90.00000000
_symmetry_Int_Tables_number   1
_chemical_formula_structural   Si3(BiO3)4
_chemical_formula_sum   'Si12 Bi16 O48'
_cell_volume   1134.22057017
_cell_formula_units_Z   4
loop_
 _symmetry_equiv_pos_site_id
 _symmetry_equiv_pos_as_xyz
  1  'x, y, z'
loop_
 _atom_site_type_symbol
 _atom_site_label
 _atom_site_symmetry_multiplicity
 _atom_site_fract_x
 _atom_site_fract_y
 _atom_site_fract_z
 _atom_site_occupancy
  Si  Si0  1  0.00000000  0.25000000  0.37500000  1
  Si  Si1  1  0.25000000  0.37500000  0.00000000  1
  Si  Si2  1  0.37500000  0.00000000  0.25000000  1
  Si  Si3  1  0.00000000  0.75000000  0.12500000  1
  Si  Si4  1  0.12500000  0.00000000  0.75000000  1
  Si  Si5  1  0.75000000  0.12500000  0.00000000  1
  Si  Si6  1  0.50000000  0.75000000  0.87500000  1
  Si  Si7  1  0.75000000  0.87500000  0.50000000  1
  Si  Si8  1  0.87500000  0.50000000  0.75000000  1
  Si  Si9  1  0.50000000  0.25000000  0.62500000  1
  Si  Si10  1  0.62500000  0.50000000  0.25000000  1
  Si  Si11  1  0.25000000  0.62500000  0.50000000  1
  Bi  Bi12  1  0.91592150  0.41592150  0.08407850  1
  Bi  Bi13  1  0.08407850  0.91592150  0.41592150  1
  Bi  Bi14  1  0.83407850  0.16592150  0.66592150  1
  Bi  Bi15  1  0.33407850  0.33407850  0.33407850  1
  Bi  Bi16  1  0.66592150  0.83407850  0.16592150  1
  Bi  Bi17  1  0.41592150  0.08407850  0.91592150  1
  Bi  Bi18  1  0.16592150  0.66592150  0.83407850  1
  Bi  Bi19  1  0.08407850  0.08407850  0.08407850  1
  Bi  Bi20  1  0.41592150  0.91592150  0.58407850  1
  Bi  Bi21  1  0.58407850  0.41592150  0.91592150  1
  Bi  Bi22  1  0.33407850  0.66592150  0.16592150  1
  Bi  Bi23  1  0.83407850  0.83407850  0.83407850  1
  Bi  Bi24  1  0.16592150  0.33407850  0.66592150  1
  Bi  Bi25  1  0.91592150  0.58407850  0.41592150  1
  Bi  Bi26  1  0.66592150  0.16592150  0.33407850  1
  Bi  Bi27  1  0.58407850  0.58407850  0.58407850  1
  O  O28  1  0.13098800  0.28943900  0.05909000  1
  O  O29  1  0.30909000  0.53943900  0.38098800  1
  O  O30  1  0.55909000  0.36901200  0.71056100  1
  O  O31  1  0.38098800  0.30909000  0.53943900  1
  O  O32  1  0.71056100  0.55909000  0.36901200  1
  O  O33  1  0.53943900  0.38098800  0.30909000  1
  O  O34  1  0.30909000  0.46056100  0.11901200  1
  O  O35  1  0.03943900  0.11901200  0.69091000  1
  O  O36  1  0.63098800  0.21056100  0.94091000  1
  O  O37  1  0.19091000  0.46056100  0.88098800  1
  O  O38  1  0.36901200  0.71056100  0.55909000  1
  O  O39  1  0.28943900  0.94091000  0.36901200  1
  O  O40  1  0.11901200  0.30909000  0.46056100  1
  O  O41  1  0.69091000  0.03943900  0.11901200  1
  O  O42  1  0.46056100  0.11901200  0.30909000  1
  O  O43  1  0.88098800  0.19091000  0.46056100  1
  O  O44  1  0.46056100  0.88098800  0.19091000  1
  O  O45  1  0.21056100  0.94091000  0.63098800  1
  O  O46  1  0.28943900  0.05909000  0.13098800  1
  O  O47  1  0.11901200  0.69091000  0.03943900  1
  O  O48  1  0.36901200  0.28943900  0.94091000  1
  O  O49  1  0.94091000  0.36901200  0.28943900  1
  O  O50  1  0.05909000  0.13098800  0.28943900  1
  O  O51  1  0.94091000  0.63098800  0.21056100  1
  O  O52  1  0.63098800  0.78943900  0.55909000  1
  O  O53  1  0.80909000  0.03943900  0.88098800  1
  O  O54  1  0.05909000  0.86901200  0.21056100  1
  O  O55  1  0.88098800  0.80909000  0.03943900  1
  O  O56  1  0.21056100  0.05909000  0.86901200  1
  O  O57  1  0.03943900  0.88098800  0.80909000  1
  O  O58  1  0.80909000  0.96056100  0.61901200  1
  O  O59  1  0.53943900  0.61901200  0.19091000  1
  O  O60  1  0.13098800  0.71056100  0.44091000  1
  O  O61  1  0.69091000  0.96056100  0.38098800  1
  O  O62  1  0.86901200  0.21056100  0.05909000  1
  O  O63  1  0.78943900  0.44091000  0.86901200  1
  O  O64  1  0.61901200  0.80909000  0.96056100  1
  O  O65  1  0.19091000  0.53943900  0.61901200  1
  O  O66  1  0.96056100  0.61901200  0.80909000  1
  O  O67  1  0.38098800  0.69091000  0.96056100  1
  O  O68  1  0.96056100  0.38098800  0.69091000  1
  O  O69  1  0.71056100  0.44091000  0.13098800  1
  O  O70  1  0.78943900  0.55909000  0.63098800  1
  O  O71  1  0.61901200  0.19091000  0.53943900  1
  O  O72  1  0.86901200  0.78943900  0.44091000  1
  O  O73  1  0.44091000  0.86901200  0.78943900  1
  O  O74  1  0.55909000  0.63098800  0.78943900  1
  O  O75  1  0.44091000  0.13098800  0.71056100  1
