# generated using pymatgen
data_KBrO3
_symmetry_space_group_name_H-M   'P 1'
_cell_length_a   6.06722564
_cell_length_b   6.06722564
_cell_length_c   8.67256892
_cell_angle_alpha   90.00000000
_cell_angle_beta   90.00000000
_cell_angle_gamma   120.00000000
_symmetry_Int_Tables_number   1
_chemical_formula_structural   KBrO3
_chemical_formula_sum   'K3 Br3 O9'
_cell_volume   276.47679364
_cell_formula_units_Z   3
loop_
 _symmetry_equiv_pos_site_id
 _symmetry_equiv_pos_as_xyz
  1  'x, y, z'
loop_
 _atom_site_type_symbol
 _atom_site_label
 _atom_site_symmetry_multiplicity
 _atom_site_fract_x
 _atom_site_fract_y
 _atom_site_fract_z
 _atom_site_occupancy
  K  K0  1  0.33333333  0.66666667  0.67129167  1
  K  K1  1  0.00000000  0.00000000  0.00462500  1
  K  K2  1  0.66666667  0.33333333  0.33795833  1
  Br  Br3  1  0.33333333  0.66666667  0.17113967  1
  Br  Br4  1  0.00000000  0.00000000  0.50447300  1
  Br  Br5  1  0.66666667  0.33333333  0.83780633  1
  O  O6  1  0.03933667  0.51966833  0.09196733  1
  O  O7  1  0.48033167  0.51966833  0.09196733  1
  O  O8  1  0.48033167  0.96066333  0.09196733  1
  O  O9  1  0.70600333  0.85300167  0.42530067  1
  O  O10  1  0.14699833  0.85300167  0.42530067  1
  O  O11  1  0.14699833  0.29399667  0.42530067  1
  O  O12  1  0.37267000  0.18633500  0.75863400  1
  O  O13  1  0.81366500  0.18633500  0.75863400  1
  O  O14  1  0.81366500  0.62733000  0.75863400  1
