# generated using pymatgen
data_Li2SnP2O7
_symmetry_space_group_name_H-M   'P 1'
_cell_length_a   7.32629400
_cell_length_b   12.69791200
_cell_length_c   13.17260106
_cell_angle_alpha   90.00000000
_cell_angle_beta   90.70106279
_cell_angle_gamma   90.00000000
_symmetry_Int_Tables_number   1
_chemical_formula_structural   Li2SnP2O7
_chemical_formula_sum   'Li16 Sn8 P16 O56'
_cell_volume   1225.33738393
_cell_formula_units_Z   8
loop_
 _symmetry_equiv_pos_site_id
 _symmetry_equiv_pos_as_xyz
  1  'x, y, z'
loop_
 _atom_site_type_symbol
 _atom_site_label
 _atom_site_symmetry_multiplicity
 _atom_site_fract_x
 _atom_site_fract_y
 _atom_site_fract_z
 _atom_site_occupancy
  Li  Li0  1  0.51582750  0.76898350  0.50539100  1
  Li  Li1  1  0.01582750  0.73101650  0.00539100  1
  Li  Li2  1  0.50000000  0.76099400  0.75000000  1
  Li  Li3  1  0.00000000  0.71871900  0.75000000  1
  Li  Li4  1  0.50000000  0.78128100  0.25000000  1
  Li  Li5  1  0.00000000  0.73900600  0.25000000  1
  Li  Li6  1  0.48417250  0.76898350  0.99460900  1
  Li  Li7  1  0.98417250  0.73101650  0.49460900  1
  Li  Li8  1  0.01582750  0.26898350  0.50539100  1
  Li  Li9  1  0.51582750  0.23101650  0.00539100  1
  Li  Li10  1  0.00000000  0.26099400  0.75000000  1
  Li  Li11  1  0.50000000  0.21871900  0.75000000  1
  Li  Li12  1  0.00000000  0.28128100  0.25000000  1
  Li  Li13  1  0.50000000  0.23900600  0.25000000  1
  Li  Li14  1  0.98417250  0.26898350  0.99460900  1
  Li  Li15  1  0.48417250  0.23101650  0.49460900  1
  Sn  Sn16  1  0.66229600  0.99499600  0.62106800  1
  Sn  Sn17  1  0.16229600  0.50500400  0.12106800  1
  Sn  Sn18  1  0.33770400  0.99499600  0.87893200  1
  Sn  Sn19  1  0.83770400  0.50500400  0.37893200  1
  Sn  Sn20  1  0.16229600  0.49499600  0.62106800  1
  Sn  Sn21  1  0.66229600  0.00500400  0.12106800  1
  Sn  Sn22  1  0.83770400  0.49499600  0.87893200  1
  Sn  Sn23  1  0.33770400  0.00500400  0.37893200  1
  P  P24  1  0.31236550  0.60519450  0.88546200  1
  P  P25  1  0.81236550  0.89480550  0.38546200  1
  P  P26  1  0.77505400  0.87942300  0.85587400  1
  P  P27  1  0.27505400  0.62057700  0.35587400  1
  P  P28  1  0.22494600  0.87942300  0.64412600  1
  P  P29  1  0.72494600  0.62057700  0.14412600  1
  P  P30  1  0.68763450  0.60519450  0.61453800  1
  P  P31  1  0.18763450  0.89480550  0.11453800  1
  P  P32  1  0.81236550  0.10519450  0.88546200  1
  P  P33  1  0.31236550  0.39480550  0.38546200  1
  P  P34  1  0.27505400  0.37942300  0.85587400  1
  P  P35  1  0.77505400  0.12057700  0.35587400  1
  P  P36  1  0.72494600  0.37942300  0.64412600  1
  P  P37  1  0.22494600  0.12057700  0.14412600  1
  P  P38  1  0.18763450  0.10519450  0.61453800  1
  P  P39  1  0.68763450  0.39480550  0.11453800  1
  O  O40  1  0.89689350  0.98467650  0.87760200  1
  O  O41  1  0.39689350  0.51532350  0.37760200  1
  O  O42  1  0.23486250  0.62115050  0.99359700  1
  O  O43  1  0.73486250  0.87884950  0.49359700  1
  O  O44  1  0.71608350  0.87399150  0.74205800  1
  O  O45  1  0.21608350  0.62600850  0.24205800  1
  O  O46  1  0.16185000  0.60969400  0.80468500  1
  O  O47  1  0.66185000  0.89030600  0.30468500  1
  O  O48  1  0.60140550  0.89215050  0.92104400  1
  O  O49  1  0.10277950  0.78727350  0.61785300  1
  O  O50  1  0.10140550  0.60784950  0.42104400  1
  O  O51  1  0.60277950  0.71272650  0.11785300  1
  O  O52  1  0.52412100  0.67672900  0.62902800  1
  O  O53  1  0.02412100  0.82327100  0.12902800  1
  O  O54  1  0.47587900  0.67672900  0.87097200  1
  O  O55  1  0.97587900  0.82327100  0.37097200  1
  O  O56  1  0.89722050  0.78727350  0.88214700  1
  O  O57  1  0.39859450  0.89215050  0.57895600  1
  O  O58  1  0.39722050  0.71272650  0.38214700  1
  O  O59  1  0.89859450  0.60784950  0.07895600  1
  O  O60  1  0.83815000  0.60969400  0.69531500  1
  O  O61  1  0.33815000  0.89030600  0.19531500  1
  O  O62  1  0.28391650  0.87399150  0.75794200  1
  O  O63  1  0.78391650  0.62600850  0.25794200  1
  O  O64  1  0.76513750  0.62115050  0.50640300  1
  O  O65  1  0.26513750  0.87884950  0.00640300  1
  O  O66  1  0.10310650  0.98467650  0.62239800  1
  O  O67  1  0.60310650  0.51532350  0.12239800  1
  O  O68  1  0.39689350  0.48467650  0.87760200  1
  O  O69  1  0.89689350  0.01532350  0.37760200  1
  O  O70  1  0.73486250  0.12115050  0.99359700  1
  O  O71  1  0.23486250  0.37884950  0.49359700  1
  O  O72  1  0.21608350  0.37399150  0.74205800  1
  O  O73  1  0.71608350  0.12600850  0.24205800  1
  O  O74  1  0.66185000  0.10969400  0.80468500  1
  O  O75  1  0.16185000  0.39030600  0.30468500  1
  O  O76  1  0.10140550  0.39215050  0.92104400  1
  O  O77  1  0.60277950  0.28727350  0.61785300  1
  O  O78  1  0.60140550  0.10784950  0.42104400  1
  O  O79  1  0.10277950  0.21272650  0.11785300  1
  O  O80  1  0.02412100  0.17672900  0.62902800  1
  O  O81  1  0.52412100  0.32327100  0.12902800  1
  O  O82  1  0.97587900  0.17672900  0.87097200  1
  O  O83  1  0.47587900  0.32327100  0.37097200  1
  O  O84  1  0.39722050  0.28727350  0.88214700  1
  O  O85  1  0.89859450  0.39215050  0.57895600  1
  O  O86  1  0.89722050  0.21272650  0.38214700  1
  O  O87  1  0.39859450  0.10784950  0.07895600  1
  O  O88  1  0.33815000  0.10969400  0.69531500  1
  O  O89  1  0.83815000  0.39030600  0.19531500  1
  O  O90  1  0.78391650  0.37399150  0.75794200  1
  O  O91  1  0.28391650  0.12600850  0.25794200  1
  O  O92  1  0.26513750  0.12115050  0.50640300  1
  O  O93  1  0.76513750  0.37884950  0.00640300  1
  O  O94  1  0.60310650  0.48467650  0.62239800  1
  O  O95  1  0.10310650  0.01532350  0.12239800  1
