# generated using pymatgen
data_KPb
_symmetry_space_group_name_H-M   'P 1'
_cell_length_a   11.72921800
_cell_length_b   11.72921800
_cell_length_c   19.27870000
_cell_angle_alpha   90.00000000
_cell_angle_beta   90.00000000
_cell_angle_gamma   90.00000000
_symmetry_Int_Tables_number   1
_chemical_formula_structural   KPb
_chemical_formula_sum   'K32 Pb32'
_cell_volume   2652.25857139
_cell_formula_units_Z   32
loop_
 _symmetry_equiv_pos_site_id
 _symmetry_equiv_pos_as_xyz
  1  'x, y, z'
loop_
 _atom_site_type_symbol
 _atom_site_label
 _atom_site_symmetry_multiplicity
 _atom_site_fract_x
 _atom_site_fract_y
 _atom_site_fract_z
 _atom_site_occupancy
  K  K0  1  0.86906300  0.25000000  0.37500000  1
  K  K1  1  0.25000000  0.86906300  0.12500000  1
  K  K2  1  0.75000000  0.13093700  0.12500000  1
  K  K3  1  0.13093700  0.75000000  0.37500000  1
  K  K4  1  0.63093700  0.75000000  0.37500000  1
  K  K5  1  0.75000000  0.63093700  0.12500000  1
  K  K6  1  0.25000000  0.36906300  0.12500000  1
  K  K7  1  0.36906300  0.25000000  0.37500000  1
  K  K8  1  0.62218250  0.12218250  0.50000000  1
  K  K9  1  0.37781750  0.62218250  0.25000000  1
  K  K10  1  0.62218250  0.37781750  0.25000000  1
  K  K11  1  0.87781750  0.37781750  0.00000000  1
  K  K12  1  0.87781750  0.87781750  0.25000000  1
  K  K13  1  0.62218250  0.87781750  0.00000000  1
  K  K14  1  0.37781750  0.12218250  0.00000000  1
  K  K15  1  0.12218250  0.12218250  0.25000000  1
  K  K16  1  0.36906300  0.75000000  0.87500000  1
  K  K17  1  0.75000000  0.36906300  0.62500000  1
  K  K18  1  0.25000000  0.63093700  0.62500000  1
  K  K19  1  0.63093700  0.25000000  0.87500000  1
  K  K20  1  0.13093700  0.25000000  0.87500000  1
  K  K21  1  0.25000000  0.13093700  0.62500000  1
  K  K22  1  0.75000000  0.86906300  0.62500000  1
  K  K23  1  0.86906300  0.75000000  0.87500000  1
  K  K24  1  0.12218250  0.62218250  0.00000000  1
  K  K25  1  0.87781750  0.12218250  0.75000000  1
  K  K26  1  0.12218250  0.87781750  0.75000000  1
  K  K27  1  0.37781750  0.87781750  0.50000000  1
  K  K28  1  0.37781750  0.37781750  0.75000000  1
  K  K29  1  0.12218250  0.37781750  0.50000000  1
  K  K30  1  0.87781750  0.62218250  0.50000000  1
  K  K31  1  0.62218250  0.62218250  0.75000000  1
  Pb  Pb32  1  0.56157900  0.88037200  0.19126300  1
  Pb  Pb33  1  0.88037200  0.56157900  0.30873700  1
  Pb  Pb34  1  0.11962800  0.43842100  0.30873700  1
  Pb  Pb35  1  0.06157900  0.11962800  0.05873700  1
  Pb  Pb36  1  0.93842100  0.88037200  0.05873700  1
  Pb  Pb37  1  0.11962800  0.06157900  0.44126300  1
  Pb  Pb38  1  0.88037200  0.93842100  0.44126300  1
  Pb  Pb39  1  0.43842100  0.11962800  0.19126300  1
  Pb  Pb40  1  0.43842100  0.61962800  0.05873700  1
  Pb  Pb41  1  0.61962800  0.43842100  0.44126300  1
  Pb  Pb42  1  0.38037200  0.56157900  0.44126300  1
  Pb  Pb43  1  0.93842100  0.38037200  0.19126300  1
  Pb  Pb44  1  0.06157900  0.61962800  0.19126300  1
  Pb  Pb45  1  0.38037200  0.93842100  0.30873700  1
  Pb  Pb46  1  0.61962800  0.06157900  0.30873700  1
  Pb  Pb47  1  0.56157900  0.38037200  0.05873700  1
  Pb  Pb48  1  0.06157900  0.38037200  0.69126300  1
  Pb  Pb49  1  0.38037200  0.06157900  0.80873700  1
  Pb  Pb50  1  0.61962800  0.93842100  0.80873700  1
  Pb  Pb51  1  0.56157900  0.61962800  0.55873700  1
  Pb  Pb52  1  0.43842100  0.38037200  0.55873700  1
  Pb  Pb53  1  0.61962800  0.56157900  0.94126300  1
  Pb  Pb54  1  0.38037200  0.43842100  0.94126300  1
  Pb  Pb55  1  0.93842100  0.61962800  0.69126300  1
  Pb  Pb56  1  0.93842100  0.11962800  0.55873700  1
  Pb  Pb57  1  0.11962800  0.93842100  0.94126300  1
  Pb  Pb58  1  0.88037200  0.06157900  0.94126300  1
  Pb  Pb59  1  0.43842100  0.88037200  0.69126300  1
  Pb  Pb60  1  0.56157900  0.11962800  0.69126300  1
  Pb  Pb61  1  0.88037200  0.43842100  0.80873700  1
  Pb  Pb62  1  0.11962800  0.56157900  0.80873700  1
  Pb  Pb63  1  0.06157900  0.88037200  0.55873700  1
