# generated using pymatgen
data_Cs2MgH4
_symmetry_space_group_name_H-M   'P 1'
_cell_length_a   4.32390800
_cell_length_b   4.32390800
_cell_length_c   14.97134200
_cell_angle_alpha   90.00000000
_cell_angle_beta   90.00000000
_cell_angle_gamma   90.00000000
_symmetry_Int_Tables_number   1
_chemical_formula_structural   Cs2MgH4
_chemical_formula_sum   'Cs4 Mg2 H8'
_cell_volume   279.90691075
_cell_formula_units_Z   2
loop_
 _symmetry_equiv_pos_site_id
 _symmetry_equiv_pos_as_xyz
  1  'x, y, z'
loop_
 _atom_site_type_symbol
 _atom_site_label
 _atom_site_symmetry_multiplicity
 _atom_site_fract_x
 _atom_site_fract_y
 _atom_site_fract_z
 _atom_site_occupancy
  Cs  Cs0  1  0.50000000  0.50000000  0.14480900  1
  Cs  Cs1  1  0.00000000  0.00000000  0.35519100  1
  Cs  Cs2  1  0.00000000  0.00000000  0.64480900  1
  Cs  Cs3  1  0.50000000  0.50000000  0.85519100  1
  Mg  Mg4  1  0.00000000  0.00000000  0.00000000  1
  Mg  Mg5  1  0.50000000  0.50000000  0.50000000  1
  H  H6  1  0.00000000  0.50000000  0.00000000  1
  H  H7  1  0.50000000  0.00000000  0.00000000  1
  H  H8  1  0.50000000  0.50000000  0.36920900  1
  H  H9  1  0.00000000  0.00000000  0.13079100  1
  H  H10  1  0.50000000  0.00000000  0.50000000  1
  H  H11  1  0.00000000  0.50000000  0.50000000  1
  H  H12  1  0.00000000  0.00000000  0.86920900  1
  H  H13  1  0.50000000  0.50000000  0.63079100  1
