# generated using pymatgen
data_Sm2Si2O7
_symmetry_space_group_name_H-M   'P 1'
_cell_length_a   6.75389700
_cell_length_b   6.75389700
_cell_length_c   24.62441600
_cell_angle_alpha   90.00000000
_cell_angle_beta   90.00000000
_cell_angle_gamma   90.00000000
_symmetry_Int_Tables_number   1
_chemical_formula_structural   Sm2Si2O7
_chemical_formula_sum   'Sm16 Si16 O56'
_cell_volume   1123.24580617
_cell_formula_units_Z   8
loop_
 _symmetry_equiv_pos_site_id
 _symmetry_equiv_pos_as_xyz
  1  'x, y, z'
loop_
 _atom_site_type_symbol
 _atom_site_label
 _atom_site_symmetry_multiplicity
 _atom_site_fract_x
 _atom_site_fract_y
 _atom_site_fract_z
 _atom_site_occupancy
  Sm  Sm0  1  0.28390600  0.21788200  0.75113500  1
  Sm  Sm1  1  0.83854500  0.52092900  0.39747400  1
  Sm  Sm2  1  0.47907100  0.83854500  0.64747400  1
  Sm  Sm3  1  0.65371300  0.08469400  0.50183400  1
  Sm  Sm4  1  0.71609400  0.78211800  0.25113500  1
  Sm  Sm5  1  0.75225600  0.86618500  0.88842500  1
  Sm  Sm6  1  0.78211800  0.28390600  0.00113500  1
  Sm  Sm7  1  0.86618500  0.24774400  0.63842500  1
  Sm  Sm8  1  0.16145500  0.47907100  0.89747400  1
  Sm  Sm9  1  0.34628700  0.91530600  0.00183400  1
  Sm  Sm10  1  0.08469400  0.34628700  0.25183400  1
  Sm  Sm11  1  0.52092900  0.16145500  0.14747400  1
  Sm  Sm12  1  0.91530600  0.65371300  0.75183400  1
  Sm  Sm13  1  0.21788200  0.71609400  0.50113500  1
  Sm  Sm14  1  0.13381500  0.75225600  0.13842500  1
  Sm  Sm15  1  0.24774400  0.13381500  0.38842500  1
  Si  Si16  1  0.24775400  0.85893300  0.26386700  1
  Si  Si17  1  0.27887700  0.98206400  0.87018400  1
  Si  Si18  1  0.31492800  0.60560400  0.36338500  1
  Si  Si19  1  0.85893300  0.75224600  0.01386700  1
  Si  Si20  1  0.39439600  0.31492800  0.61338500  1
  Si  Si21  1  0.62742100  0.26985400  0.26828300  1
  Si  Si22  1  0.98206400  0.72112300  0.62018400  1
  Si  Si23  1  0.73014600  0.62742100  0.51828300  1
  Si  Si24  1  0.68507200  0.39439600  0.86338500  1
  Si  Si25  1  0.26985400  0.37257900  0.01828300  1
  Si  Si26  1  0.14106700  0.24775400  0.51386700  1
  Si  Si27  1  0.01793600  0.27887700  0.12018400  1
  Si  Si28  1  0.37257900  0.73014600  0.76828300  1
  Si  Si29  1  0.75224600  0.14106700  0.76386700  1
  Si  Si30  1  0.72112300  0.01793600  0.37018400  1
  Si  Si31  1  0.60560400  0.68507200  0.11338500  1
  O  O32  1  0.72592200  0.93353700  0.98867400  1
  O  O33  1  0.13444100  0.23237100  0.97735600  1
  O  O34  1  0.94863600  0.16366100  0.54605900  1
  O  O35  1  0.81204900  0.19804400  0.09478100  1
  O  O36  1  0.93353700  0.27407800  0.73867400  1
  O  O37  1  0.89149200  0.16573500  0.39350000  1
  O  O38  1  0.12172500  0.41775900  0.07076100  1
  O  O39  1  0.10766000  0.40395700  0.46349100  1
  O  O40  1  0.44487400  0.85803200  0.09399800  1
  O  O41  1  0.83426500  0.89149200  0.64350000  1
  O  O42  1  0.42580800  0.32823800  0.23695600  1
  O  O43  1  0.23323700  0.54339800  0.78683200  1
  O  O44  1  0.41775900  0.87827500  0.82076100  1
  O  O45  1  0.86555900  0.76762900  0.47735600  1
  O  O46  1  0.52557400  0.49490100  0.63696100  1
  O  O47  1  0.27543900  0.38635700  0.55648700  1
  O  O48  1  0.50509900  0.52557400  0.88696100  1
  O  O49  1  0.59604300  0.10766000  0.71349100  1
  O  O50  1  0.72456100  0.61364300  0.05648700  1
  O  O51  1  0.32823800  0.57419200  0.98695600  1
  O  O52  1  0.06646300  0.72592200  0.23867400  1
  O  O53  1  0.10850800  0.83426500  0.89350000  1
  O  O54  1  0.67176200  0.42580800  0.48695600  1
  O  O55  1  0.79107400  0.23384600  0.90397300  1
  O  O56  1  0.57419200  0.67176200  0.73695600  1
  O  O57  1  0.16573500  0.10850800  0.14350000  1
  O  O58  1  0.49490100  0.47442600  0.38696100  1
  O  O59  1  0.23237100  0.86555900  0.72735600  1
  O  O60  1  0.55512600  0.14196800  0.59399800  1
  O  O61  1  0.85803200  0.55512600  0.84399800  1
  O  O62  1  0.47442600  0.50509900  0.13696100  1
  O  O63  1  0.19804400  0.18795100  0.84478100  1
  O  O64  1  0.87827500  0.58224100  0.57076100  1
  O  O65  1  0.58224100  0.12172500  0.32076100  1
  O  O66  1  0.61364300  0.27543900  0.80648700  1
  O  O67  1  0.80195600  0.81204900  0.34478100  1
  O  O68  1  0.55249000  0.99477700  0.41676200  1
  O  O69  1  0.45660200  0.23323700  0.03683200  1
  O  O70  1  0.05136400  0.83633900  0.04605900  1
  O  O71  1  0.99477700  0.44751000  0.16676200  1
  O  O72  1  0.16366100  0.05136400  0.29605900  1
  O  O73  1  0.00522300  0.55249000  0.66676200  1
  O  O74  1  0.38635700  0.72456100  0.30648700  1
  O  O75  1  0.18795100  0.80195600  0.59478100  1
  O  O76  1  0.14196800  0.44487400  0.34399800  1
  O  O77  1  0.83633900  0.94863600  0.79605900  1
  O  O78  1  0.76762900  0.13444100  0.22735600  1
  O  O79  1  0.89234000  0.59604300  0.96349100  1
  O  O80  1  0.27407800  0.06646300  0.48867400  1
  O  O81  1  0.54339800  0.76676300  0.53683200  1
  O  O82  1  0.20892600  0.76615400  0.40397300  1
  O  O83  1  0.76676300  0.45660200  0.28683200  1
  O  O84  1  0.44751000  0.00522300  0.91676200  1
  O  O85  1  0.23384600  0.20892600  0.65397300  1
  O  O86  1  0.76615400  0.79107400  0.15397300  1
  O  O87  1  0.40395700  0.89234000  0.21349100  1
