# generated using pymatgen
data_KGdP2H4O9
_symmetry_space_group_name_H-M   'P 1'
_cell_length_a   7.90497100
_cell_length_b   10.69764400
_cell_length_c   10.20604387
_cell_angle_alpha   90.00000000
_cell_angle_beta   93.48973512
_cell_angle_gamma   90.00000000
_symmetry_Int_Tables_number   1
_chemical_formula_structural   KGdP2H4O9
_chemical_formula_sum   'K4 Gd4 P8 H16 O36'
_cell_volume   861.46929283
_cell_formula_units_Z   4
loop_
 _symmetry_equiv_pos_site_id
 _symmetry_equiv_pos_as_xyz
  1  'x, y, z'
loop_
 _atom_site_type_symbol
 _atom_site_label
 _atom_site_symmetry_multiplicity
 _atom_site_fract_x
 _atom_site_fract_y
 _atom_site_fract_z
 _atom_site_occupancy
  K  K0  1  0.75350000  0.21872000  0.33273000  1
  K  K1  1  0.24650000  0.71872000  0.16727000  1
  K  K2  1  0.24650000  0.78128000  0.66727000  1
  K  K3  1  0.75350000  0.28128000  0.83273000  1
  Gd  Gd4  1  0.25183700  0.11339500  0.32620100  1
  Gd  Gd5  1  0.74816300  0.61339500  0.17379900  1
  Gd  Gd6  1  0.74816300  0.88660500  0.67379900  1
  Gd  Gd7  1  0.25183700  0.38660500  0.82620100  1
  P  P8  1  0.03401500  0.34779500  0.12198400  1
  P  P9  1  0.96598500  0.84779500  0.37801600  1
  P  P10  1  0.96598500  0.65220500  0.87801600  1
  P  P11  1  0.03401500  0.15220500  0.62198400  1
  P  P12  1  0.39141700  0.39172500  0.16838000  1
  P  P13  1  0.60858300  0.89172500  0.33162000  1
  P  P14  1  0.60858300  0.60827500  0.83162000  1
  P  P15  1  0.39141700  0.10827500  0.66838000  1
  H  H16  1  0.15217900  0.09290500  0.03571800  1
  H  H17  1  0.84782100  0.59290500  0.46428200  1
  H  H18  1  0.84782100  0.90709500  0.96428200  1
  H  H19  1  0.15217900  0.40709500  0.53571800  1
  H  H20  1  0.28987000  0.98250100  0.03670600  1
  H  H21  1  0.71013000  0.48250100  0.46329400  1
  H  H22  1  0.71013000  0.01749900  0.96329400  1
  H  H23  1  0.28987000  0.51749900  0.53670600  1
  H  H24  1  0.57019300  0.42475300  0.63139600  1
  H  H25  1  0.42980700  0.92475300  0.86860400  1
  H  H26  1  0.42980700  0.57524700  0.36860400  1
  H  H27  1  0.57019300  0.07524700  0.13139600  1
  H  H28  1  0.53468100  0.31072800  0.53753500  1
  H  H29  1  0.46531900  0.81072800  0.96246500  1
  H  H30  1  0.46531900  0.68927200  0.46246500  1
  H  H31  1  0.53468100  0.18927200  0.03753500  1
  O  O32  1  0.22632500  0.04084600  0.09259500  1
  O  O33  1  0.77367500  0.54084600  0.40740500  1
  O  O34  1  0.77367500  0.95915400  0.90740500  1
  O  O35  1  0.22632500  0.45915400  0.59259500  1
  O  O36  1  0.62015100  0.37557200  0.56087600  1
  O  O37  1  0.37984900  0.87557200  0.93912400  1
  O  O38  1  0.37984900  0.62442800  0.43912400  1
  O  O39  1  0.62015100  0.12442800  0.06087600  1
  O  O40  1  0.04912300  0.22948600  0.20590400  1
  O  O41  1  0.95087700  0.72948600  0.29409600  1
  O  O42  1  0.95087700  0.77051400  0.79409600  1
  O  O43  1  0.04912300  0.27051400  0.70590400  1
  O  O44  1  0.87372700  0.42119200  0.14716300  1
  O  O45  1  0.12627300  0.92119200  0.35283700  1
  O  O46  1  0.12627300  0.57880800  0.85283700  1
  O  O47  1  0.87372700  0.07880800  0.64716300  1
  O  O48  1  0.05478100  0.32114600  0.97643300  1
  O  O49  1  0.94521900  0.82114600  0.52356700  1
  O  O50  1  0.94521900  0.67885400  0.02356700  1
  O  O51  1  0.05478100  0.17885400  0.47643300  1
  O  O52  1  0.19345500  0.43919700  0.17164500  1
  O  O53  1  0.80654500  0.93919700  0.32835500  1
  O  O54  1  0.80654500  0.56080300  0.82835500  1
  O  O55  1  0.19345500  0.06080300  0.67164500  1
  O  O56  1  0.41452500  0.28267700  0.26493900  1
  O  O57  1  0.58547500  0.78267700  0.23506100  1
  O  O58  1  0.58547500  0.71732300  0.73506100  1
  O  O59  1  0.41452500  0.21732300  0.76493900  1
  O  O60  1  0.49155600  0.50747300  0.21580200  1
  O  O61  1  0.50844400  0.00747300  0.28419800  1
  O  O62  1  0.50844400  0.49252700  0.78419800  1
  O  O63  1  0.49155600  0.99252700  0.71580200  1
  O  O64  1  0.41955900  0.35326400  0.02661600  1
  O  O65  1  0.58044100  0.85326400  0.47338400  1
  O  O66  1  0.58044100  0.64673600  0.97338400  1
  O  O67  1  0.41955900  0.14673600  0.52661600  1
