# generated using pymatgen
data_Ge3Cl8
_symmetry_space_group_name_H-M   'P 1'
_cell_length_a   18.49686200
_cell_length_b   18.49686200
_cell_length_c   18.49686200
_cell_angle_alpha   90.00000000
_cell_angle_beta   90.00000000
_cell_angle_gamma   90.00000000
_symmetry_Int_Tables_number   1
_chemical_formula_structural   Ge3Cl8
_chemical_formula_sum   'Ge48 Cl128'
_cell_volume   6328.40360498
_cell_formula_units_Z   16
loop_
 _symmetry_equiv_pos_site_id
 _symmetry_equiv_pos_as_xyz
  1  'x, y, z'
loop_
 _atom_site_type_symbol
 _atom_site_label
 _atom_site_symmetry_multiplicity
 _atom_site_fract_x
 _atom_site_fract_y
 _atom_site_fract_z
 _atom_site_occupancy
  Ge  Ge0  1  0.82750675  0.32750675  0.32750675  1
  Ge  Ge1  1  0.67249325  0.32750675  0.67249325  1
  Ge  Ge2  1  0.32750675  0.67249325  0.67249325  1
  Ge  Ge3  1  0.67249325  0.67249325  0.32750675  1
  Ge  Ge4  1  0.67249325  0.32750675  0.17249325  1
  Ge  Ge5  1  0.17249325  0.67249325  0.32750675  1
  Ge  Ge6  1  0.32750675  0.67249325  0.17249325  1
  Ge  Ge7  1  0.32750675  0.32750675  0.32750675  1
  Ge  Ge8  1  0.75000000  0.25000000  0.25000000  1
  Ge  Ge9  1  0.25000000  0.25000000  0.25000000  1
  Ge  Ge10  1  0.50000000  0.50000000  0.50000000  1
  Ge  Ge11  1  0.50000000  0.50000000  0.00000000  1
  Ge  Ge12  1  0.82750675  0.82750675  0.82750675  1
  Ge  Ge13  1  0.67249325  0.82750675  0.17249325  1
  Ge  Ge14  1  0.32750675  0.17249325  0.17249325  1
  Ge  Ge15  1  0.67249325  0.17249325  0.82750675  1
  Ge  Ge16  1  0.67249325  0.82750675  0.67249325  1
  Ge  Ge17  1  0.17249325  0.17249325  0.82750675  1
  Ge  Ge18  1  0.32750675  0.17249325  0.67249325  1
  Ge  Ge19  1  0.32750675  0.82750675  0.82750675  1
  Ge  Ge20  1  0.75000000  0.75000000  0.75000000  1
  Ge  Ge21  1  0.25000000  0.75000000  0.75000000  1
  Ge  Ge22  1  0.50000000  0.00000000  0.00000000  1
  Ge  Ge23  1  0.50000000  0.00000000  0.50000000  1
  Ge  Ge24  1  0.32750675  0.32750675  0.82750675  1
  Ge  Ge25  1  0.17249325  0.32750675  0.17249325  1
  Ge  Ge26  1  0.82750675  0.67249325  0.17249325  1
  Ge  Ge27  1  0.17249325  0.67249325  0.82750675  1
  Ge  Ge28  1  0.17249325  0.32750675  0.67249325  1
  Ge  Ge29  1  0.67249325  0.67249325  0.82750675  1
  Ge  Ge30  1  0.82750675  0.67249325  0.67249325  1
  Ge  Ge31  1  0.82750675  0.32750675  0.82750675  1
  Ge  Ge32  1  0.25000000  0.25000000  0.75000000  1
  Ge  Ge33  1  0.75000000  0.25000000  0.75000000  1
  Ge  Ge34  1  0.00000000  0.50000000  0.00000000  1
  Ge  Ge35  1  0.00000000  0.50000000  0.50000000  1
  Ge  Ge36  1  0.32750675  0.82750675  0.32750675  1
  Ge  Ge37  1  0.17249325  0.82750675  0.67249325  1
  Ge  Ge38  1  0.82750675  0.17249325  0.67249325  1
  Ge  Ge39  1  0.17249325  0.17249325  0.32750675  1
  Ge  Ge40  1  0.17249325  0.82750675  0.17249325  1
  Ge  Ge41  1  0.67249325  0.17249325  0.32750675  1
  Ge  Ge42  1  0.82750675  0.17249325  0.17249325  1
  Ge  Ge43  1  0.82750675  0.82750675  0.32750675  1
  Ge  Ge44  1  0.25000000  0.75000000  0.25000000  1
  Ge  Ge45  1  0.75000000  0.75000000  0.25000000  1
  Ge  Ge46  1  0.00000000  0.00000000  0.50000000  1
  Ge  Ge47  1  0.00000000  0.00000000  0.00000000  1
  Cl  Cl48  1  0.13496975  0.57978325  0.26808025  1
  Cl  Cl49  1  0.76808025  0.36503025  0.42021675  1
  Cl  Cl50  1  0.42021675  0.73191975  0.13496975  1
  Cl  Cl51  1  0.92021675  0.26808025  0.36503025  1
  Cl  Cl52  1  0.73191975  0.36503025  0.07978325  1
  Cl  Cl53  1  0.86503025  0.42021675  0.26808025  1
  Cl  Cl54  1  0.92021675  0.63496975  0.23191975  1
  Cl  Cl55  1  0.57978325  0.63496975  0.26808025  1
  Cl  Cl56  1  0.07978325  0.36503025  0.23191975  1
  Cl  Cl57  1  0.73191975  0.57978325  0.36503025  1
  Cl  Cl58  1  0.63496975  0.26808025  0.57978325  1
  Cl  Cl59  1  0.26808025  0.42021675  0.36503025  1
  Cl  Cl60  1  0.43338225  0.43338225  0.06661775  1
  Cl  Cl61  1  0.56661775  0.56661775  0.56661775  1
  Cl  Cl62  1  0.43338225  0.56661775  0.43338225  1
  Cl  Cl63  1  0.56661775  0.43338225  0.43338225  1
  Cl  Cl64  1  0.56661775  0.43338225  0.93338225  1
  Cl  Cl65  1  0.56661775  0.56661775  0.06661775  1
  Cl  Cl66  1  0.43338225  0.56661775  0.93338225  1
  Cl  Cl67  1  0.43338225  0.43338225  0.56661775  1
  Cl  Cl68  1  0.42021675  0.36503025  0.26808025  1
  Cl  Cl69  1  0.26808025  0.63496975  0.07978325  1
  Cl  Cl70  1  0.23191975  0.63496975  0.42021675  1
  Cl  Cl71  1  0.36503025  0.57978325  0.23191975  1
  Cl  Cl72  1  0.63496975  0.42021675  0.23191975  1
  Cl  Cl73  1  0.07978325  0.73191975  0.36503025  1
  Cl  Cl74  1  0.57978325  0.26808025  0.13496975  1
  Cl  Cl75  1  0.13496975  0.73191975  0.92021675  1
  Cl  Cl76  1  0.76808025  0.57978325  0.13496975  1
  Cl  Cl77  1  0.23191975  0.42021675  0.13496975  1
  Cl  Cl78  1  0.36503025  0.73191975  0.57978325  1
  Cl  Cl79  1  0.86503025  0.26808025  0.92021675  1
  Cl  Cl80  1  0.13496975  0.07978325  0.76808025  1
  Cl  Cl81  1  0.76808025  0.86503025  0.92021675  1
  Cl  Cl82  1  0.42021675  0.23191975  0.63496975  1
  Cl  Cl83  1  0.92021675  0.76808025  0.86503025  1
  Cl  Cl84  1  0.73191975  0.86503025  0.57978325  1
  Cl  Cl85  1  0.86503025  0.92021675  0.76808025  1
  Cl  Cl86  1  0.92021675  0.13496975  0.73191975  1
  Cl  Cl87  1  0.57978325  0.13496975  0.76808025  1
  Cl  Cl88  1  0.07978325  0.86503025  0.73191975  1
  Cl  Cl89  1  0.73191975  0.07978325  0.86503025  1
  Cl  Cl90  1  0.63496975  0.76808025  0.07978325  1
  Cl  Cl91  1  0.26808025  0.92021675  0.86503025  1
  Cl  Cl92  1  0.43338225  0.93338225  0.56661775  1
  Cl  Cl93  1  0.56661775  0.06661775  0.06661775  1
  Cl  Cl94  1  0.43338225  0.06661775  0.93338225  1
  Cl  Cl95  1  0.56661775  0.93338225  0.93338225  1
  Cl  Cl96  1  0.56661775  0.93338225  0.43338225  1
  Cl  Cl97  1  0.56661775  0.06661775  0.56661775  1
  Cl  Cl98  1  0.43338225  0.06661775  0.43338225  1
  Cl  Cl99  1  0.43338225  0.93338225  0.06661775  1
  Cl  Cl100  1  0.42021675  0.86503025  0.76808025  1
  Cl  Cl101  1  0.26808025  0.13496975  0.57978325  1
  Cl  Cl102  1  0.23191975  0.13496975  0.92021675  1
  Cl  Cl103  1  0.36503025  0.07978325  0.73191975  1
  Cl  Cl104  1  0.63496975  0.92021675  0.73191975  1
  Cl  Cl105  1  0.07978325  0.23191975  0.86503025  1
  Cl  Cl106  1  0.57978325  0.76808025  0.63496975  1
  Cl  Cl107  1  0.13496975  0.23191975  0.42021675  1
  Cl  Cl108  1  0.76808025  0.07978325  0.63496975  1
  Cl  Cl109  1  0.23191975  0.92021675  0.63496975  1
  Cl  Cl110  1  0.36503025  0.23191975  0.07978325  1
  Cl  Cl111  1  0.86503025  0.76808025  0.42021675  1
  Cl  Cl112  1  0.63496975  0.57978325  0.76808025  1
  Cl  Cl113  1  0.26808025  0.36503025  0.92021675  1
  Cl  Cl114  1  0.92021675  0.73191975  0.63496975  1
  Cl  Cl115  1  0.42021675  0.26808025  0.86503025  1
  Cl  Cl116  1  0.23191975  0.36503025  0.57978325  1
  Cl  Cl117  1  0.36503025  0.42021675  0.76808025  1
  Cl  Cl118  1  0.42021675  0.63496975  0.73191975  1
  Cl  Cl119  1  0.07978325  0.63496975  0.76808025  1
  Cl  Cl120  1  0.57978325  0.36503025  0.73191975  1
  Cl  Cl121  1  0.23191975  0.57978325  0.86503025  1
  Cl  Cl122  1  0.13496975  0.26808025  0.07978325  1
  Cl  Cl123  1  0.76808025  0.42021675  0.86503025  1
  Cl  Cl124  1  0.93338225  0.43338225  0.56661775  1
  Cl  Cl125  1  0.06661775  0.56661775  0.06661775  1
  Cl  Cl126  1  0.93338225  0.56661775  0.93338225  1
  Cl  Cl127  1  0.06661775  0.43338225  0.93338225  1
  Cl  Cl128  1  0.06661775  0.43338225  0.43338225  1
  Cl  Cl129  1  0.06661775  0.56661775  0.56661775  1
  Cl  Cl130  1  0.93338225  0.56661775  0.43338225  1
  Cl  Cl131  1  0.93338225  0.43338225  0.06661775  1
  Cl  Cl132  1  0.92021675  0.36503025  0.76808025  1
  Cl  Cl133  1  0.76808025  0.63496975  0.57978325  1
  Cl  Cl134  1  0.73191975  0.63496975  0.92021675  1
  Cl  Cl135  1  0.86503025  0.57978325  0.73191975  1
  Cl  Cl136  1  0.13496975  0.42021675  0.73191975  1
  Cl  Cl137  1  0.57978325  0.73191975  0.86503025  1
  Cl  Cl138  1  0.07978325  0.26808025  0.63496975  1
  Cl  Cl139  1  0.63496975  0.73191975  0.42021675  1
  Cl  Cl140  1  0.26808025  0.57978325  0.63496975  1
  Cl  Cl141  1  0.73191975  0.42021675  0.63496975  1
  Cl  Cl142  1  0.86503025  0.73191975  0.07978325  1
  Cl  Cl143  1  0.36503025  0.26808025  0.42021675  1
  Cl  Cl144  1  0.63496975  0.07978325  0.26808025  1
  Cl  Cl145  1  0.26808025  0.86503025  0.42021675  1
  Cl  Cl146  1  0.92021675  0.23191975  0.13496975  1
  Cl  Cl147  1  0.42021675  0.76808025  0.36503025  1
  Cl  Cl148  1  0.23191975  0.86503025  0.07978325  1
  Cl  Cl149  1  0.36503025  0.92021675  0.26808025  1
  Cl  Cl150  1  0.42021675  0.13496975  0.23191975  1
  Cl  Cl151  1  0.07978325  0.13496975  0.26808025  1
  Cl  Cl152  1  0.57978325  0.86503025  0.23191975  1
  Cl  Cl153  1  0.23191975  0.07978325  0.36503025  1
  Cl  Cl154  1  0.13496975  0.76808025  0.57978325  1
  Cl  Cl155  1  0.76808025  0.92021675  0.36503025  1
  Cl  Cl156  1  0.93338225  0.93338225  0.06661775  1
  Cl  Cl157  1  0.06661775  0.06661775  0.56661775  1
  Cl  Cl158  1  0.93338225  0.06661775  0.43338225  1
  Cl  Cl159  1  0.06661775  0.93338225  0.43338225  1
  Cl  Cl160  1  0.06661775  0.93338225  0.93338225  1
  Cl  Cl161  1  0.06661775  0.06661775  0.06661775  1
  Cl  Cl162  1  0.93338225  0.06661775  0.93338225  1
  Cl  Cl163  1  0.93338225  0.93338225  0.56661775  1
  Cl  Cl164  1  0.92021675  0.86503025  0.26808025  1
  Cl  Cl165  1  0.76808025  0.13496975  0.07978325  1
  Cl  Cl166  1  0.73191975  0.13496975  0.42021675  1
  Cl  Cl167  1  0.86503025  0.07978325  0.23191975  1
  Cl  Cl168  1  0.13496975  0.92021675  0.23191975  1
  Cl  Cl169  1  0.57978325  0.23191975  0.36503025  1
  Cl  Cl170  1  0.07978325  0.76808025  0.13496975  1
  Cl  Cl171  1  0.63496975  0.23191975  0.92021675  1
  Cl  Cl172  1  0.26808025  0.07978325  0.13496975  1
  Cl  Cl173  1  0.73191975  0.92021675  0.13496975  1
  Cl  Cl174  1  0.86503025  0.23191975  0.57978325  1
  Cl  Cl175  1  0.36503025  0.76808025  0.92021675  1
