# generated using pymatgen
data_Bi2Se2Cl7
_symmetry_space_group_name_H-M   'P 1'
_cell_length_a   10.97531900
_cell_length_b   10.97531900
_cell_length_c   10.52050500
_cell_angle_alpha   90.00000000
_cell_angle_beta   90.00000000
_cell_angle_gamma   90.00000000
_symmetry_Int_Tables_number   1
_chemical_formula_structural   Bi2Se2Cl7
_chemical_formula_sum   'Bi8 Se8 Cl28'
_cell_volume   1267.27506874
_cell_formula_units_Z   4
loop_
 _symmetry_equiv_pos_site_id
 _symmetry_equiv_pos_as_xyz
  1  'x, y, z'
loop_
 _atom_site_type_symbol
 _atom_site_label
 _atom_site_symmetry_multiplicity
 _atom_site_fract_x
 _atom_site_fract_y
 _atom_site_fract_z
 _atom_site_occupancy
  Bi  Bi0  1  0.39042900  0.26705400  0.34959000  1
  Bi  Bi1  1  0.23294600  0.89042900  0.34959000  1
  Bi  Bi2  1  0.76705400  0.10957100  0.34959000  1
  Bi  Bi3  1  0.60957100  0.73294600  0.34959000  1
  Bi  Bi4  1  0.10957100  0.23294600  0.65041000  1
  Bi  Bi5  1  0.26705400  0.60957100  0.65041000  1
  Bi  Bi6  1  0.73294600  0.39042900  0.65041000  1
  Bi  Bi7  1  0.89042900  0.76705400  0.65041000  1
  Se  Se8  1  0.42068200  0.12826000  0.89226800  1
  Se  Se9  1  0.37174000  0.92068200  0.89226800  1
  Se  Se10  1  0.62826000  0.07931800  0.89226800  1
  Se  Se11  1  0.57931800  0.87174000  0.89226800  1
  Se  Se12  1  0.07931800  0.37174000  0.10773200  1
  Se  Se13  1  0.12826000  0.57931800  0.10773200  1
  Se  Se14  1  0.87174000  0.42068200  0.10773200  1
  Se  Se15  1  0.92068200  0.62826000  0.10773200  1
  Cl  Cl16  1  0.50000000  0.00000000  0.32809700  1
  Cl  Cl17  1  0.00000000  0.50000000  0.67190300  1
  Cl  Cl18  1  0.50000000  0.50000000  0.50000000  1
  Cl  Cl19  1  0.00000000  0.00000000  0.50000000  1
  Cl  Cl20  1  0.19825000  0.38770500  0.44020100  1
  Cl  Cl21  1  0.11229500  0.69825000  0.44020100  1
  Cl  Cl22  1  0.88770500  0.30175000  0.44020100  1
  Cl  Cl23  1  0.80175000  0.61229500  0.44020100  1
  Cl  Cl24  1  0.30175000  0.11229500  0.55979900  1
  Cl  Cl25  1  0.38770500  0.80175000  0.55979900  1
  Cl  Cl26  1  0.61229500  0.19825000  0.55979900  1
  Cl  Cl27  1  0.69825000  0.88770500  0.55979900  1
  Cl  Cl28  1  0.23302300  0.12830800  0.22661500  1
  Cl  Cl29  1  0.37169200  0.73302300  0.22661500  1
  Cl  Cl30  1  0.62830800  0.26697700  0.22661500  1
  Cl  Cl31  1  0.76697700  0.87169200  0.22661500  1
  Cl  Cl32  1  0.85447800  0.90031300  0.85450800  1
  Cl  Cl33  1  0.59968700  0.35447800  0.85450800  1
  Cl  Cl34  1  0.40031300  0.64552200  0.85450800  1
  Cl  Cl35  1  0.14552200  0.09968700  0.85450800  1
  Cl  Cl36  1  0.64552200  0.59968700  0.14549200  1
  Cl  Cl37  1  0.90031300  0.14552200  0.14549200  1
  Cl  Cl38  1  0.09968700  0.85447800  0.14549200  1
  Cl  Cl39  1  0.35447800  0.40031300  0.14549200  1
  Cl  Cl40  1  0.73302300  0.62830800  0.77338500  1
  Cl  Cl41  1  0.87169200  0.23302300  0.77338500  1
  Cl  Cl42  1  0.12830800  0.76697700  0.77338500  1
  Cl  Cl43  1  0.26697700  0.37169200  0.77338500  1
