# generated using pymatgen
data_Ag2PdCl4
_symmetry_space_group_name_H-M   'P 1'
_cell_length_a   8.34453800
_cell_length_b   10.10580800
_cell_length_c   8.24756600
_cell_angle_alpha   90.00000000
_cell_angle_beta   90.00000000
_cell_angle_gamma   90.00000000
_symmetry_Int_Tables_number   1
_chemical_formula_structural   Ag2PdCl4
_chemical_formula_sum   'Ag8 Pd4 Cl16'
_cell_volume   695.50321065
_cell_formula_units_Z   4
loop_
 _symmetry_equiv_pos_site_id
 _symmetry_equiv_pos_as_xyz
  1  'x, y, z'
loop_
 _atom_site_type_symbol
 _atom_site_label
 _atom_site_symmetry_multiplicity
 _atom_site_fract_x
 _atom_site_fract_y
 _atom_site_fract_z
 _atom_site_occupancy
  Ag  Ag0  1  0.27880800  0.75000000  0.75000000  1
  Ag  Ag1  1  0.72119200  0.75000000  0.25000000  1
  Ag  Ag2  1  0.27880800  0.25000000  0.75000000  1
  Ag  Ag3  1  0.72119200  0.25000000  0.25000000  1
  Ag  Ag4  1  0.77880800  0.25000000  0.75000000  1
  Ag  Ag5  1  0.22119200  0.25000000  0.25000000  1
  Ag  Ag6  1  0.77880800  0.75000000  0.75000000  1
  Ag  Ag7  1  0.22119200  0.75000000  0.25000000  1
  Pd  Pd8  1  0.00000000  0.00000000  0.00000000  1
  Pd  Pd9  1  0.50000000  0.00000000  0.50000000  1
  Pd  Pd10  1  0.50000000  0.50000000  0.00000000  1
  Pd  Pd11  1  0.00000000  0.50000000  0.50000000  1
  Cl  Cl12  1  0.19269300  0.00000000  0.79469800  1
  Cl  Cl13  1  0.30730700  0.00000000  0.29469800  1
  Cl  Cl14  1  0.69269300  0.00000000  0.70530200  1
  Cl  Cl15  1  0.80730700  0.00000000  0.20530200  1
  Cl  Cl16  1  0.50000000  0.23023100  0.50000000  1
  Cl  Cl17  1  0.50000000  0.26976900  0.00000000  1
  Cl  Cl18  1  0.50000000  0.73023100  0.00000000  1
  Cl  Cl19  1  0.50000000  0.76976900  0.50000000  1
  Cl  Cl20  1  0.69269300  0.50000000  0.79469800  1
  Cl  Cl21  1  0.80730700  0.50000000  0.29469800  1
  Cl  Cl22  1  0.19269300  0.50000000  0.70530200  1
  Cl  Cl23  1  0.30730700  0.50000000  0.20530200  1
  Cl  Cl24  1  0.00000000  0.73023100  0.50000000  1
  Cl  Cl25  1  0.00000000  0.76976900  0.00000000  1
  Cl  Cl26  1  0.00000000  0.23023100  0.00000000  1
  Cl  Cl27  1  0.00000000  0.26976900  0.50000000  1
