# generated using pymatgen
data_AlP(H2O3)2
_symmetry_space_group_name_H-M   'P 1'
_cell_length_a   8.61828200
_cell_length_b   9.68436300
_cell_length_c   9.97014600
_cell_angle_alpha   90.00000000
_cell_angle_beta   90.00000000
_cell_angle_gamma   90.00000000
_symmetry_Int_Tables_number   1
_chemical_formula_structural   AlP(H2O3)2
_chemical_formula_sum   'Al8 P8 H32 O48'
_cell_volume   832.13402164
_cell_formula_units_Z   8
loop_
 _symmetry_equiv_pos_site_id
 _symmetry_equiv_pos_as_xyz
  1  'x, y, z'
loop_
 _atom_site_type_symbol
 _atom_site_label
 _atom_site_symmetry_multiplicity
 _atom_site_fract_x
 _atom_site_fract_y
 _atom_site_fract_z
 _atom_site_occupancy
  Al  Al0  1  0.15459000  0.17006500  0.13411000  1
  Al  Al1  1  0.65459000  0.32993500  0.86589000  1
  Al  Al2  1  0.84541000  0.67006500  0.36589000  1
  Al  Al3  1  0.34541000  0.82993500  0.63411000  1
  Al  Al4  1  0.84541000  0.82993500  0.86589000  1
  Al  Al5  1  0.34541000  0.67006500  0.13411000  1
  Al  Al6  1  0.15459000  0.32993500  0.63411000  1
  Al  Al7  1  0.65459000  0.17006500  0.36589000  1
  P  P8  1  0.47056000  0.35426000  0.14758300  1
  P  P9  1  0.97056000  0.14574000  0.85241700  1
  P  P10  1  0.52944000  0.85426000  0.35241700  1
  P  P11  1  0.02944000  0.64574000  0.64758300  1
  P  P12  1  0.52944000  0.64574000  0.85241700  1
  P  P13  1  0.02944000  0.85426000  0.14758300  1
  P  P14  1  0.47056000  0.14574000  0.64758300  1
  P  P15  1  0.97056000  0.35426000  0.35241700  1
  H  H16  1  0.84340800  0.08625100  0.17879500  1
  H  H17  1  0.34340800  0.41374900  0.82120500  1
  H  H18  1  0.15659200  0.58625100  0.32120500  1
  H  H19  1  0.65659200  0.91374900  0.67879500  1
  H  H20  1  0.15659200  0.91374900  0.82120500  1
  H  H21  1  0.65659200  0.58625100  0.17879500  1
  H  H22  1  0.84340800  0.41374900  0.67879500  1
  H  H23  1  0.34340800  0.08625100  0.32120500  1
  H  H24  1  0.69751600  0.18047300  0.12128000  1
  H  H25  1  0.19751600  0.31952700  0.87872000  1
  H  H26  1  0.30248400  0.68047300  0.37872000  1
  H  H27  1  0.80248400  0.81952700  0.62128000  1
  H  H28  1  0.30248400  0.81952700  0.87872000  1
  H  H29  1  0.80248400  0.68047300  0.12128000  1
  H  H30  1  0.69751600  0.31952700  0.62128000  1
  H  H31  1  0.19751600  0.18047300  0.37872000  1
  H  H32  1  0.14151800  0.57288500  0.97157600  1
  H  H33  1  0.64151800  0.92711500  0.02842400  1
  H  H34  1  0.14151800  0.92711500  0.47157600  1
  H  H35  1  0.64151800  0.57288500  0.52842400  1
  H  H36  1  0.85848200  0.42711500  0.02842400  1
  H  H37  1  0.35848200  0.07288500  0.97157600  1
  H  H38  1  0.79151000  0.95381300  0.42882500  1
  H  H39  1  0.29151000  0.54618700  0.57117500  1
  H  H40  1  0.20849000  0.45381300  0.07117500  1
  H  H41  1  0.70849000  0.04618700  0.92882500  1
  H  H42  1  0.20849000  0.04618700  0.57117500  1
  H  H43  1  0.70849000  0.45381300  0.42882500  1
  H  H44  1  0.79151000  0.54618700  0.92882500  1
  H  H45  1  0.29151000  0.95381300  0.07117500  1
  H  H46  1  0.85848200  0.07288500  0.52842400  1
  H  H47  1  0.35848200  0.42711500  0.47157600  1
  O  O48  1  0.51347400  0.29163100  0.28452500  1
  O  O49  1  0.01347400  0.20836900  0.71547500  1
  O  O50  1  0.48652600  0.79163100  0.21547500  1
  O  O51  1  0.98652600  0.70836900  0.78452500  1
  O  O52  1  0.48652600  0.70836900  0.71547500  1
  O  O53  1  0.98652600  0.79163100  0.28452500  1
  O  O54  1  0.51347400  0.20836900  0.78452500  1
  O  O55  1  0.01347400  0.29163100  0.21547500  1
  O  O56  1  0.48388100  0.51411400  0.14818900  1
  O  O57  1  0.98388100  0.98588600  0.85181100  1
  O  O58  1  0.51611900  0.01411400  0.35181100  1
  O  O59  1  0.01611900  0.48588600  0.64818900  1
  O  O60  1  0.51611900  0.48588600  0.85181100  1
  O  O61  1  0.01611900  0.01411400  0.14818900  1
  O  O62  1  0.48388100  0.98588600  0.64818900  1
  O  O63  1  0.98388100  0.51411400  0.35181100  1
  O  O64  1  0.08313300  0.29263700  0.45918400  1
  O  O65  1  0.82233000  0.44557100  0.93737600  1
  O  O66  1  0.67767000  0.55442900  0.43737600  1
  O  O67  1  0.17767000  0.94557100  0.56262400  1
  O  O68  1  0.67767000  0.94557100  0.93737600  1
  O  O69  1  0.17767000  0.55442900  0.06262400  1
  O  O70  1  0.32233000  0.44557100  0.56262400  1
  O  O71  1  0.82233000  0.05442900  0.43737600  1
  O  O72  1  0.23318600  0.11575300  0.30676000  1
  O  O73  1  0.73318600  0.38424700  0.69324000  1
  O  O74  1  0.58313300  0.20736300  0.54081600  1
  O  O75  1  0.26681400  0.88424700  0.80676000  1
  O  O76  1  0.76681400  0.88424700  0.69324000  1
  O  O77  1  0.26681400  0.61575300  0.30676000  1
  O  O78  1  0.23318600  0.38424700  0.80676000  1
  O  O79  1  0.73318600  0.11575300  0.19324000  1
  O  O80  1  0.91686700  0.79263700  0.04081600  1
  O  O81  1  0.41686700  0.70736300  0.95918400  1
  O  O82  1  0.91686700  0.70736300  0.54081600  1
  O  O83  1  0.41686700  0.79263700  0.45918400  1
  O  O84  1  0.08313300  0.20736300  0.95918400  1
  O  O85  1  0.58313300  0.29263700  0.04081600  1
  O  O86  1  0.79906300  0.31896300  0.38802400  1
  O  O87  1  0.29906300  0.18103700  0.61197600  1
  O  O88  1  0.20093700  0.81896300  0.11197600  1
  O  O89  1  0.70093700  0.68103700  0.88802400  1
  O  O90  1  0.20093700  0.68103700  0.61197600  1
  O  O91  1  0.70093700  0.81896300  0.38802400  1
  O  O92  1  0.79906300  0.18103700  0.88802400  1
  O  O93  1  0.29906300  0.31896300  0.11197600  1
  O  O94  1  0.76681400  0.61575300  0.19324000  1
  O  O95  1  0.32233000  0.05442900  0.06262400  1
