# generated using pymatgen
data_HgBr
_symmetry_space_group_name_H-M   'P 1'
_cell_length_a   4.96058600
_cell_length_b   4.96058600
_cell_length_c   11.33650800
_cell_angle_alpha   90.00000000
_cell_angle_beta   90.00000000
_cell_angle_gamma   90.00000000
_symmetry_Int_Tables_number   1
_chemical_formula_structural   HgBr
_chemical_formula_sum   'Hg4 Br4'
_cell_volume   278.96213959
_cell_formula_units_Z   4
loop_
 _symmetry_equiv_pos_site_id
 _symmetry_equiv_pos_as_xyz
  1  'x, y, z'
loop_
 _atom_site_type_symbol
 _atom_site_label
 _atom_site_symmetry_multiplicity
 _atom_site_fract_x
 _atom_site_fract_y
 _atom_site_fract_z
 _atom_site_occupancy
  Hg  Hg0  1  0.50000000  0.50000000  0.38405500  1
  Hg  Hg1  1  0.00000000  0.00000000  0.11594500  1
  Hg  Hg2  1  0.00000000  0.00000000  0.88405500  1
  Hg  Hg3  1  0.50000000  0.50000000  0.61594500  1
  Br  Br4  1  0.50000000  0.50000000  0.15680400  1
  Br  Br5  1  0.00000000  0.00000000  0.34319600  1
  Br  Br6  1  0.00000000  0.00000000  0.65680400  1
  Br  Br7  1  0.50000000  0.50000000  0.84319600  1
