# generated using pymatgen
data_Ga2PbO4
_symmetry_space_group_name_H-M   'P 1'
_cell_length_a   5.32934600
_cell_length_b   9.51501600
_cell_length_c   8.70627300
_cell_angle_alpha   90.00000000
_cell_angle_beta   90.00000000
_cell_angle_gamma   90.00000000
_symmetry_Int_Tables_number   1
_chemical_formula_structural   Ga2PbO4
_chemical_formula_sum   'Ga8 Pb4 O16'
_cell_volume   441.48476478
_cell_formula_units_Z   4
loop_
 _symmetry_equiv_pos_site_id
 _symmetry_equiv_pos_as_xyz
  1  'x, y, z'
loop_
 _atom_site_type_symbol
 _atom_site_label
 _atom_site_symmetry_multiplicity
 _atom_site_fract_x
 _atom_site_fract_y
 _atom_site_fract_z
 _atom_site_occupancy
  Ga  Ga0  1  0.46254800  0.17250100  0.55247800  1
  Ga  Ga1  1  0.96254800  0.32749900  0.44752200  1
  Ga  Ga2  1  0.46254800  0.17250100  0.94752200  1
  Ga  Ga3  1  0.96254800  0.32749900  0.05247800  1
  Ga  Ga4  1  0.96254800  0.67250100  0.55247800  1
  Ga  Ga5  1  0.46254800  0.82749900  0.44752200  1
  Ga  Ga6  1  0.96254800  0.67250100  0.94752200  1
  Ga  Ga7  1  0.46254800  0.82749900  0.05247800  1
  Pb  Pb8  1  0.00113500  0.02866400  0.75000000  1
  Pb  Pb9  1  0.50113500  0.47133600  0.25000000  1
  Pb  Pb10  1  0.50113500  0.52866400  0.75000000  1
  Pb  Pb11  1  0.00113500  0.97133600  0.25000000  1
  O  O12  1  0.32264250  0.19125750  0.75000000  1
  O  O13  1  0.82264250  0.30874250  0.25000000  1
  O  O14  1  0.32340800  0.00000000  0.50000000  1
  O  O15  1  0.32340800  0.00000000  0.00000000  1
  O  O16  1  0.80970900  0.18308500  0.55904000  1
  O  O17  1  0.30970900  0.31691500  0.44096000  1
  O  O18  1  0.30970900  0.31691500  0.05904000  1
  O  O19  1  0.80970900  0.18308500  0.94096000  1
  O  O20  1  0.82264250  0.69125750  0.75000000  1
  O  O21  1  0.32264250  0.80874250  0.25000000  1
  O  O22  1  0.82340800  0.50000000  0.50000000  1
  O  O23  1  0.82340800  0.50000000  0.00000000  1
  O  O24  1  0.30970900  0.68308500  0.55904000  1
  O  O25  1  0.80970900  0.81691500  0.44096000  1
  O  O26  1  0.80970900  0.81691500  0.05904000  1
  O  O27  1  0.30970900  0.68308500  0.94096000  1
