# generated using pymatgen
data_RbBiO2
_symmetry_space_group_name_H-M   'P 1'
_cell_length_a   8.20918200
_cell_length_b   8.77656000
_cell_length_c   6.09947392
_cell_angle_alpha   90.00000000
_cell_angle_beta   124.11010899
_cell_angle_gamma   90.00000000
_symmetry_Int_Tables_number   1
_chemical_formula_structural   RbBiO2
_chemical_formula_sum   'Rb4 Bi4 O8'
_cell_volume   363.85360503
_cell_formula_units_Z   4
loop_
 _symmetry_equiv_pos_site_id
 _symmetry_equiv_pos_as_xyz
  1  'x, y, z'
loop_
 _atom_site_type_symbol
 _atom_site_label
 _atom_site_symmetry_multiplicity
 _atom_site_fract_x
 _atom_site_fract_y
 _atom_site_fract_z
 _atom_site_occupancy
  Rb  Rb0  1  0.50000000  0.13469900  0.25000000  1
  Rb  Rb1  1  0.50000000  0.86530100  0.75000000  1
  Rb  Rb2  1  0.00000000  0.63469900  0.25000000  1
  Rb  Rb3  1  0.00000000  0.36530100  0.75000000  1
  Bi  Bi4  1  0.50000000  0.40873600  0.75000000  1
  Bi  Bi5  1  0.50000000  0.59126400  0.25000000  1
  Bi  Bi6  1  0.00000000  0.90873600  0.75000000  1
  Bi  Bi7  1  0.00000000  0.09126400  0.25000000  1
  O  O8  1  0.18400400  0.06207800  0.71508500  1
  O  O9  1  0.81599600  0.06207800  0.78491500  1
  O  O10  1  0.18400400  0.93792200  0.21508500  1
  O  O11  1  0.81599600  0.93792200  0.28491500  1
  O  O12  1  0.68400400  0.56207800  0.71508500  1
  O  O13  1  0.31599600  0.56207800  0.78491500  1
  O  O14  1  0.68400400  0.43792200  0.21508500  1
  O  O15  1  0.31599600  0.43792200  0.28491500  1
