# generated using pymatgen
data_Cs6Cl4O
_symmetry_space_group_name_H-M   'P 1'
_cell_length_a   13.57270639
_cell_length_b   13.57270639
_cell_length_c   16.94882343
_cell_angle_alpha   90.00000000
_cell_angle_beta   90.00000000
_cell_angle_gamma   120.00000000
_symmetry_Int_Tables_number   1
_chemical_formula_structural   Cs6Cl4O
_chemical_formula_sum   'Cs36 Cl24 O6'
_cell_volume   2703.97763724
_cell_formula_units_Z   6
loop_
 _symmetry_equiv_pos_site_id
 _symmetry_equiv_pos_as_xyz
  1  'x, y, z'
loop_
 _atom_site_type_symbol
 _atom_site_label
 _atom_site_symmetry_multiplicity
 _atom_site_fract_x
 _atom_site_fract_y
 _atom_site_fract_z
 _atom_site_occupancy
  Cs  Cs0  1  0.69939067  0.17905833  0.23432533  1
  Cs  Cs1  1  0.47966767  0.30060933  0.23432533  1
  Cs  Cs2  1  0.82094167  0.52033233  0.23432533  1
  Cs  Cs3  1  0.17905833  0.69939067  0.26567467  1
  Cs  Cs4  1  0.30060933  0.47966767  0.26567467  1
  Cs  Cs5  1  0.52033233  0.82094167  0.26567467  1
  Cs  Cs6  1  0.18699900  0.03272400  0.09900800  1
  Cs  Cs7  1  0.96727600  0.15427500  0.09900800  1
  Cs  Cs8  1  0.84572500  0.81300100  0.09900800  1
  Cs  Cs9  1  0.48760833  0.63394267  0.06765867  1
  Cs  Cs10  1  0.36605733  0.85366567  0.06765867  1
  Cs  Cs11  1  0.14633433  0.51239167  0.06765867  1
  Cs  Cs12  1  0.36605733  0.51239167  0.56765867  1
  Cs  Cs13  1  0.14633433  0.63394267  0.56765867  1
  Cs  Cs14  1  0.48760833  0.85366567  0.56765867  1
  Cs  Cs15  1  0.84572500  0.03272400  0.59900800  1
  Cs  Cs16  1  0.96727600  0.81300100  0.59900800  1
  Cs  Cs17  1  0.18699900  0.15427500  0.59900800  1
  Cs  Cs18  1  0.85366567  0.36605733  0.43234133  1
  Cs  Cs19  1  0.63394267  0.48760833  0.43234133  1
  Cs  Cs20  1  0.51239167  0.14633433  0.43234133  1
  Cs  Cs21  1  0.15427500  0.96727600  0.40099200  1
  Cs  Cs22  1  0.03272400  0.18699900  0.40099200  1
  Cs  Cs23  1  0.81300100  0.84572500  0.40099200  1
  Cs  Cs24  1  0.03272400  0.84572500  0.90099200  1
  Cs  Cs25  1  0.81300100  0.96727600  0.90099200  1
  Cs  Cs26  1  0.15427500  0.18699900  0.90099200  1
  Cs  Cs27  1  0.51239167  0.36605733  0.93234133  1
  Cs  Cs28  1  0.63394267  0.14633433  0.93234133  1
  Cs  Cs29  1  0.85366567  0.48760833  0.93234133  1
  Cs  Cs30  1  0.52033233  0.69939067  0.76567467  1
  Cs  Cs31  1  0.30060933  0.82094167  0.76567467  1
  Cs  Cs32  1  0.17905833  0.47966767  0.76567467  1
  Cs  Cs33  1  0.82094167  0.30060933  0.73432533  1
  Cs  Cs34  1  0.69939067  0.52033233  0.73432533  1
  Cs  Cs35  1  0.47966767  0.17905833  0.73432533  1
  Cl  Cl36  1  0.33333333  0.66666667  0.41666667  1
  Cl  Cl37  1  0.33333333  0.66666667  0.91666667  1
  Cl  Cl38  1  0.28449367  0.33333333  0.08333333  1
  Cl  Cl39  1  0.66666667  0.95116033  0.08333333  1
  Cl  Cl40  1  0.04883967  0.71550633  0.08333333  1
  Cl  Cl41  1  0.38217300  0.00000000  0.25000000  1
  Cl  Cl42  1  0.00000000  0.38217300  0.25000000  1
  Cl  Cl43  1  0.61782700  0.61782700  0.25000000  1
  Cl  Cl44  1  0.00000000  0.00000000  0.75000000  1
  Cl  Cl45  1  0.00000000  0.00000000  0.25000000  1
  Cl  Cl46  1  0.95116033  0.66666667  0.41666667  1
  Cl  Cl47  1  0.33333333  0.28449367  0.41666667  1
  Cl  Cl48  1  0.71550633  0.04883967  0.41666667  1
  Cl  Cl49  1  0.04883967  0.33333333  0.58333333  1
  Cl  Cl50  1  0.66666667  0.71550633  0.58333333  1
  Cl  Cl51  1  0.28449367  0.95116033  0.58333333  1
  Cl  Cl52  1  0.66666667  0.33333333  0.08333333  1
  Cl  Cl53  1  0.66666667  0.33333333  0.58333333  1
  Cl  Cl54  1  0.61782700  0.00000000  0.75000000  1
  Cl  Cl55  1  0.00000000  0.61782700  0.75000000  1
  Cl  Cl56  1  0.38217300  0.38217300  0.75000000  1
  Cl  Cl57  1  0.71550633  0.66666667  0.91666667  1
  Cl  Cl58  1  0.33333333  0.04883967  0.91666667  1
  Cl  Cl59  1  0.95116033  0.28449367  0.91666667  1
  O  O60  1  0.33333333  0.66666667  0.16666667  1
  O  O61  1  0.00000000  0.00000000  0.00000000  1
  O  O62  1  1.00000000  0.00000000  0.50000000  1
  O  O63  1  0.66666667  0.33333333  0.33333333  1
  O  O64  1  0.66666667  0.33333333  0.83333333  1
  O  O65  1  0.33333333  0.66666667  0.66666667  1
