# generated using pymatgen
data_Au2Se4O11
_symmetry_space_group_name_H-M   'P 1'
_cell_length_a   20.83560200
_cell_length_b   4.30961800
_cell_length_c   13.85126753
_cell_angle_alpha   90.00000000
_cell_angle_beta   114.43445281
_cell_angle_gamma   90.00000000
_symmetry_Int_Tables_number   1
_chemical_formula_structural   Au2Se4O11
_chemical_formula_sum   'Au8 Se16 O44'
_cell_volume   1132.35691072
_cell_formula_units_Z   4
loop_
 _symmetry_equiv_pos_site_id
 _symmetry_equiv_pos_as_xyz
  1  'x, y, z'
loop_
 _atom_site_type_symbol
 _atom_site_label
 _atom_site_symmetry_multiplicity
 _atom_site_fract_x
 _atom_site_fract_y
 _atom_site_fract_z
 _atom_site_occupancy
  Au  Au0  1  0.25000000  0.25000000  0.50000000  1
  Au  Au1  1  0.75000000  0.25000000  0.00000000  1
  Au  Au2  1  0.00000000  0.00000000  0.50000000  1
  Au  Au3  1  0.00000000  0.00000000  0.00000000  1
  Au  Au4  1  0.75000000  0.75000000  0.50000000  1
  Au  Au5  1  0.25000000  0.75000000  0.00000000  1
  Au  Au6  1  0.50000000  0.50000000  0.50000000  1
  Au  Au7  1  0.50000000  0.50000000  0.00000000  1
  Se  Se8  1  0.92456600  0.75938200  0.25540000  1
  Se  Se9  1  0.07543400  0.75938200  0.24460000  1
  Se  Se10  1  0.07543400  0.24061800  0.74460000  1
  Se  Se11  1  0.92456600  0.24061800  0.75540000  1
  Se  Se12  1  0.83376000  0.23811300  0.41552600  1
  Se  Se13  1  0.66624000  0.73811300  0.08447400  1
  Se  Se14  1  0.16624000  0.76188700  0.58447400  1
  Se  Se15  1  0.33376000  0.26188700  0.91552600  1
  Se  Se16  1  0.42456600  0.25938200  0.25540000  1
  Se  Se17  1  0.57543400  0.25938200  0.24460000  1
  Se  Se18  1  0.57543400  0.74061800  0.74460000  1
  Se  Se19  1  0.42456600  0.74061800  0.75540000  1
  Se  Se20  1  0.33376000  0.73811300  0.41552600  1
  Se  Se21  1  0.16624000  0.23811300  0.08447400  1
  Se  Se22  1  0.66624000  0.26188700  0.58447400  1
  Se  Se23  1  0.83376000  0.76188700  0.91552600  1
  O  O24  1  0.00000000  0.98255900  0.25000000  1
  O  O25  1  0.00000000  0.01744100  0.75000000  1
  O  O26  1  0.87304100  0.05650600  0.25038800  1
  O  O27  1  0.62695900  0.55650600  0.24961200  1
  O  O28  1  0.12695900  0.94349400  0.74961200  1
  O  O29  1  0.37304100  0.44349400  0.75038800  1
  O  O30  1  0.96478600  0.65168600  0.39101700  1
  O  O31  1  0.03521400  0.65168600  0.10898300  1
  O  O32  1  0.03521400  0.34831400  0.60898300  1
  O  O33  1  0.96478600  0.34831400  0.89101700  1
  O  O34  1  0.76799800  0.95404300  0.37996800  1
  O  O35  1  0.73200200  0.45404300  0.12003200  1
  O  O36  1  0.90408650  0.98226150  0.00351400  1
  O  O37  1  0.09591350  0.98226150  0.49648600  1
  O  O38  1  0.09591350  0.01773850  0.99648600  1
  O  O39  1  0.90408650  0.01773850  0.50351400  1
  O  O40  1  0.82390600  0.58105300  0.02280200  1
  O  O41  1  0.17609400  0.58105300  0.47719800  1
  O  O42  1  0.17609400  0.41894700  0.97719800  1
  O  O43  1  0.82390600  0.41894700  0.52280200  1
  O  O44  1  0.26799800  0.54595700  0.87996800  1
  O  O45  1  0.23200200  0.04595700  0.62003200  1
  O  O46  1  0.50000000  0.48255900  0.25000000  1
  O  O47  1  0.50000000  0.51744100  0.75000000  1
  O  O48  1  0.37304100  0.55650600  0.25038800  1
  O  O49  1  0.12695900  0.05650600  0.24961200  1
  O  O50  1  0.62695900  0.44349400  0.74961200  1
  O  O51  1  0.87304100  0.94349400  0.75038800  1
  O  O52  1  0.46478600  0.15168600  0.39101700  1
  O  O53  1  0.53521400  0.15168600  0.10898300  1
  O  O54  1  0.53521400  0.84831400  0.60898300  1
  O  O55  1  0.46478600  0.84831400  0.89101700  1
  O  O56  1  0.26799800  0.45404300  0.37996800  1
  O  O57  1  0.23200200  0.95404300  0.12003200  1
  O  O58  1  0.40408650  0.48226150  0.00351400  1
  O  O59  1  0.59591350  0.48226150  0.49648600  1
  O  O60  1  0.59591350  0.51773850  0.99648600  1
  O  O61  1  0.40408650  0.51773850  0.50351400  1
  O  O62  1  0.32390600  0.08105300  0.02280200  1
  O  O63  1  0.67609400  0.08105300  0.47719800  1
  O  O64  1  0.67609400  0.91894700  0.97719800  1
  O  O65  1  0.32390600  0.91894700  0.52280200  1
  O  O66  1  0.76799800  0.04595700  0.87996800  1
  O  O67  1  0.73200200  0.54595700  0.62003200  1
