# generated using pymatgen
data_K5ThF9
_symmetry_space_group_name_H-M   'P 1'
_cell_length_a   7.92916400
_cell_length_b   13.01030200
_cell_length_c   10.91048500
_cell_angle_alpha   90.00000000
_cell_angle_beta   90.00000000
_cell_angle_gamma   90.00000000
_symmetry_Int_Tables_number   1
_chemical_formula_structural   K5ThF9
_chemical_formula_sum   'K20 Th4 F36'
_cell_volume   1125.53456008
_cell_formula_units_Z   4
loop_
 _symmetry_equiv_pos_site_id
 _symmetry_equiv_pos_as_xyz
  1  'x, y, z'
loop_
 _atom_site_type_symbol
 _atom_site_label
 _atom_site_symmetry_multiplicity
 _atom_site_fract_x
 _atom_site_fract_y
 _atom_site_fract_z
 _atom_site_occupancy
  K  K0  1  0.24909750  0.89398550  0.09938400  1
  K  K1  1  0.75090250  0.10601450  0.59938400  1
  K  K2  1  0.75090250  0.89398550  0.09938400  1
  K  K3  1  0.24909750  0.10601450  0.59938400  1
  K  K4  1  0.25918700  0.86389600  0.44684600  1
  K  K5  1  0.74081300  0.13610400  0.94684600  1
  K  K6  1  0.74081300  0.86389600  0.44684600  1
  K  K7  1  0.25918700  0.13610400  0.94684600  1
  K  K8  1  0.50000000  0.07794700  0.28408000  1
  K  K9  1  0.50000000  0.92205300  0.78408000  1
  K  K10  1  0.74909750  0.39398550  0.09938400  1
  K  K11  1  0.25090250  0.60601450  0.59938400  1
  K  K12  1  0.25090250  0.39398550  0.09938400  1
  K  K13  1  0.74909750  0.60601450  0.59938400  1
  K  K14  1  0.75918700  0.36389600  0.44684600  1
  K  K15  1  0.24081300  0.63610400  0.94684600  1
  K  K16  1  0.24081300  0.36389600  0.44684600  1
  K  K17  1  0.75918700  0.63610400  0.94684600  1
  K  K18  1  0.00000000  0.57794700  0.28408000  1
  K  K19  1  0.00000000  0.42205300  0.78408000  1
  Th  Th20  1  0.50000000  0.66180200  0.25027200  1
  Th  Th21  1  0.50000000  0.33819800  0.75027200  1
  Th  Th22  1  0.00000000  0.16180200  0.25027200  1
  Th  Th23  1  0.00000000  0.83819800  0.75027200  1
  F  F24  1  0.27450500  0.22087800  0.22842600  1
  F  F25  1  0.72549500  0.77912200  0.72842600  1
  F  F26  1  0.72549500  0.22087800  0.22842600  1
  F  F27  1  0.27450500  0.77912200  0.72842600  1
  F  F28  1  0.18274900  0.03242300  0.32135900  1
  F  F29  1  0.81725100  0.96757700  0.82135900  1
  F  F30  1  0.81725100  0.03242300  0.32135900  1
  F  F31  1  0.18274900  0.96757700  0.82135900  1
  F  F32  1  0.50000000  0.01748300  0.04020900  1
  F  F33  1  0.50000000  0.98251700  0.54020900  1
  F  F34  1  0.50000000  0.74415400  0.05070800  1
  F  F35  1  0.50000000  0.25584600  0.55070800  1
  F  F36  1  0.50000000  0.45950600  0.59374400  1
  F  F37  1  0.50000000  0.54049400  0.09374400  1
  F  F38  1  0.50000000  0.30038900  0.95860700  1
  F  F39  1  0.50000000  0.69961100  0.45860700  1
  F  F40  1  0.50000000  0.15178600  0.77585100  1
  F  F41  1  0.50000000  0.84821400  0.27585100  1
  F  F42  1  0.77450500  0.72087800  0.22842600  1
  F  F43  1  0.22549500  0.27912200  0.72842600  1
  F  F44  1  0.22549500  0.72087800  0.22842600  1
  F  F45  1  0.77450500  0.27912200  0.72842600  1
  F  F46  1  0.68274900  0.53242300  0.32135900  1
  F  F47  1  0.31725100  0.46757700  0.82135900  1
  F  F48  1  0.31725100  0.53242300  0.32135900  1
  F  F49  1  0.68274900  0.46757700  0.82135900  1
  F  F50  1  0.00000000  0.51748300  0.04020900  1
  F  F51  1  0.00000000  0.48251700  0.54020900  1
  F  F52  1  0.00000000  0.24415400  0.05070800  1
  F  F53  1  0.00000000  0.75584600  0.55070800  1
  F  F54  1  0.00000000  0.95950600  0.59374400  1
  F  F55  1  0.00000000  0.04049400  0.09374400  1
  F  F56  1  0.00000000  0.80038900  0.95860700  1
  F  F57  1  0.00000000  0.19961100  0.45860700  1
  F  F58  1  0.00000000  0.65178600  0.77585100  1
  F  F59  1  0.00000000  0.34821400  0.27585100  1
