# generated using pymatgen
data_TlRe3(Se2Cl)2
_symmetry_space_group_name_H-M   'P 1'
_cell_length_a   6.68562900
_cell_length_b   9.11220428
_cell_length_c   9.16449947
_cell_angle_alpha   85.22973866
_cell_angle_beta   82.56066599
_cell_angle_gamma   69.43763901
_symmetry_Int_Tables_number   1
_chemical_formula_structural   TlRe3(Se2Cl)2
_chemical_formula_sum   'Tl2 Re6 Se8 Cl4'
_cell_volume   517.91186054
_cell_formula_units_Z   2
loop_
 _symmetry_equiv_pos_site_id
 _symmetry_equiv_pos_as_xyz
  1  'x, y, z'
loop_
 _atom_site_type_symbol
 _atom_site_label
 _atom_site_symmetry_multiplicity
 _atom_site_fract_x
 _atom_site_fract_y
 _atom_site_fract_z
 _atom_site_occupancy
  Tl  Tl0  1  0.17880400  0.64039900  0.46921300  1
  Tl  Tl1  1  0.82119600  0.35960100  0.53078700  1
  Re  Re2  1  0.27282500  0.92390900  0.02207300  1
  Re  Re3  1  0.32557100  0.17837600  0.10432600  1
  Re  Re4  1  0.67442900  0.82162400  0.89567400  1
  Re  Re5  1  0.40847900  0.10236200  0.82083700  1
  Re  Re6  1  0.59152100  0.89763800  0.17916300  1
  Re  Re7  1  0.72717500  0.07609100  0.97792700  1
  Se  Se8  1  0.97456700  0.78991300  0.05504400  1
  Se  Se9  1  0.53572000  0.65712500  0.09436900  1
  Se  Se10  1  0.36025800  0.85178200  0.75437400  1
  Se  Se11  1  0.46428000  0.34287500  0.90563100  1
  Se  Se12  1  0.20207600  0.99519000  0.29138400  1
  Se  Se13  1  0.79792400  0.00481000  0.70861600  1
  Se  Se14  1  0.63974200  0.14821800  0.24562600  1
  Se  Se15  1  0.02543300  0.21008700  0.94495600  1
  Cl  Cl16  1  0.09737500  0.41062600  0.23904900  1
  Cl  Cl17  1  0.70483600  0.76102000  0.41296700  1
  Cl  Cl18  1  0.90262500  0.58937400  0.76095100  1
  Cl  Cl19  1  0.29516400  0.23898000  0.58703300  1
