# generated using pymatgen
data_Si2H2O3
_symmetry_space_group_name_H-M   'P 1'
_cell_length_a   9.46409580
_cell_length_b   9.46409580
_cell_length_c   15.50931999
_cell_angle_alpha   90.00000000
_cell_angle_beta   90.00000000
_cell_angle_gamma   120.00000000
_symmetry_Int_Tables_number   1
_chemical_formula_structural   Si2H2O3
_chemical_formula_sum   'Si24 H24 O36'
_cell_volume   1203.04436496
_cell_formula_units_Z   12
loop_
 _symmetry_equiv_pos_site_id
 _symmetry_equiv_pos_as_xyz
  1  'x, y, z'
loop_
 _atom_site_type_symbol
 _atom_site_label
 _atom_site_symmetry_multiplicity
 _atom_site_fract_x
 _atom_site_fract_y
 _atom_site_fract_z
 _atom_site_occupancy
  Si  Si0  1  0.54086967  0.97376033  0.22529033  1
  Si  Si1  1  0.02623967  0.56710933  0.22529033  1
  Si  Si2  1  0.43289067  0.45913033  0.22529033  1
  Si  Si3  1  0.12579700  0.35957300  0.10804300  1
  Si  Si4  1  0.64042700  0.76622400  0.10804300  1
  Si  Si5  1  0.23377600  0.87420300  0.10804300  1
  Si  Si6  1  0.33333333  0.66666667  0.34260567  1
  Si  Si7  1  0.33333333  0.66666667  0.99072767  1
  Si  Si8  1  0.20753633  0.30709367  0.55862367  1
  Si  Si9  1  0.69290633  0.90044267  0.55862367  1
  Si  Si10  1  0.09955733  0.79246367  0.55862367  1
  Si  Si11  1  0.79246367  0.69290633  0.44137633  1
  Si  Si12  1  0.30709367  0.09955733  0.44137633  1
  Si  Si13  1  0.90044267  0.20753633  0.44137633  1
  Si  Si14  1  0.00000000  0.00000000  0.67593900  1
  Si  Si15  1  0.00000000  0.00000000  0.32406100  1
  Si  Si16  1  0.87420300  0.64042700  0.89195700  1
  Si  Si17  1  0.35957300  0.23377600  0.89195700  1
  Si  Si18  1  0.76622400  0.12579700  0.89195700  1
  Si  Si19  1  0.45913033  0.02623967  0.77470967  1
  Si  Si20  1  0.97376033  0.43289067  0.77470967  1
  Si  Si21  1  0.56710933  0.54086967  0.77470967  1
  Si  Si22  1  0.66666667  0.33333333  0.00927233  1
  Si  Si23  1  0.66666667  0.33333333  0.65739433  1
  H  H24  1  0.65268567  0.13974833  0.25666333  1
  H  H25  1  0.86025167  0.51293733  0.25666333  1
  H  H26  1  0.48706267  0.34731433  0.25666333  1
  H  H27  1  0.01398100  0.19358500  0.07667000  1
  H  H28  1  0.80641500  0.82039600  0.07667000  1
  H  H29  1  0.17960400  0.98601900  0.07667000  1
  H  H30  1  0.33333333  0.66666667  0.43735167  1
  H  H31  1  0.33333333  0.66666667  0.89598167  1
  H  H32  1  0.31935233  0.47308167  0.58999667  1
  H  H33  1  0.52691833  0.84627067  0.58999667  1
  H  H34  1  0.15372933  0.68064767  0.58999667  1
  H  H35  1  0.68064767  0.52691833  0.41000333  1
  H  H36  1  0.47308167  0.15372933  0.41000333  1
  H  H37  1  0.84627067  0.31935233  0.41000333  1
  H  H38  1  0.00000000  0.00000000  0.77068500  1
  H  H39  1  0.00000000  0.00000000  0.22931500  1
  H  H40  1  0.98601900  0.80641500  0.92333000  1
  H  H41  1  0.19358500  0.17960400  0.92333000  1
  H  H42  1  0.82039600  0.01398100  0.92333000  1
  H  H43  1  0.34731433  0.86025167  0.74333667  1
  H  H44  1  0.13974833  0.48706267  0.74333667  1
  H  H45  1  0.51293733  0.65268567  0.74333667  1
  H  H46  1  0.66666667  0.33333333  0.10401833  1
  H  H47  1  0.66666667  0.33333333  0.56264833  1
  O  O48  1  0.27607833  0.79408067  0.02523967  1
  O  O49  1  0.51800233  0.72392167  0.02523967  1
  O  O50  1  0.20591933  0.48199767  0.02523967  1
  O  O51  1  0.39058833  0.53925267  0.30809367  1
  O  O52  1  0.14866433  0.60941167  0.30809367  1
  O  O53  1  0.46074733  0.85133567  0.30809367  1
  O  O54  1  0.08749300  0.73027400  0.16560300  1
  O  O55  1  0.64278100  0.91250700  0.16560300  1
  O  O56  1  0.26972600  0.35721900  0.16560300  1
  O  O57  1  0.57917367  0.60305933  0.16773033  1
  O  O58  1  0.02388567  0.42082633  0.16773033  1
  O  O59  1  0.39694067  0.97611433  0.16773033  1
  O  O60  1  0.94274500  0.12741400  0.35857300  1
  O  O61  1  0.18466900  0.05725500  0.35857300  1
  O  O62  1  0.87258600  0.81533100  0.35857300  1
  O  O63  1  0.05725500  0.87258600  0.64142700  1
  O  O64  1  0.81533100  0.94274500  0.64142700  1
  O  O65  1  0.12741400  0.18466900  0.64142700  1
  O  O66  1  0.75415967  0.06360733  0.49893633  1
  O  O67  1  0.30944767  0.24584033  0.49893633  1
  O  O68  1  0.93639267  0.69055233  0.49893633  1
  O  O69  1  0.24584033  0.93639267  0.50106367  1
  O  O70  1  0.69055233  0.75415967  0.50106367  1
  O  O71  1  0.06360733  0.30944767  0.50106367  1
  O  O72  1  0.60941167  0.46074733  0.69190633  1
  O  O73  1  0.85133567  0.39058833  0.69190633  1
  O  O74  1  0.53925267  0.14866433  0.69190633  1
  O  O75  1  0.72392167  0.20591933  0.97476033  1
  O  O76  1  0.48199767  0.27607833  0.97476033  1
  O  O77  1  0.79408067  0.51800233  0.97476033  1
  O  O78  1  0.42082633  0.39694067  0.83226967  1
  O  O79  1  0.97611433  0.57917367  0.83226967  1
  O  O80  1  0.60305933  0.02388567  0.83226967  1
  O  O81  1  0.91250700  0.26972600  0.83439700  1
  O  O82  1  0.35721900  0.08749300  0.83439700  1
  O  O83  1  0.73027400  0.64278100  0.83439700  1
