# generated using pymatgen
data_Mg3P2(HO)16
_symmetry_space_group_name_H-M   'P 1'
_cell_length_a   10.16605000
_cell_length_b   13.43410800
_cell_length_c   4.69417527
_cell_angle_alpha   90.00000000
_cell_angle_beta   105.38513788
_cell_angle_gamma   90.00000000
_symmetry_Int_Tables_number   1
_chemical_formula_structural   Mg3P2(HO)16
_chemical_formula_sum   'Mg6 P4 H32 O32'
_cell_volume   618.11801934
_cell_formula_units_Z   2
loop_
 _symmetry_equiv_pos_site_id
 _symmetry_equiv_pos_as_xyz
  1  'x, y, z'
loop_
 _atom_site_type_symbol
 _atom_site_label
 _atom_site_symmetry_multiplicity
 _atom_site_fract_x
 _atom_site_fract_y
 _atom_site_fract_z
 _atom_site_occupancy
  Mg  Mg0  1  0.00000000  0.00000000  0.00000000  1
  Mg  Mg1  1  0.50000000  0.88950400  0.00000000  1
  Mg  Mg2  1  0.50000000  0.11049600  0.00000000  1
  Mg  Mg3  1  0.50000000  0.50000000  0.00000000  1
  Mg  Mg4  1  0.00000000  0.38950400  0.00000000  1
  Mg  Mg5  1  0.00000000  0.61049600  0.00000000  1
  P  P6  1  0.31350000  0.00000000  0.38608100  1
  P  P7  1  0.68650000  0.00000000  0.61391900  1
  P  P8  1  0.81350000  0.50000000  0.38608100  1
  P  P9  1  0.18650000  0.50000000  0.61391900  1
  H  H10  1  0.53984200  0.28087000  0.28778300  1
  H  H11  1  0.46015800  0.28087000  0.71221700  1
  H  H12  1  0.46015800  0.71913000  0.71221700  1
  H  H13  1  0.53984200  0.71913000  0.28778300  1
  H  H14  1  0.62670950  0.19394550  0.48898600  1
  H  H15  1  0.62670950  0.80605450  0.48898600  1
  H  H16  1  0.81046800  0.12394600  0.03916400  1
  H  H17  1  0.18953200  0.12394600  0.96083600  1
  H  H18  1  0.18953200  0.87605400  0.96083600  1
  H  H19  1  0.81046800  0.87605400  0.03916400  1
  H  H20  1  0.87497350  0.08091650  0.35962900  1
  H  H21  1  0.12502650  0.08091650  0.64037100  1
  H  H22  1  0.12502650  0.91908350  0.64037100  1
  H  H23  1  0.87497350  0.91908350  0.35962900  1
  H  H24  1  0.37329050  0.19394550  0.51101400  1
  H  H25  1  0.37329050  0.80605450  0.51101400  1
  H  H26  1  0.03984200  0.78087000  0.28778300  1
  H  H27  1  0.96015800  0.78087000  0.71221700  1
  H  H28  1  0.96015800  0.21913000  0.71221700  1
  H  H29  1  0.03984200  0.21913000  0.28778300  1
  H  H30  1  0.12670950  0.69394550  0.48898600  1
  H  H31  1  0.12670950  0.30605450  0.48898600  1
  H  H32  1  0.31046800  0.62394600  0.03916400  1
  H  H33  1  0.68953200  0.62394600  0.96083600  1
  H  H34  1  0.68953200  0.37605400  0.96083600  1
  H  H35  1  0.31046800  0.37605400  0.03916400  1
  H  H36  1  0.37497350  0.58091650  0.35962900  1
  H  H37  1  0.62502650  0.58091650  0.64037100  1
  H  H38  1  0.62502650  0.41908350  0.64037100  1
  H  H39  1  0.37497350  0.41908350  0.35962900  1
  H  H40  1  0.87329050  0.69394550  0.51101400  1
  H  H41  1  0.87329050  0.30605450  0.51101400  1
  O  O42  1  0.40042950  0.61296250  0.18876400  1
  O  O43  1  0.59734450  0.77795650  0.28560700  1
  O  O44  1  0.40265550  0.77795650  0.71439300  1
  O  O45  1  0.40265550  0.22204350  0.71439300  1
  O  O46  1  0.59734450  0.22204350  0.28560700  1
  O  O47  1  0.40042950  0.38703750  0.18876400  1
  O  O48  1  0.34197750  0.90343750  0.22825100  1
  O  O49  1  0.65802250  0.90343750  0.77174900  1
  O  O50  1  0.65802250  0.09656250  0.77174900  1
  O  O51  1  0.34197750  0.09656250  0.22825100  1
  O  O52  1  0.60241300  0.00000000  0.28592000  1
  O  O53  1  0.39758700  0.00000000  0.71408000  1
  O  O54  1  0.84208500  0.00000000  0.61897200  1
  O  O55  1  0.15791500  0.00000000  0.38102800  1
  O  O56  1  0.59957050  0.61296250  0.81123600  1
  O  O57  1  0.59957050  0.38703750  0.81123600  1
  O  O58  1  0.90042950  0.11296250  0.18876400  1
  O  O59  1  0.09734450  0.27795650  0.28560700  1
  O  O60  1  0.90265550  0.27795650  0.71439300  1
  O  O61  1  0.90265550  0.72204350  0.71439300  1
  O  O62  1  0.09734450  0.72204350  0.28560700  1
  O  O63  1  0.90042950  0.88703750  0.18876400  1
  O  O64  1  0.84197750  0.40343750  0.22825100  1
  O  O65  1  0.15802250  0.40343750  0.77174900  1
  O  O66  1  0.15802250  0.59656250  0.77174900  1
  O  O67  1  0.84197750  0.59656250  0.22825100  1
  O  O68  1  0.10241300  0.50000000  0.28592000  1
  O  O69  1  0.89758700  0.50000000  0.71408000  1
  O  O70  1  0.34208500  0.50000000  0.61897200  1
  O  O71  1  0.65791500  0.50000000  0.38102800  1
  O  O72  1  0.09957050  0.11296250  0.81123600  1
  O  O73  1  0.09957050  0.88703750  0.81123600  1
