# generated using pymatgen
data_IF5
_symmetry_space_group_name_H-M   'P 1'
_cell_length_a   15.57044800
_cell_length_b   7.11747200
_cell_length_c   18.78309395
_cell_angle_alpha   90.00000000
_cell_angle_beta   93.36704963
_cell_angle_gamma   90.00000000
_symmetry_Int_Tables_number   1
_chemical_formula_structural   IF5
_chemical_formula_sum   'I20 F100'
_cell_volume   2077.99101966
_cell_formula_units_Z   20
loop_
 _symmetry_equiv_pos_site_id
 _symmetry_equiv_pos_as_xyz
  1  'x, y, z'
loop_
 _atom_site_type_symbol
 _atom_site_label
 _atom_site_symmetry_multiplicity
 _atom_site_fract_x
 _atom_site_fract_y
 _atom_site_fract_z
 _atom_site_occupancy
  I  I0  1  0.78568250  0.31176350  0.15401600  1
  I  I1  1  0.71431750  0.81176350  0.34598400  1
  I  I2  1  0.71431750  0.18823650  0.84598400  1
  I  I3  1  0.78568250  0.68823650  0.65401600  1
  I  I4  1  0.89377400  0.30645000  0.44660700  1
  I  I5  1  0.60622600  0.80645000  0.05339300  1
  I  I6  1  0.60622600  0.19355000  0.55339300  1
  I  I7  1  0.89377400  0.69355000  0.94660700  1
  I  I8  1  0.00000000  0.74690800  0.25000000  1
  I  I9  1  0.00000000  0.25309200  0.75000000  1
  I  I10  1  0.28568250  0.81176350  0.15401600  1
  I  I11  1  0.21431750  0.31176350  0.34598400  1
  I  I12  1  0.21431750  0.68823650  0.84598400  1
  I  I13  1  0.28568250  0.18823650  0.65401600  1
  I  I14  1  0.39377400  0.80645000  0.44660700  1
  I  I15  1  0.10622600  0.30645000  0.05339300  1
  I  I16  1  0.10622600  0.69355000  0.55339300  1
  I  I17  1  0.39377400  0.19355000  0.94660700  1
  I  I18  1  0.50000000  0.24690800  0.25000000  1
  I  I19  1  0.50000000  0.75309200  0.75000000  1
  F  F20  1  0.82554600  0.46651600  0.07823800  1
  F  F21  1  0.67445400  0.96651600  0.42176200  1
  F  F22  1  0.67445400  0.03348400  0.92176200  1
  F  F23  1  0.82554600  0.53348400  0.57823800  1
  F  F24  1  0.71285200  0.17850700  0.08397800  1
  F  F25  1  0.78714800  0.67850700  0.41602200  1
  F  F26  1  0.78714800  0.32149300  0.91602200  1
  F  F27  1  0.71285200  0.82149300  0.58397800  1
  F  F28  1  0.77082000  0.11172000  0.22131600  1
  F  F29  1  0.72918000  0.61172000  0.27868400  1
  F  F30  1  0.00000000  0.99222700  0.75000000  1
  F  F31  1  0.00000000  0.00777300  0.25000000  1
  F  F32  1  0.89708150  0.21434750  0.80125700  1
  F  F33  1  0.60291850  0.71434750  0.69874300  1
  F  F34  1  0.60291850  0.28565250  0.19874300  1
  F  F35  1  0.89708150  0.78565250  0.30125700  1
  F  F36  1  0.93218550  0.21713250  0.66261100  1
  F  F37  1  0.56781450  0.71713250  0.83738900  1
  F  F38  1  0.56781450  0.28286750  0.33738900  1
  F  F39  1  0.93218550  0.78286750  0.16261100  1
  F  F40  1  0.93887200  0.91500000  0.91209700  1
  F  F41  1  0.56112800  0.41500000  0.58790300  1
  F  F42  1  0.56112800  0.58500000  0.08790300  1
  F  F43  1  0.93887200  0.08500000  0.41209700  1
  F  F44  1  0.99739250  0.70328550  0.00775500  1
  F  F45  1  0.50260750  0.20328550  0.49224500  1
  F  F46  1  0.50260750  0.79671450  0.99224500  1
  F  F47  1  0.99739250  0.29671450  0.50775500  1
  F  F48  1  0.83942200  0.86416100  0.00900300  1
  F  F49  1  0.66057800  0.36416100  0.49099700  1
  F  F50  1  0.66057800  0.63583900  0.99099700  1
  F  F51  1  0.83942200  0.13583900  0.50900300  1
  F  F52  1  0.80319600  0.75018800  0.87504900  1
  F  F53  1  0.69680400  0.25018800  0.62495100  1
  F  F54  1  0.69680400  0.74981200  0.12495100  1
  F  F55  1  0.80319600  0.24981200  0.37504900  1
  F  F56  1  0.95849350  0.58451350  0.87240200  1
  F  F57  1  0.54150650  0.08451350  0.62759800  1
  F  F58  1  0.54150650  0.91548650  0.12759800  1
  F  F59  1  0.95849350  0.41548650  0.37240200  1
  F  F60  1  0.86850100  0.84925700  0.62271200  1
  F  F61  1  0.63149900  0.34925700  0.87728800  1
  F  F62  1  0.63149900  0.65074300  0.37728800  1
  F  F63  1  0.86850100  0.15074300  0.12271200  1
  F  F64  1  0.88028300  0.59825400  0.71582000  1
  F  F65  1  0.61971700  0.09825400  0.78418000  1
  F  F66  1  0.61971700  0.90174600  0.28418000  1
  F  F67  1  0.88028300  0.40174600  0.21582000  1
  F  F68  1  0.77082000  0.88828000  0.72131600  1
  F  F69  1  0.72918000  0.38828000  0.77868400  1
  F  F70  1  0.32554600  0.96651600  0.07823800  1
  F  F71  1  0.17445400  0.46651600  0.42176200  1
  F  F72  1  0.17445400  0.53348400  0.92176200  1
  F  F73  1  0.32554600  0.03348400  0.57823800  1
  F  F74  1  0.21285200  0.67850700  0.08397800  1
  F  F75  1  0.28714800  0.17850700  0.41602200  1
  F  F76  1  0.28714800  0.82149300  0.91602200  1
  F  F77  1  0.21285200  0.32149300  0.58397800  1
  F  F78  1  0.27082000  0.61172000  0.22131600  1
  F  F79  1  0.22918000  0.11172000  0.27868400  1
  F  F80  1  0.50000000  0.49222700  0.75000000  1
  F  F81  1  0.50000000  0.50777300  0.25000000  1
  F  F82  1  0.39708150  0.71434750  0.80125700  1
  F  F83  1  0.10291850  0.21434750  0.69874300  1
  F  F84  1  0.10291850  0.78565250  0.19874300  1
  F  F85  1  0.39708150  0.28565250  0.30125700  1
  F  F86  1  0.43218550  0.71713250  0.66261100  1
  F  F87  1  0.06781450  0.21713250  0.83738900  1
  F  F88  1  0.06781450  0.78286750  0.33738900  1
  F  F89  1  0.43218550  0.28286750  0.16261100  1
  F  F90  1  0.43887200  0.41500000  0.91209700  1
  F  F91  1  0.06112800  0.91500000  0.58790300  1
  F  F92  1  0.06112800  0.08500000  0.08790300  1
  F  F93  1  0.43887200  0.58500000  0.41209700  1
  F  F94  1  0.49739250  0.20328550  0.00775500  1
  F  F95  1  0.00260750  0.70328550  0.49224500  1
  F  F96  1  0.00260750  0.29671450  0.99224500  1
  F  F97  1  0.49739250  0.79671450  0.50775500  1
  F  F98  1  0.33942200  0.36416100  0.00900300  1
  F  F99  1  0.16057800  0.86416100  0.49099700  1
  F  F100  1  0.16057800  0.13583900  0.99099700  1
  F  F101  1  0.33942200  0.63583900  0.50900300  1
  F  F102  1  0.30319600  0.25018800  0.87504900  1
  F  F103  1  0.19680400  0.75018800  0.62495100  1
  F  F104  1  0.19680400  0.24981200  0.12495100  1
  F  F105  1  0.30319600  0.74981200  0.37504900  1
  F  F106  1  0.45849350  0.08451350  0.87240200  1
  F  F107  1  0.04150650  0.58451350  0.62759800  1
  F  F108  1  0.04150650  0.41548650  0.12759800  1
  F  F109  1  0.45849350  0.91548650  0.37240200  1
  F  F110  1  0.36850100  0.34925700  0.62271200  1
  F  F111  1  0.13149900  0.84925700  0.87728800  1
  F  F112  1  0.13149900  0.15074300  0.37728800  1
  F  F113  1  0.36850100  0.65074300  0.12271200  1
  F  F114  1  0.38028300  0.09825400  0.71582000  1
  F  F115  1  0.11971700  0.59825400  0.78418000  1
  F  F116  1  0.11971700  0.40174600  0.28418000  1
  F  F117  1  0.38028300  0.90174600  0.21582000  1
  F  F118  1  0.27082000  0.38828000  0.72131600  1
  F  F119  1  0.22918000  0.88828000  0.77868400  1
