# generated using pymatgen
data_K2NaAlH6
_symmetry_space_group_name_H-M   'P 1'
_cell_length_a   8.12678800
_cell_length_b   8.12678800
_cell_length_c   8.12678800
_cell_angle_alpha   90.00000000
_cell_angle_beta   90.00000000
_cell_angle_gamma   90.00000000
_symmetry_Int_Tables_number   1
_chemical_formula_structural   K2NaAlH6
_chemical_formula_sum   'K8 Na4 Al4 H24'
_cell_volume   536.73113887
_cell_formula_units_Z   4
loop_
 _symmetry_equiv_pos_site_id
 _symmetry_equiv_pos_as_xyz
  1  'x, y, z'
loop_
 _atom_site_type_symbol
 _atom_site_label
 _atom_site_symmetry_multiplicity
 _atom_site_fract_x
 _atom_site_fract_y
 _atom_site_fract_z
 _atom_site_occupancy
  K  K0  1  0.25000000  0.75000000  0.75000000  1
  K  K1  1  0.25000000  0.25000000  0.75000000  1
  K  K2  1  0.25000000  0.25000000  0.25000000  1
  K  K3  1  0.25000000  0.75000000  0.25000000  1
  K  K4  1  0.75000000  0.75000000  0.25000000  1
  K  K5  1  0.75000000  0.25000000  0.25000000  1
  K  K6  1  0.75000000  0.25000000  0.75000000  1
  K  K7  1  0.75000000  0.75000000  0.75000000  1
  Na  Na8  1  0.50000000  0.00000000  0.00000000  1
  Na  Na9  1  0.50000000  0.50000000  0.50000000  1
  Na  Na10  1  0.00000000  0.00000000  0.50000000  1
  Na  Na11  1  0.00000000  0.50000000  0.00000000  1
  Al  Al12  1  0.00000000  0.00000000  0.00000000  1
  Al  Al13  1  0.00000000  0.50000000  0.50000000  1
  Al  Al14  1  0.50000000  0.00000000  0.50000000  1
  Al  Al15  1  0.50000000  0.50000000  0.00000000  1
  H  H16  1  0.50000000  0.71832600  0.00000000  1
  H  H17  1  0.78167400  0.00000000  0.00000000  1
  H  H18  1  0.50000000  0.28167400  0.00000000  1
  H  H19  1  0.21832600  0.00000000  0.00000000  1
  H  H20  1  0.00000000  0.00000000  0.78167400  1
  H  H21  1  0.50000000  0.00000000  0.71832600  1
  H  H22  1  0.50000000  0.21832600  0.50000000  1
  H  H23  1  0.78167400  0.50000000  0.50000000  1
  H  H24  1  0.50000000  0.78167400  0.50000000  1
  H  H25  1  0.21832600  0.50000000  0.50000000  1
  H  H26  1  0.00000000  0.50000000  0.28167400  1
  H  H27  1  0.50000000  0.50000000  0.21832600  1
  H  H28  1  0.00000000  0.71832600  0.50000000  1
  H  H29  1  0.28167400  0.00000000  0.50000000  1
  H  H30  1  0.00000000  0.28167400  0.50000000  1
  H  H31  1  0.71832600  0.00000000  0.50000000  1
  H  H32  1  0.50000000  0.00000000  0.28167400  1
  H  H33  1  0.00000000  0.00000000  0.21832600  1
  H  H34  1  0.00000000  0.21832600  0.00000000  1
  H  H35  1  0.28167400  0.50000000  0.00000000  1
  H  H36  1  0.00000000  0.78167400  0.00000000  1
  H  H37  1  0.71832600  0.50000000  0.00000000  1
  H  H38  1  0.50000000  0.50000000  0.78167400  1
  H  H39  1  0.00000000  0.50000000  0.71832600  1
