# generated using pymatgen
data_SrTa2Bi2O9
_symmetry_space_group_name_H-M   'P 1'
_cell_length_a   5.60194000
_cell_length_b   25.52053400
_cell_length_c   5.61412500
_cell_angle_alpha   90.00000000
_cell_angle_beta   90.00000000
_cell_angle_gamma   90.00000000
_symmetry_Int_Tables_number   1
_chemical_formula_structural   SrTa2Bi2O9
_chemical_formula_sum   'Sr4 Ta8 Bi8 O36'
_cell_volume   802.62057489
_cell_formula_units_Z   4
loop_
 _symmetry_equiv_pos_site_id
 _symmetry_equiv_pos_as_xyz
  1  'x, y, z'
loop_
 _atom_site_type_symbol
 _atom_site_label
 _atom_site_symmetry_multiplicity
 _atom_site_fract_x
 _atom_site_fract_y
 _atom_site_fract_z
 _atom_site_occupancy
  Sr  Sr0  1  0.25066800  0.00000000  0.98338900  1
  Sr  Sr1  1  0.74933200  0.00000000  0.48338900  1
  Sr  Sr2  1  0.75066800  0.50000000  0.98338900  1
  Sr  Sr3  1  0.24933200  0.50000000  0.48338900  1
  Ta  Ta4  1  0.25214450  0.58259750  0.97789700  1
  Ta  Ta5  1  0.74785550  0.58259750  0.47789700  1
  Ta  Ta6  1  0.75214450  0.91740250  0.97789700  1
  Ta  Ta7  1  0.24785550  0.91740250  0.47789700  1
  Ta  Ta8  1  0.75214450  0.08259750  0.97789700  1
  Ta  Ta9  1  0.24785550  0.08259750  0.47789700  1
  Ta  Ta10  1  0.25214450  0.41740250  0.97789700  1
  Ta  Ta11  1  0.74785550  0.41740250  0.47789700  1
  Bi  Bi12  1  0.71528600  0.70014600  0.07325700  1
  Bi  Bi13  1  0.78471400  0.79985400  0.57325700  1
  Bi  Bi14  1  0.28471400  0.70014600  0.57325700  1
  Bi  Bi15  1  0.21528600  0.79985400  0.07325700  1
  Bi  Bi16  1  0.21528600  0.20014600  0.07325700  1
  Bi  Bi17  1  0.28471400  0.29985400  0.57325700  1
  Bi  Bi18  1  0.78471400  0.20014600  0.57325700  1
  Bi  Bi19  1  0.71528600  0.29985400  0.07325700  1
  O  O20  1  0.98501800  0.58456000  0.20395000  1
  O  O21  1  0.51498200  0.91544000  0.70395000  1
  O  O22  1  0.01498200  0.58456000  0.70395000  1
  O  O23  1  0.48501800  0.91544000  0.20395000  1
  O  O24  1  0.48893450  0.56613950  0.22712500  1
  O  O25  1  0.01106550  0.93386050  0.72712500  1
  O  O26  1  0.51106550  0.56613950  0.72712500  1
  O  O27  1  0.98893450  0.93386050  0.22712500  1
  O  O28  1  0.48179300  0.75072900  0.28804600  1
  O  O29  1  0.01820700  0.74927100  0.78804600  1
  O  O30  1  0.29895100  0.00000000  0.46229000  1
  O  O31  1  0.70104900  0.00000000  0.96229000  1
  O  O32  1  0.67311550  0.65519450  0.45838600  1
  O  O33  1  0.82688450  0.84480550  0.95838600  1
  O  O34  1  0.32688450  0.65519450  0.95838600  1
  O  O35  1  0.17311550  0.84480550  0.45838600  1
  O  O36  1  0.98179300  0.74927100  0.28804600  1
  O  O37  1  0.51820700  0.75072900  0.78804600  1
  O  O38  1  0.48501800  0.08456000  0.20395000  1
  O  O39  1  0.01498200  0.41544000  0.70395000  1
  O  O40  1  0.51498200  0.08456000  0.70395000  1
  O  O41  1  0.98501800  0.41544000  0.20395000  1
  O  O42  1  0.98893450  0.06613950  0.22712500  1
  O  O43  1  0.51106550  0.43386050  0.72712500  1
  O  O44  1  0.01106550  0.06613950  0.72712500  1
  O  O45  1  0.48893450  0.43386050  0.22712500  1
  O  O46  1  0.98179300  0.25072900  0.28804600  1
  O  O47  1  0.51820700  0.24927100  0.78804600  1
  O  O48  1  0.79895100  0.50000000  0.46229000  1
  O  O49  1  0.20104900  0.50000000  0.96229000  1
  O  O50  1  0.17311550  0.15519450  0.45838600  1
  O  O51  1  0.32688450  0.34480550  0.95838600  1
  O  O52  1  0.82688450  0.15519450  0.95838600  1
  O  O53  1  0.67311550  0.34480550  0.45838600  1
  O  O54  1  0.48179300  0.24927100  0.28804600  1
  O  O55  1  0.01820700  0.25072900  0.78804600  1
