# generated using pymatgen
data_CsCu2Cl3
_symmetry_space_group_name_H-M   'P 1'
_cell_length_a   9.73662200
_cell_length_b   12.50647800
_cell_length_c   5.34507700
_cell_angle_alpha   90.00000000
_cell_angle_beta   90.00000000
_cell_angle_gamma   90.00000000
_symmetry_Int_Tables_number   1
_chemical_formula_structural   CsCu2Cl3
_chemical_formula_sum   'Cs4 Cu8 Cl12'
_cell_volume   650.87456339
_cell_formula_units_Z   4
loop_
 _symmetry_equiv_pos_site_id
 _symmetry_equiv_pos_as_xyz
  1  'x, y, z'
loop_
 _atom_site_type_symbol
 _atom_site_label
 _atom_site_symmetry_multiplicity
 _atom_site_fract_x
 _atom_site_fract_y
 _atom_site_fract_z
 _atom_site_occupancy
  Cs  Cs0  1  0.50000000  0.81240900  0.25000000  1
  Cs  Cs1  1  0.50000000  0.18759100  0.75000000  1
  Cs  Cs2  1  0.00000000  0.31240900  0.25000000  1
  Cs  Cs3  1  0.00000000  0.68759100  0.75000000  1
  Cu  Cu4  1  0.16630600  0.00000000  0.00000000  1
  Cu  Cu5  1  0.83369400  0.00000000  0.00000000  1
  Cu  Cu6  1  0.83369400  0.00000000  0.50000000  1
  Cu  Cu7  1  0.16630600  0.00000000  0.50000000  1
  Cu  Cu8  1  0.66630600  0.50000000  0.00000000  1
  Cu  Cu9  1  0.33369400  0.50000000  0.00000000  1
  Cu  Cu10  1  0.33369400  0.50000000  0.50000000  1
  Cu  Cu11  1  0.66630600  0.50000000  0.50000000  1
  Cl  Cl12  1  0.50000000  0.39257000  0.25000000  1
  Cl  Cl13  1  0.50000000  0.60743000  0.75000000  1
  Cl  Cl14  1  0.27970850  0.11900250  0.25000000  1
  Cl  Cl15  1  0.72029150  0.88099750  0.75000000  1
  Cl  Cl16  1  0.72029150  0.11900250  0.25000000  1
  Cl  Cl17  1  0.27970850  0.88099750  0.75000000  1
  Cl  Cl18  1  0.00000000  0.89257000  0.25000000  1
  Cl  Cl19  1  0.00000000  0.10743000  0.75000000  1
  Cl  Cl20  1  0.77970850  0.61900250  0.25000000  1
  Cl  Cl21  1  0.22029150  0.38099750  0.75000000  1
  Cl  Cl22  1  0.22029150  0.61900250  0.25000000  1
  Cl  Cl23  1  0.77970850  0.38099750  0.75000000  1
