# generated using pymatgen
data_NaInSe2
_symmetry_space_group_name_H-M   'P 1'
_cell_length_a   4.03727115
_cell_length_b   4.03727115
_cell_length_c   21.18623055
_cell_angle_alpha   90.00000000
_cell_angle_beta   90.00000000
_cell_angle_gamma   120.00000000
_symmetry_Int_Tables_number   1
_chemical_formula_structural   NaInSe2
_chemical_formula_sum   'Na3 In3 Se6'
_cell_volume   299.06126210
_cell_formula_units_Z   3
loop_
 _symmetry_equiv_pos_site_id
 _symmetry_equiv_pos_as_xyz
  1  'x, y, z'
loop_
 _atom_site_type_symbol
 _atom_site_label
 _atom_site_symmetry_multiplicity
 _atom_site_fract_x
 _atom_site_fract_y
 _atom_site_fract_z
 _atom_site_occupancy
  Na  Na0  1  0.33333333  0.66666667  0.16666667  1
  Na  Na1  1  1.00000000  1.00000000  0.50000000  1
  Na  Na2  1  0.66666667  0.33333333  0.83333333  1
  In  In3  1  0.00000000  0.00000000  0.00000000  1
  In  In4  1  0.66666667  0.33333333  0.33333333  1
  In  In5  1  0.33333333  0.66666667  0.66666667  1
  Se  Se6  1  0.66666667  0.33333333  0.07365333  1
  Se  Se7  1  0.00000000  0.00000000  0.25968000  1
  Se  Se8  1  0.33333333  0.66666667  0.40698667  1
  Se  Se9  1  0.66666667  0.33333333  0.59301333  1
  Se  Se10  1  0.00000000  0.00000000  0.74032000  1
  Se  Se11  1  0.33333333  0.66666667  0.92634667  1
