# generated using pymatgen
data_Na6MnCl8
_symmetry_space_group_name_H-M   'P 1'
_cell_length_a   11.32758600
_cell_length_b   11.32758600
_cell_length_c   11.32758600
_cell_angle_alpha   90.00000000
_cell_angle_beta   90.00000000
_cell_angle_gamma   90.00000000
_symmetry_Int_Tables_number   1
_chemical_formula_structural   Na6MnCl8
_chemical_formula_sum   'Na24 Mn4 Cl32'
_cell_volume   1453.49018749
_cell_formula_units_Z   4
loop_
 _symmetry_equiv_pos_site_id
 _symmetry_equiv_pos_as_xyz
  1  'x, y, z'
loop_
 _atom_site_type_symbol
 _atom_site_label
 _atom_site_symmetry_multiplicity
 _atom_site_fract_x
 _atom_site_fract_y
 _atom_site_fract_z
 _atom_site_occupancy
  Na  Na0  1  0.75000000  0.00000000  0.75000000  1
  Na  Na1  1  0.00000000  0.75000000  0.75000000  1
  Na  Na2  1  0.00000000  0.25000000  0.75000000  1
  Na  Na3  1  0.25000000  0.00000000  0.75000000  1
  Na  Na4  1  0.25000000  0.25000000  0.00000000  1
  Na  Na5  1  0.25000000  0.75000000  0.00000000  1
  Na  Na6  1  0.75000000  0.50000000  0.25000000  1
  Na  Na7  1  0.00000000  0.25000000  0.25000000  1
  Na  Na8  1  0.00000000  0.75000000  0.25000000  1
  Na  Na9  1  0.25000000  0.50000000  0.25000000  1
  Na  Na10  1  0.25000000  0.75000000  0.50000000  1
  Na  Na11  1  0.25000000  0.25000000  0.50000000  1
  Na  Na12  1  0.25000000  0.00000000  0.25000000  1
  Na  Na13  1  0.50000000  0.75000000  0.25000000  1
  Na  Na14  1  0.50000000  0.25000000  0.25000000  1
  Na  Na15  1  0.75000000  0.00000000  0.25000000  1
  Na  Na16  1  0.75000000  0.25000000  0.50000000  1
  Na  Na17  1  0.75000000  0.75000000  0.50000000  1
  Na  Na18  1  0.25000000  0.50000000  0.75000000  1
  Na  Na19  1  0.50000000  0.25000000  0.75000000  1
  Na  Na20  1  0.50000000  0.75000000  0.75000000  1
  Na  Na21  1  0.75000000  0.50000000  0.75000000  1
  Na  Na22  1  0.75000000  0.75000000  0.00000000  1
  Na  Na23  1  0.75000000  0.25000000  0.00000000  1
  Mn  Mn24  1  0.00000000  0.00000000  0.00000000  1
  Mn  Mn25  1  0.00000000  0.50000000  0.50000000  1
  Mn  Mn26  1  0.50000000  0.00000000  0.50000000  1
  Mn  Mn27  1  0.50000000  0.50000000  0.00000000  1
  Cl  Cl28  1  0.25000000  0.75000000  0.75000000  1
  Cl  Cl29  1  0.22683100  0.00000000  0.00000000  1
  Cl  Cl30  1  0.25000000  0.25000000  0.75000000  1
  Cl  Cl31  1  0.50000000  0.72683100  0.00000000  1
  Cl  Cl32  1  0.77316900  0.00000000  0.00000000  1
  Cl  Cl33  1  0.50000000  0.00000000  0.72683100  1
  Cl  Cl34  1  0.00000000  0.00000000  0.77316900  1
  Cl  Cl35  1  0.50000000  0.27316900  0.00000000  1
  Cl  Cl36  1  0.25000000  0.25000000  0.25000000  1
  Cl  Cl37  1  0.22683100  0.50000000  0.50000000  1
  Cl  Cl38  1  0.25000000  0.75000000  0.25000000  1
  Cl  Cl39  1  0.50000000  0.22683100  0.50000000  1
  Cl  Cl40  1  0.77316900  0.50000000  0.50000000  1
  Cl  Cl41  1  0.50000000  0.50000000  0.22683100  1
  Cl  Cl42  1  0.00000000  0.50000000  0.27316900  1
  Cl  Cl43  1  0.50000000  0.77316900  0.50000000  1
  Cl  Cl44  1  0.75000000  0.75000000  0.25000000  1
  Cl  Cl45  1  0.72683100  0.00000000  0.50000000  1
  Cl  Cl46  1  0.75000000  0.25000000  0.25000000  1
  Cl  Cl47  1  0.00000000  0.72683100  0.50000000  1
  Cl  Cl48  1  0.27316900  0.00000000  0.50000000  1
  Cl  Cl49  1  0.00000000  0.00000000  0.22683100  1
  Cl  Cl50  1  0.50000000  0.00000000  0.27316900  1
  Cl  Cl51  1  0.00000000  0.27316900  0.50000000  1
  Cl  Cl52  1  0.75000000  0.25000000  0.75000000  1
  Cl  Cl53  1  0.72683100  0.50000000  0.00000000  1
  Cl  Cl54  1  0.75000000  0.75000000  0.75000000  1
  Cl  Cl55  1  0.00000000  0.22683100  0.00000000  1
  Cl  Cl56  1  0.27316900  0.50000000  0.00000000  1
  Cl  Cl57  1  0.00000000  0.50000000  0.72683100  1
  Cl  Cl58  1  0.50000000  0.50000000  0.77316900  1
  Cl  Cl59  1  0.00000000  0.77316900  0.00000000  1
