# generated using pymatgen
data_Sc7NCl12
_symmetry_space_group_name_H-M   'P 1'
_cell_length_a   13.13773424
_cell_length_b   13.13773424
_cell_length_c   8.84167493
_cell_angle_alpha   90.00000000
_cell_angle_beta   90.00000000
_cell_angle_gamma   120.00000000
_symmetry_Int_Tables_number   1
_chemical_formula_structural   Sc7NCl12
_chemical_formula_sum   'Sc21 N3 Cl36'
_cell_volume   1321.61853232
_cell_formula_units_Z   3
loop_
 _symmetry_equiv_pos_site_id
 _symmetry_equiv_pos_as_xyz
  1  'x, y, z'
loop_
 _atom_site_type_symbol
 _atom_site_label
 _atom_site_symmetry_multiplicity
 _atom_site_fract_x
 _atom_site_fract_y
 _atom_site_fract_z
 _atom_site_occupancy
  Sc  Sc0  1  0.88636833  0.84348167  0.14177467  1
  Sc  Sc1  1  0.95711333  0.11363167  0.14177467  1
  Sc  Sc2  1  0.15651833  0.04288667  0.14177467  1
  Sc  Sc3  1  0.11363167  0.15651833  0.85822533  1
  Sc  Sc4  1  0.04288667  0.88636833  0.85822533  1
  Sc  Sc5  1  0.84348167  0.95711333  0.85822533  1
  Sc  Sc6  1  0.00000000  0.00000000  0.50000000  1
  Sc  Sc7  1  0.55303500  0.17681500  0.47510800  1
  Sc  Sc8  1  0.62378000  0.44696500  0.47510800  1
  Sc  Sc9  1  0.82318500  0.37622000  0.47510800  1
  Sc  Sc10  1  0.78029833  0.48985167  0.19155867  1
  Sc  Sc11  1  0.70955333  0.21970167  0.19155867  1
  Sc  Sc12  1  0.51014833  0.29044667  0.19155867  1
  Sc  Sc13  1  0.66666667  0.33333333  0.83333333  1
  Sc  Sc14  1  0.21970167  0.51014833  0.80844133  1
  Sc  Sc15  1  0.29044667  0.78029833  0.80844133  1
  Sc  Sc16  1  0.48985167  0.70955333  0.80844133  1
  Sc  Sc17  1  0.44696500  0.82318500  0.52489200  1
  Sc  Sc18  1  0.37622000  0.55303500  0.52489200  1
  Sc  Sc19  1  0.17681500  0.62378000  0.52489200  1
  Sc  Sc20  1  0.33333333  0.66666667  0.16666667  1
  N  N21  1  0.00000000  0.00000000  0.00000000  1
  N  N22  1  0.66666667  0.33333333  0.33333333  1
  N  N23  1  0.33333333  0.66666667  0.66666667  1
  Cl  Cl24  1  0.04941667  0.87293633  0.33148033  1
  Cl  Cl25  1  0.82351967  0.95058333  0.33148033  1
  Cl  Cl26  1  0.12706367  0.17648033  0.33148033  1
  Cl  Cl27  1  0.95058333  0.12706367  0.66851967  1
  Cl  Cl28  1  0.17648033  0.04941667  0.66851967  1
  Cl  Cl29  1  0.87293633  0.82351967  0.66851967  1
  Cl  Cl30  1  0.36045033  0.10726867  0.32919167  1
  Cl  Cl31  1  0.89273133  0.25318167  0.32919167  1
  Cl  Cl32  1  0.74681833  0.63954967  0.32919167  1
  Cl  Cl33  1  0.63954967  0.89273133  0.67080833  1
  Cl  Cl34  1  0.10726867  0.74681833  0.67080833  1
  Cl  Cl35  1  0.25318167  0.36045033  0.67080833  1
  Cl  Cl36  1  0.71608333  0.20626967  0.66481367  1
  Cl  Cl37  1  0.49018633  0.28391667  0.66481367  1
  Cl  Cl38  1  0.79373033  0.50981367  0.66481367  1
  Cl  Cl39  1  0.61725000  0.46039700  0.00185300  1
  Cl  Cl40  1  0.84314700  0.38275000  0.00185300  1
  Cl  Cl41  1  0.53960300  0.15685300  0.00185300  1
  Cl  Cl42  1  0.02711700  0.44060200  0.66252500  1
  Cl  Cl43  1  0.55939800  0.58651500  0.66252500  1
  Cl  Cl44  1  0.41348500  0.97288300  0.66252500  1
  Cl  Cl45  1  0.30621633  0.22606467  0.00414167  1
  Cl  Cl46  1  0.77393533  0.08015167  0.00414167  1
  Cl  Cl47  1  0.91984833  0.69378367  0.00414167  1
  Cl  Cl48  1  0.38275000  0.53960300  0.99814700  1
  Cl  Cl49  1  0.15685300  0.61725000  0.99814700  1
  Cl  Cl50  1  0.46039700  0.84314700  0.99814700  1
  Cl  Cl51  1  0.28391667  0.79373033  0.33518633  1
  Cl  Cl52  1  0.50981367  0.71608333  0.33518633  1
  Cl  Cl53  1  0.20626967  0.49018633  0.33518633  1
  Cl  Cl54  1  0.69378367  0.77393533  0.99585833  1
  Cl  Cl55  1  0.22606467  0.91984833  0.99585833  1
  Cl  Cl56  1  0.08015167  0.30621633  0.99585833  1
  Cl  Cl57  1  0.97288300  0.55939800  0.33747500  1
  Cl  Cl58  1  0.44060200  0.41348500  0.33747500  1
  Cl  Cl59  1  0.58651500  0.02711700  0.33747500  1
