# generated using pymatgen
data_Ca2Si5N8
_symmetry_space_group_name_H-M   'P 1'
_cell_length_a   14.43286600
_cell_length_b   5.63760800
_cell_length_c   9.75314394
_cell_angle_alpha   90.00000000
_cell_angle_beta   111.93857969
_cell_angle_gamma   90.00000000
_symmetry_Int_Tables_number   1
_chemical_formula_structural   Ca2Si5N8
_chemical_formula_sum   'Ca8 Si20 N32'
_cell_volume   736.11514988
_cell_formula_units_Z   4
loop_
 _symmetry_equiv_pos_site_id
 _symmetry_equiv_pos_as_xyz
  1  'x, y, z'
loop_
 _atom_site_type_symbol
 _atom_site_label
 _atom_site_symmetry_multiplicity
 _atom_site_fract_x
 _atom_site_fract_y
 _atom_site_fract_z
 _atom_site_occupancy
  Ca  Ca0  1  0.39086000  0.25285500  0.30337900  1
  Ca  Ca1  1  0.39086000  0.74714500  0.80337900  1
  Ca  Ca2  1  0.49899050  0.73591850  0.49752000  1
  Ca  Ca3  1  0.49899050  0.26408150  0.99752000  1
  Ca  Ca4  1  0.89086000  0.75285500  0.30337900  1
  Ca  Ca5  1  0.89086000  0.24714500  0.80337900  1
  Ca  Ca6  1  0.99899050  0.23591850  0.49752000  1
  Ca  Ca7  1  0.99899050  0.76408150  0.99752000  1
  Si  Si8  1  0.14438700  0.99781300  0.37359800  1
  Si  Si9  1  0.14438700  0.00218700  0.87359800  1
  Si  Si10  1  0.13752650  0.29204150  0.13189200  1
  Si  Si11  1  0.13752650  0.70795850  0.63189200  1
  Si  Si12  1  0.24576000  0.50328400  0.43689500  1
  Si  Si13  1  0.24576000  0.49671600  0.93689500  1
  Si  Si14  1  0.24438550  0.79039150  0.18186500  1
  Si  Si15  1  0.24438550  0.20960850  0.68186500  1
  Si  Si16  1  0.44232200  0.69471900  0.14688500  1
  Si  Si17  1  0.44232200  0.30528100  0.64688500  1
  Si  Si18  1  0.64438700  0.49781300  0.37359800  1
  Si  Si19  1  0.64438700  0.50218700  0.87359800  1
  Si  Si20  1  0.63752650  0.79204150  0.13189200  1
  Si  Si21  1  0.63752650  0.20795850  0.63189200  1
  Si  Si22  1  0.74576000  0.00328400  0.43689500  1
  Si  Si23  1  0.74576000  0.99671600  0.93689500  1
  Si  Si24  1  0.74438550  0.29039150  0.18186500  1
  Si  Si25  1  0.74438550  0.70960850  0.68186500  1
  Si  Si26  1  0.94232200  0.19471900  0.14688500  1
  Si  Si27  1  0.94232200  0.80528100  0.64688500  1
  N  N28  1  0.20451250  0.51693450  0.08398600  1
  N  N29  1  0.20451250  0.48306550  0.58398600  1
  N  N30  1  0.36903900  0.84478500  0.22720200  1
  N  N31  1  0.36903900  0.15521500  0.72720200  1
  N  N32  1  0.16605650  0.98620250  0.56473500  1
  N  N33  1  0.16605650  0.01379750  0.06473500  1
  N  N34  1  0.01880150  0.00326850  0.28247900  1
  N  N35  1  0.01880150  0.99673150  0.78247900  1
  N  N36  1  0.19667800  0.25244600  0.32401000  1
  N  N37  1  0.19667800  0.74755400  0.82401000  1
  N  N38  1  0.20471100  0.75811900  0.33028100  1
  N  N39  1  0.20471100  0.24188100  0.83028100  1
  N  N40  1  0.37134350  0.48918250  0.50321000  1
  N  N41  1  0.37134350  0.51081750  0.00321000  1
  N  N42  1  0.01322700  0.63844300  0.57016400  1
  N  N43  1  0.01322700  0.36155700  0.07016400  1
  N  N44  1  0.70451250  0.01693450  0.08398600  1
  N  N45  1  0.70451250  0.98306550  0.58398600  1
  N  N46  1  0.86903900  0.34478500  0.22720200  1
  N  N47  1  0.86903900  0.65521500  0.72720200  1
  N  N48  1  0.66605650  0.48620250  0.56473500  1
  N  N49  1  0.66605650  0.51379750  0.06473500  1
  N  N50  1  0.51880150  0.50326850  0.28247900  1
  N  N51  1  0.51880150  0.49673150  0.78247900  1
  N  N52  1  0.69667800  0.75244600  0.32401000  1
  N  N53  1  0.69667800  0.24755400  0.82401000  1
  N  N54  1  0.70471100  0.25811900  0.33028100  1
  N  N55  1  0.70471100  0.74188100  0.83028100  1
  N  N56  1  0.87134350  0.98918250  0.50321000  1
  N  N57  1  0.87134350  0.01081750  0.00321000  1
  N  N58  1  0.51322700  0.13844300  0.57016400  1
  N  N59  1  0.51322700  0.86155700  0.07016400  1
