# generated using pymatgen
data_InTe
_symmetry_space_group_name_H-M   'P 1'
_cell_length_a   8.62743400
_cell_length_b   8.62743400
_cell_length_c   7.22671800
_cell_angle_alpha   90.00000000
_cell_angle_beta   90.00000000
_cell_angle_gamma   90.00000000
_symmetry_Int_Tables_number   1
_chemical_formula_structural   InTe
_chemical_formula_sum   'In8 Te8'
_cell_volume   537.90353613
_cell_formula_units_Z   8
loop_
 _symmetry_equiv_pos_site_id
 _symmetry_equiv_pos_as_xyz
  1  'x, y, z'
loop_
 _atom_site_type_symbol
 _atom_site_label
 _atom_site_symmetry_multiplicity
 _atom_site_fract_x
 _atom_site_fract_y
 _atom_site_fract_z
 _atom_site_occupancy
  In  In0  1  0.00000000  0.00000000  0.75000000  1
  In  In1  1  0.00000000  0.00000000  0.25000000  1
  In  In2  1  0.00000000  0.50000000  0.25000000  1
  In  In3  1  0.50000000  0.00000000  0.25000000  1
  In  In4  1  0.50000000  0.50000000  0.25000000  1
  In  In5  1  0.50000000  0.50000000  0.75000000  1
  In  In6  1  0.50000000  0.00000000  0.75000000  1
  In  In7  1  0.00000000  0.50000000  0.75000000  1
  Te  Te8  1  0.68204200  0.18204200  0.00000000  1
  Te  Te9  1  0.18204200  0.31795800  0.00000000  1
  Te  Te10  1  0.31795800  0.18204200  0.50000000  1
  Te  Te11  1  0.81795800  0.31795800  0.50000000  1
  Te  Te12  1  0.18204200  0.68204200  0.50000000  1
  Te  Te13  1  0.68204200  0.81795800  0.50000000  1
  Te  Te14  1  0.81795800  0.68204200  0.00000000  1
  Te  Te15  1  0.31795800  0.81795800  0.00000000  1
