# generated using pymatgen
data_P4(SO2)3
_symmetry_space_group_name_H-M   'P 1'
_cell_length_a   10.18478100
_cell_length_b   8.68306400
_cell_length_c   12.95302621
_cell_angle_alpha   90.00000000
_cell_angle_beta   91.10393762
_cell_angle_gamma   90.00000000
_symmetry_Int_Tables_number   1
_chemical_formula_structural   P4(SO2)3
_chemical_formula_sum   'P16 S12 O24'
_cell_volume   1145.28961961
_cell_formula_units_Z   4
loop_
 _symmetry_equiv_pos_site_id
 _symmetry_equiv_pos_as_xyz
  1  'x, y, z'
loop_
 _atom_site_type_symbol
 _atom_site_label
 _atom_site_symmetry_multiplicity
 _atom_site_fract_x
 _atom_site_fract_y
 _atom_site_fract_z
 _atom_site_occupancy
  P  P0  1  0.67085800  0.51504800  0.86700300  1
  P  P1  1  0.82914200  0.01504800  0.13299700  1
  P  P2  1  0.05043300  0.21415800  0.73413800  1
  P  P3  1  0.17085800  0.98495200  0.86700300  1
  P  P4  1  0.40099300  0.56080200  0.79044600  1
  P  P5  1  0.09900700  0.06080200  0.20955400  1
  P  P6  1  0.59900700  0.43919800  0.20955400  1
  P  P7  1  0.90099300  0.93919800  0.79044600  1
  P  P8  1  0.62401100  0.58163100  0.65075000  1
  P  P9  1  0.87598900  0.08163100  0.34925000  1
  P  P10  1  0.37598900  0.41836900  0.34925000  1
  P  P11  1  0.12401100  0.91836900  0.65075000  1
  P  P12  1  0.55043300  0.28584200  0.73413800  1
  P  P13  1  0.94956700  0.78584200  0.26586200  1
  P  P14  1  0.44956700  0.71415800  0.26586200  1
  P  P15  1  0.32914200  0.48495200  0.13299700  1
  S  S16  1  0.69325700  0.68220700  0.53583700  1
  S  S17  1  0.30674300  0.31779300  0.46416300  1
  S  S18  1  0.19325700  0.81779300  0.53583700  1
  S  S19  1  0.78976300  0.54527900  0.97812300  1
  S  S20  1  0.71023700  0.04527900  0.02187700  1
  S  S21  1  0.21023700  0.45472100  0.02187700  1
  S  S22  1  0.28976300  0.95472100  0.97812300  1
  S  S23  1  0.54070600  0.07408600  0.70520000  1
  S  S24  1  0.95929400  0.57408600  0.29480000  1
  S  S25  1  0.45929400  0.92591400  0.29480000  1
  S  S26  1  0.04070600  0.42591400  0.70520000  1
  S  S27  1  0.80674300  0.18220700  0.46416300  1
  O  O28  1  0.52180600  0.57603500  0.88038400  1
  O  O29  1  0.78839000  0.09576900  0.24187800  1
  O  O30  1  0.28839000  0.40423100  0.24187800  1
  O  O31  1  0.21161000  0.90423100  0.75812200  1
  O  O32  1  0.48021500  0.63446100  0.68911000  1
  O  O33  1  0.01978500  0.13446100  0.31089000  1
  O  O34  1  0.51978500  0.36553900  0.31089000  1
  O  O35  1  0.98021500  0.86553900  0.68911000  1
  O  O36  1  0.64677800  0.33634700  0.83114000  1
  O  O37  1  0.85322200  0.83634700  0.16886000  1
  O  O38  1  0.35322200  0.66365300  0.16886000  1
  O  O39  1  0.14677800  0.16365300  0.83114000  1
  O  O40  1  0.91498400  0.12732200  0.76250500  1
  O  O41  1  0.71161000  0.59576900  0.75812200  1
  O  O42  1  0.58501600  0.62732200  0.23749500  1
  O  O43  1  0.08501600  0.87267800  0.23749500  1
  O  O44  1  0.97819400  0.07603500  0.11961600  1
  O  O45  1  0.47819400  0.42396500  0.11961600  1
  O  O46  1  0.02180600  0.92396500  0.88038400  1
  O  O47  1  0.60662500  0.39447800  0.64165900  1
  O  O48  1  0.89337500  0.89447800  0.35834100  1
  O  O49  1  0.39337500  0.60552200  0.35834100  1
  O  O50  1  0.10662500  0.10552200  0.64165900  1
  O  O51  1  0.41498400  0.37267800  0.76250500  1
