# generated using pymatgen
data_Dy2GeO5
_symmetry_space_group_name_H-M   'P 1'
_cell_length_a   14.98372200
_cell_length_b   6.90263400
_cell_length_c   10.55627268
_cell_angle_alpha   90.00000000
_cell_angle_beta   121.82799487
_cell_angle_gamma   90.00000000
_symmetry_Int_Tables_number   1
_chemical_formula_structural   Dy2GeO5
_chemical_formula_sum   'Dy16 Ge8 O40'
_cell_volume   927.63603015
_cell_formula_units_Z   8
loop_
 _symmetry_equiv_pos_site_id
 _symmetry_equiv_pos_as_xyz
  1  'x, y, z'
loop_
 _atom_site_type_symbol
 _atom_site_label
 _atom_site_symmetry_multiplicity
 _atom_site_fract_x
 _atom_site_fract_y
 _atom_site_fract_z
 _atom_site_occupancy
  Dy  Dy0  1  0.03530050  0.24175750  0.96611900  1
  Dy  Dy1  1  0.96469950  0.24175750  0.53388100  1
  Dy  Dy2  1  0.96469950  0.75824250  0.03388100  1
  Dy  Dy3  1  0.03530050  0.75824250  0.46611900  1
  Dy  Dy4  1  0.13785050  0.87400850  0.83792800  1
  Dy  Dy5  1  0.86214950  0.87400850  0.66207200  1
  Dy  Dy6  1  0.86214950  0.12599150  0.16207200  1
  Dy  Dy7  1  0.13785050  0.12599150  0.33792800  1
  Dy  Dy8  1  0.53530050  0.74175750  0.96611900  1
  Dy  Dy9  1  0.46469950  0.74175750  0.53388100  1
  Dy  Dy10  1  0.46469950  0.25824250  0.03388100  1
  Dy  Dy11  1  0.53530050  0.25824250  0.46611900  1
  Dy  Dy12  1  0.63785050  0.37400850  0.83792800  1
  Dy  Dy13  1  0.36214950  0.37400850  0.66207200  1
  Dy  Dy14  1  0.36214950  0.62599150  0.16207200  1
  Dy  Dy15  1  0.63785050  0.62599150  0.33792800  1
  Ge  Ge16  1  0.31511150  0.90576450  0.69194000  1
  Ge  Ge17  1  0.18488850  0.40576450  0.80806000  1
  Ge  Ge18  1  0.68488850  0.09423550  0.30806000  1
  Ge  Ge19  1  0.81511150  0.59423550  0.19194000  1
  Ge  Ge20  1  0.81511150  0.40576450  0.69194000  1
  Ge  Ge21  1  0.68488850  0.90576450  0.80806000  1
  Ge  Ge22  1  0.18488850  0.59423550  0.30806000  1
  Ge  Ge23  1  0.31511150  0.09423550  0.19194000  1
  O  O24  1  0.79533950  0.42374750  0.05519600  1
  O  O25  1  0.20466050  0.42374750  0.44480400  1
  O  O26  1  0.20466050  0.57625250  0.94480400  1
  O  O27  1  0.79533950  0.57625250  0.55519600  1
  O  O28  1  0.91609150  0.50696750  0.36749100  1
  O  O29  1  0.58390850  0.00696750  0.13250900  1
  O  O30  1  0.08390850  0.49303250  0.63250900  1
  O  O31  1  0.41609150  0.99303250  0.86749100  1
  O  O32  1  0.19568500  0.84550000  0.67568000  1
  O  O33  1  0.30431500  0.34550000  0.82432000  1
  O  O34  1  0.80431500  0.15450000  0.32432000  1
  O  O35  1  0.69568500  0.65450000  0.17568000  1
  O  O36  1  0.01635350  0.09702150  0.39673900  1
  O  O37  1  0.98364650  0.09702150  0.10326100  1
  O  O38  1  0.98364650  0.90297850  0.60326100  1
  O  O39  1  0.01635350  0.90297850  0.89673900  1
  O  O40  1  0.11712500  0.79728400  0.32457100  1
  O  O41  1  0.88287500  0.79728400  0.17542900  1
  O  O42  1  0.88287500  0.20271600  0.67542900  1
  O  O43  1  0.11712500  0.20271600  0.82457100  1
  O  O44  1  0.29533950  0.92374750  0.05519600  1
  O  O45  1  0.70466050  0.92374750  0.44480400  1
  O  O46  1  0.70466050  0.07625250  0.94480400  1
  O  O47  1  0.29533950  0.07625250  0.55519600  1
  O  O48  1  0.41609150  0.00696750  0.36749100  1
  O  O49  1  0.08390850  0.50696750  0.13250900  1
  O  O50  1  0.58390850  0.99303250  0.63250900  1
  O  O51  1  0.91609150  0.49303250  0.86749100  1
  O  O52  1  0.69568500  0.34550000  0.67568000  1
  O  O53  1  0.80431500  0.84550000  0.82432000  1
  O  O54  1  0.30431500  0.65450000  0.32432000  1
  O  O55  1  0.19568500  0.15450000  0.17568000  1
  O  O56  1  0.51635350  0.59702150  0.39673900  1
  O  O57  1  0.48364650  0.59702150  0.10326100  1
  O  O58  1  0.48364650  0.40297850  0.60326100  1
  O  O59  1  0.51635350  0.40297850  0.89673900  1
  O  O60  1  0.61712500  0.29728400  0.32457100  1
  O  O61  1  0.38287500  0.29728400  0.17542900  1
  O  O62  1  0.38287500  0.70271600  0.67542900  1
  O  O63  1  0.61712500  0.70271600  0.82457100  1
