# generated using pymatgen
data_Sr5Al2F16
_symmetry_space_group_name_H-M   'P 1'
_cell_length_a   7.58857600
_cell_length_b   12.61389800
_cell_length_c   14.30435500
_cell_angle_alpha   90.00000000
_cell_angle_beta   90.00000000
_cell_angle_gamma   90.00000000
_symmetry_Int_Tables_number   1
_chemical_formula_structural   Sr5Al2F16
_chemical_formula_sum   'Sr20 Al8 F64'
_cell_volume   1369.23465513
_cell_formula_units_Z   4
loop_
 _symmetry_equiv_pos_site_id
 _symmetry_equiv_pos_as_xyz
  1  'x, y, z'
loop_
 _atom_site_type_symbol
 _atom_site_label
 _atom_site_symmetry_multiplicity
 _atom_site_fract_x
 _atom_site_fract_y
 _atom_site_fract_z
 _atom_site_occupancy
  Sr  Sr0  1  0.00000000  0.00000000  0.71775900  1
  Sr  Sr1  1  0.00000000  0.00000000  0.28224100  1
  Sr  Sr2  1  0.50000000  0.00000000  0.78224100  1
  Sr  Sr3  1  0.50000000  0.00000000  0.21775900  1
  Sr  Sr4  1  0.50000000  0.00000000  0.50000000  1
  Sr  Sr5  1  0.00000000  0.00000000  0.00000000  1
  Sr  Sr6  1  0.25000000  0.25000000  0.62684300  1
  Sr  Sr7  1  0.25000000  0.75000000  0.37315700  1
  Sr  Sr8  1  0.25000000  0.75000000  0.87315700  1
  Sr  Sr9  1  0.25000000  0.25000000  0.12684300  1
  Sr  Sr10  1  0.50000000  0.50000000  0.71775900  1
  Sr  Sr11  1  0.50000000  0.50000000  0.28224100  1
  Sr  Sr12  1  0.00000000  0.50000000  0.78224100  1
  Sr  Sr13  1  0.00000000  0.50000000  0.21775900  1
  Sr  Sr14  1  0.00000000  0.50000000  0.50000000  1
  Sr  Sr15  1  0.50000000  0.50000000  0.00000000  1
  Sr  Sr16  1  0.75000000  0.75000000  0.62684300  1
  Sr  Sr17  1  0.75000000  0.25000000  0.37315700  1
  Sr  Sr18  1  0.75000000  0.25000000  0.87315700  1
  Sr  Sr19  1  0.75000000  0.75000000  0.12684300  1
  Al  Al20  1  0.25000000  0.75000000  0.62180900  1
  Al  Al21  1  0.25000000  0.25000000  0.37819100  1
  Al  Al22  1  0.25000000  0.25000000  0.87819100  1
  Al  Al23  1  0.25000000  0.75000000  0.12180900  1
  Al  Al24  1  0.75000000  0.25000000  0.62180900  1
  Al  Al25  1  0.75000000  0.75000000  0.37819100  1
  Al  Al26  1  0.75000000  0.75000000  0.87819100  1
  Al  Al27  1  0.75000000  0.25000000  0.12180900  1
  F  F28  1  0.34939850  0.83152550  0.71277700  1
  F  F29  1  0.65060150  0.16847450  0.71277700  1
  F  F30  1  0.34939850  0.16847450  0.28722300  1
  F  F31  1  0.65060150  0.83152550  0.28722300  1
  F  F32  1  0.65060150  0.66847450  0.78722300  1
  F  F33  1  0.34939850  0.33152550  0.78722300  1
  F  F34  1  0.65060150  0.33152550  0.21277700  1
  F  F35  1  0.34939850  0.66847450  0.21277700  1
  F  F36  1  0.54875550  0.33314150  0.62231300  1
  F  F37  1  0.45124450  0.66685850  0.62231300  1
  F  F38  1  0.54875550  0.66685850  0.37768700  1
  F  F39  1  0.45124450  0.33314150  0.37768700  1
  F  F40  1  0.45124450  0.16685850  0.87768700  1
  F  F41  1  0.54875550  0.83314150  0.87768700  1
  F  F42  1  0.33494850  0.66552950  0.02986700  1
  F  F43  1  0.66505150  0.33447050  0.02986700  1
  F  F44  1  0.33494850  0.33447050  0.97013300  1
  F  F45  1  0.66505150  0.66552950  0.97013300  1
  F  F46  1  0.66505150  0.83447050  0.47013300  1
  F  F47  1  0.33494850  0.16552950  0.47013300  1
  F  F48  1  0.66505150  0.16552950  0.52986700  1
  F  F49  1  0.33494850  0.83447050  0.52986700  1
  F  F50  1  0.81051450  0.94727450  0.14612900  1
  F  F51  1  0.18948550  0.05272550  0.14612900  1
  F  F52  1  0.81051450  0.05272550  0.85387100  1
  F  F53  1  0.18948550  0.94727450  0.85387100  1
  F  F54  1  0.68948550  0.05272550  0.35387100  1
  F  F55  1  0.31051450  0.94727450  0.35387100  1
  F  F56  1  0.68948550  0.94727450  0.64612900  1
  F  F57  1  0.31051450  0.05272550  0.64612900  1
  F  F58  1  0.54875550  0.16685850  0.12231300  1
  F  F59  1  0.45124450  0.83314150  0.12231300  1
  F  F60  1  0.84939850  0.33152550  0.71277700  1
  F  F61  1  0.15060150  0.66847450  0.71277700  1
  F  F62  1  0.84939850  0.66847450  0.28722300  1
  F  F63  1  0.15060150  0.33152550  0.28722300  1
  F  F64  1  0.15060150  0.16847450  0.78722300  1
  F  F65  1  0.84939850  0.83152550  0.78722300  1
  F  F66  1  0.15060150  0.83152550  0.21277700  1
  F  F67  1  0.84939850  0.16847450  0.21277700  1
  F  F68  1  0.04875550  0.83314150  0.62231300  1
  F  F69  1  0.95124450  0.16685850  0.62231300  1
  F  F70  1  0.04875550  0.16685850  0.37768700  1
  F  F71  1  0.95124450  0.83314150  0.37768700  1
  F  F72  1  0.95124450  0.66685850  0.87768700  1
  F  F73  1  0.04875550  0.33314150  0.87768700  1
  F  F74  1  0.83494850  0.16552950  0.02986700  1
  F  F75  1  0.16505150  0.83447050  0.02986700  1
  F  F76  1  0.83494850  0.83447050  0.97013300  1
  F  F77  1  0.16505150  0.16552950  0.97013300  1
  F  F78  1  0.16505150  0.33447050  0.47013300  1
  F  F79  1  0.83494850  0.66552950  0.47013300  1
  F  F80  1  0.16505150  0.66552950  0.52986700  1
  F  F81  1  0.83494850  0.33447050  0.52986700  1
  F  F82  1  0.31051450  0.44727450  0.14612900  1
  F  F83  1  0.68948550  0.55272550  0.14612900  1
  F  F84  1  0.31051450  0.55272550  0.85387100  1
  F  F85  1  0.68948550  0.44727450  0.85387100  1
  F  F86  1  0.18948550  0.55272550  0.35387100  1
  F  F87  1  0.81051450  0.44727450  0.35387100  1
  F  F88  1  0.18948550  0.44727450  0.64612900  1
  F  F89  1  0.81051450  0.55272550  0.64612900  1
  F  F90  1  0.04875550  0.66685850  0.12231300  1
  F  F91  1  0.95124450  0.33314150  0.12231300  1
