# generated using pymatgen
data_Tl3PdCl5
_symmetry_space_group_name_H-M   'P 1'
_cell_length_a   7.78994800
_cell_length_b   16.70955900
_cell_length_c   16.76956400
_cell_angle_alpha   90.00000000
_cell_angle_beta   90.00000000
_cell_angle_gamma   90.00000000
_symmetry_Int_Tables_number   1
_chemical_formula_structural   Tl3PdCl5
_chemical_formula_sum   'Tl24 Pd8 Cl40'
_cell_volume   2182.83705747
_cell_formula_units_Z   8
loop_
 _symmetry_equiv_pos_site_id
 _symmetry_equiv_pos_as_xyz
  1  'x, y, z'
loop_
 _atom_site_type_symbol
 _atom_site_label
 _atom_site_symmetry_multiplicity
 _atom_site_fract_x
 _atom_site_fract_y
 _atom_site_fract_z
 _atom_site_occupancy
  Tl  Tl0  1  0.87429000  0.05876500  0.19422800  1
  Tl  Tl1  1  0.37429000  0.44123500  0.80577200  1
  Tl  Tl2  1  0.12571000  0.55876500  0.30577200  1
  Tl  Tl3  1  0.62571000  0.94123500  0.69422800  1
  Tl  Tl4  1  0.12571000  0.94123500  0.80577200  1
  Tl  Tl5  1  0.62571000  0.55876500  0.19422800  1
  Tl  Tl6  1  0.87429000  0.44123500  0.69422800  1
  Tl  Tl7  1  0.37429000  0.05876500  0.30577200  1
  Tl  Tl8  1  0.11097100  0.40321000  0.08552400  1
  Tl  Tl9  1  0.61097100  0.09679000  0.91447600  1
  Tl  Tl10  1  0.88902900  0.90321000  0.41447600  1
  Tl  Tl11  1  0.38902900  0.59679000  0.58552400  1
  Tl  Tl12  1  0.88902900  0.59679000  0.91447600  1
  Tl  Tl13  1  0.38902900  0.90321000  0.08552400  1
  Tl  Tl14  1  0.11097100  0.09679000  0.58552400  1
  Tl  Tl15  1  0.61097100  0.40321000  0.41447600  1
  Tl  Tl16  1  0.58921200  0.29565500  0.14963800  1
  Tl  Tl17  1  0.08921200  0.20434500  0.85036200  1
  Tl  Tl18  1  0.41078800  0.79565500  0.35036200  1
  Tl  Tl19  1  0.91078800  0.70434500  0.64963800  1
  Tl  Tl20  1  0.41078800  0.70434500  0.85036200  1
  Tl  Tl21  1  0.91078800  0.79565500  0.14963800  1
  Tl  Tl22  1  0.58921200  0.20434500  0.64963800  1
  Tl  Tl23  1  0.08921200  0.29565500  0.35036200  1
  Pd  Pd24  1  0.19157000  0.14173700  0.07159500  1
  Pd  Pd25  1  0.69157000  0.35826300  0.92840500  1
  Pd  Pd26  1  0.80843000  0.64173700  0.42840500  1
  Pd  Pd27  1  0.30843000  0.85826300  0.57159500  1
  Pd  Pd28  1  0.80843000  0.85826300  0.92840500  1
  Pd  Pd29  1  0.30843000  0.64173700  0.07159500  1
  Pd  Pd30  1  0.19157000  0.35826300  0.57159500  1
  Pd  Pd31  1  0.69157000  0.14173700  0.42840500  1
  Cl  Cl32  1  0.37432600  0.42740200  0.23773300  1
  Cl  Cl33  1  0.87432600  0.07259800  0.76226700  1
  Cl  Cl34  1  0.62567400  0.92740200  0.26226700  1
  Cl  Cl35  1  0.12567400  0.57259800  0.73773300  1
  Cl  Cl36  1  0.62567400  0.57259800  0.76226700  1
  Cl  Cl37  1  0.12567400  0.92740200  0.23773300  1
  Cl  Cl38  1  0.37432600  0.07259800  0.73773300  1
  Cl  Cl39  1  0.87432600  0.42740200  0.26226700  1
  Cl  Cl40  1  0.93314400  0.19611100  0.02619400  1
  Cl  Cl41  1  0.43314400  0.30388900  0.97380600  1
  Cl  Cl42  1  0.06685600  0.69611100  0.47380600  1
  Cl  Cl43  1  0.56685600  0.80388900  0.52619400  1
  Cl  Cl44  1  0.06685600  0.80388900  0.97380600  1
  Cl  Cl45  1  0.56685600  0.69611100  0.02619400  1
  Cl  Cl46  1  0.93314400  0.30388900  0.52619400  1
  Cl  Cl47  1  0.43314400  0.19611100  0.47380600  1
  Cl  Cl48  1  0.70846500  0.44321400  0.03849900  1
  Cl  Cl49  1  0.20846500  0.05678600  0.96150100  1
  Cl  Cl50  1  0.29153500  0.94321400  0.46150100  1
  Cl  Cl51  1  0.79153500  0.55678600  0.53849900  1
  Cl  Cl52  1  0.29153500  0.55678600  0.96150100  1
  Cl  Cl53  1  0.79153500  0.94321400  0.03849900  1
  Cl  Cl54  1  0.70846500  0.05678600  0.53849900  1
  Cl  Cl55  1  0.20846500  0.44321400  0.46150100  1
  Cl  Cl56  1  0.18414300  0.22611900  0.18144300  1
  Cl  Cl57  1  0.68414300  0.27388100  0.81855700  1
  Cl  Cl58  1  0.81585700  0.72611900  0.31855700  1
  Cl  Cl59  1  0.31585700  0.77388100  0.68144300  1
  Cl  Cl60  1  0.81585700  0.77388100  0.81855700  1
  Cl  Cl61  1  0.31585700  0.72611900  0.18144300  1
  Cl  Cl62  1  0.18414300  0.27388100  0.68144300  1
  Cl  Cl63  1  0.68414300  0.22611900  0.31855700  1
  Cl  Cl64  1  0.45476700  0.09188200  0.11655000  1
  Cl  Cl65  1  0.95476700  0.40811800  0.88345000  1
  Cl  Cl66  1  0.54523300  0.59188200  0.38345000  1
  Cl  Cl67  1  0.04523300  0.90811800  0.61655000  1
  Cl  Cl68  1  0.54523300  0.90811800  0.88345000  1
  Cl  Cl69  1  0.04523300  0.59188200  0.11655000  1
  Cl  Cl70  1  0.45476700  0.40811800  0.61655000  1
  Cl  Cl71  1  0.95476700  0.09188200  0.38345000  1
