# generated using pymatgen
data_NaZnP3(H4O5)2
_symmetry_space_group_name_H-M   'P 1'
_cell_length_a   9.34676300
_cell_length_b   14.84485300
_cell_length_c   14.98446900
_cell_angle_alpha   90.00000000
_cell_angle_beta   90.00000000
_cell_angle_gamma   90.00000000
_symmetry_Int_Tables_number   1
_chemical_formula_structural   NaZnP3(H4O5)2
_chemical_formula_sum   'Na8 Zn8 P24 H64 O80'
_cell_volume   2079.11489462
_cell_formula_units_Z   8
loop_
 _symmetry_equiv_pos_site_id
 _symmetry_equiv_pos_as_xyz
  1  'x, y, z'
loop_
 _atom_site_type_symbol
 _atom_site_label
 _atom_site_symmetry_multiplicity
 _atom_site_fract_x
 _atom_site_fract_y
 _atom_site_fract_z
 _atom_site_occupancy
  Na  Na0  1  0.07446300  0.16387600  0.42665900  1
  Na  Na1  1  0.57446300  0.33612400  0.57334100  1
  Na  Na2  1  0.92553700  0.66387600  0.07334100  1
  Na  Na3  1  0.42553700  0.83612400  0.92665900  1
  Na  Na4  1  0.92553700  0.83612400  0.57334100  1
  Na  Na5  1  0.42553700  0.66387600  0.42665900  1
  Na  Na6  1  0.07446300  0.33612400  0.92665900  1
  Na  Na7  1  0.57446300  0.16387600  0.07334100  1
  Zn  Zn8  1  0.44841200  0.16162900  0.45217400  1
  Zn  Zn9  1  0.94841200  0.33837100  0.54782600  1
  Zn  Zn10  1  0.55158800  0.66162900  0.04782600  1
  Zn  Zn11  1  0.05158800  0.83837100  0.95217400  1
  Zn  Zn12  1  0.55158800  0.83837100  0.54782600  1
  Zn  Zn13  1  0.05158800  0.66162900  0.45217400  1
  Zn  Zn14  1  0.44841200  0.33837100  0.95217400  1
  Zn  Zn15  1  0.94841200  0.16162900  0.04782600  1
  P  P16  1  0.23986900  0.22469100  0.61689700  1
  P  P17  1  0.73986900  0.27530900  0.38310300  1
  P  P18  1  0.76013100  0.72469100  0.88310300  1
  P  P19  1  0.26013100  0.77530900  0.11689700  1
  P  P20  1  0.76013100  0.77530900  0.38310300  1
  P  P21  1  0.26013100  0.72469100  0.61689700  1
  P  P22  1  0.23986900  0.27530900  0.11689700  1
  P  P23  1  0.73986900  0.22469100  0.88310300  1
  P  P24  1  0.46596400  0.03163400  0.26155000  1
  P  P25  1  0.96596400  0.46836600  0.73845000  1
  P  P26  1  0.53403600  0.53163400  0.23845000  1
  P  P27  1  0.03403600  0.96836600  0.76155000  1
  P  P28  1  0.53403600  0.96836600  0.73845000  1
  P  P29  1  0.03403600  0.53163400  0.26155000  1
  P  P30  1  0.46596400  0.46836600  0.76155000  1
  P  P31  1  0.96596400  0.03163400  0.23845000  1
  P  P32  1  0.27784200  0.96765000  0.48338000  1
  P  P33  1  0.77784200  0.53235000  0.51662000  1
  P  P34  1  0.72215800  0.46765000  0.01662000  1
  P  P35  1  0.22215800  0.03235000  0.98338000  1
  P  P36  1  0.72215800  0.03235000  0.51662000  1
  P  P37  1  0.22215800  0.46765000  0.48338000  1
  P  P38  1  0.27784200  0.53235000  0.98338000  1
  P  P39  1  0.77784200  0.96765000  0.01662000  1
  H  H40  1  0.23584500  0.13951600  0.65787700  1
  H  H41  1  0.73584500  0.36048400  0.34212300  1
  H  H42  1  0.76415500  0.63951600  0.84212300  1
  H  H43  1  0.26415500  0.86048400  0.15787700  1
  H  H44  1  0.76415500  0.86048400  0.34212300  1
  H  H45  1  0.26415500  0.63951600  0.65787700  1
  H  H46  1  0.23584500  0.36048400  0.15787700  1
  H  H47  1  0.73584500  0.13951600  0.84212300  1
  H  H48  1  0.31540900  0.03628600  0.26221900  1
  H  H49  1  0.81540900  0.46371400  0.73778100  1
  H  H50  1  0.68459100  0.53628600  0.23778100  1
  H  H51  1  0.18459100  0.96371400  0.76221900  1
  H  H52  1  0.68459100  0.96371400  0.73778100  1
  H  H53  1  0.18459100  0.53628600  0.26221900  1
  H  H54  1  0.31540900  0.46371400  0.76221900  1
  H  H55  1  0.81540900  0.03628600  0.23778100  1
  H  H56  1  0.23888000  0.95184700  0.57266300  1
  H  H57  1  0.73888000  0.54815300  0.42733700  1
  H  H58  1  0.76112000  0.45184700  0.92733700  1
  H  H59  1  0.26112000  0.04815300  0.07266300  1
  H  H60  1  0.76112000  0.04815300  0.42733700  1
  H  H61  1  0.26112000  0.45184700  0.57266300  1
  H  H62  1  0.23888000  0.54815300  0.07266300  1
  H  H63  1  0.73888000  0.95184700  0.92733700  1
  H  H64  1  0.29384700  0.23468000  0.31138400  1
  H  H65  1  0.79384700  0.26532000  0.68861600  1
  H  H66  1  0.70615300  0.73468000  0.18861600  1
  H  H67  1  0.20615300  0.76532000  0.81138400  1
  H  H68  1  0.70615300  0.76532000  0.68861600  1
  H  H69  1  0.20615300  0.73468000  0.31138400  1
  H  H70  1  0.29384700  0.26532000  0.81138400  1
  H  H71  1  0.79384700  0.23468000  0.18861600  1
  H  H72  1  0.31325800  0.30660400  0.38978200  1
  H  H73  1  0.81325800  0.19339600  0.61021800  1
  H  H74  1  0.68674200  0.80660400  0.11021800  1
  H  H75  1  0.18674200  0.69339600  0.88978200  1
  H  H76  1  0.68674200  0.69339600  0.61021800  1
  H  H77  1  0.18674200  0.80660400  0.38978200  1
  H  H78  1  0.31325800  0.19339600  0.88978200  1
  H  H79  1  0.81325800  0.30660400  0.11021800  1
  H  H80  1  0.15179500  0.33582900  0.69591100  1
  H  H81  1  0.65179500  0.16417100  0.30408900  1
  H  H82  1  0.84820500  0.83582900  0.80408900  1
  H  H83  1  0.34820500  0.66417100  0.19591100  1
  H  H84  1  0.84820500  0.66417100  0.30408900  1
  H  H85  1  0.34820500  0.83582900  0.69591100  1
  H  H86  1  0.15179500  0.16417100  0.19591100  1
  H  H87  1  0.65179500  0.33582900  0.80408900  1
  H  H88  1  0.47361000  0.92349600  0.36193500  1
  H  H89  1  0.97361000  0.57650400  0.63806500  1
  H  H90  1  0.52639000  0.42349600  0.13806500  1
  H  H91  1  0.02639000  0.07650400  0.86193500  1
  H  H92  1  0.52639000  0.07650400  0.63806500  1
  H  H93  1  0.02639000  0.42349600  0.36193500  1
  H  H94  1  0.47361000  0.57650400  0.86193500  1
  H  H95  1  0.97361000  0.92349600  0.13806500  1
  H  H96  1  0.09533000  0.96758600  0.38623200  1
  H  H97  1  0.59533000  0.53241400  0.61376800  1
  H  H98  1  0.90467000  0.46758600  0.11376800  1
  H  H99  1  0.40467000  0.03241400  0.88623200  1
  H  H100  1  0.90467000  0.03241400  0.61376800  1
  H  H101  1  0.40467000  0.46758600  0.38623200  1
  H  H102  1  0.09533000  0.53241400  0.88623200  1
  H  H103  1  0.59533000  0.96758600  0.11376800  1
  O  O104  1  0.38131500  0.23451100  0.56753300  1
  O  O105  1  0.88131500  0.26548900  0.43246700  1
  O  O106  1  0.61868500  0.73451100  0.93246700  1
  O  O107  1  0.11868500  0.76548900  0.06753300  1
  O  O108  1  0.61868500  0.76548900  0.43246700  1
  O  O109  1  0.11868500  0.73451100  0.56753300  1
  O  O110  1  0.38131500  0.26548900  0.06753300  1
  O  O111  1  0.88131500  0.23451100  0.93246700  1
  O  O112  1  0.52098800  0.10562600  0.32455800  1
  O  O113  1  0.02098800  0.39437400  0.67544200  1
  O  O114  1  0.47901200  0.60562600  0.17544200  1
  O  O115  1  0.97901200  0.89437400  0.82455800  1
  O  O116  1  0.47901200  0.89437400  0.67544200  1
  O  O117  1  0.97901200  0.60562600  0.32455800  1
  O  O118  1  0.52098800  0.39437400  0.82455800  1
  O  O119  1  0.02098800  0.10562600  0.17544200  1
  O  O120  1  0.58430800  0.08435700  0.53548400  1
  O  O121  1  0.08430800  0.41564300  0.46451600  1
  O  O122  1  0.41569200  0.58435700  0.96451600  1
  O  O123  1  0.91569200  0.91564300  0.03548400  1
  O  O124  1  0.41569200  0.91564300  0.46451600  1
  O  O125  1  0.91569200  0.58435700  0.53548400  1
  O  O126  1  0.58430800  0.41564300  0.03548400  1
  O  O127  1  0.08430800  0.08435700  0.96451600  1
  O  O128  1  0.28030700  0.06855900  0.46508400  1
  O  O129  1  0.78030700  0.43144100  0.53491600  1
  O  O130  1  0.71969300  0.56855900  0.03491600  1
  O  O131  1  0.21969300  0.93144100  0.96508400  1
  O  O132  1  0.71969300  0.93144100  0.53491600  1
  O  O133  1  0.21969300  0.56855900  0.46508400  1
  O  O134  1  0.28030700  0.43144100  0.96508400  1
  O  O135  1  0.78030700  0.06855900  0.03491600  1
  O  O136  1  0.60352600  0.26227500  0.43700400  1
  O  O137  1  0.10352600  0.23772500  0.56299600  1
  O  O138  1  0.39647400  0.76227500  0.06299600  1
  O  O139  1  0.89647400  0.73772500  0.93700400  1
  O  O140  1  0.39647400  0.73772500  0.56299600  1
  O  O141  1  0.89647400  0.76227500  0.43700400  1
  O  O142  1  0.60352600  0.23772500  0.93700400  1
  O  O143  1  0.10352600  0.26227500  0.06299600  1
  O  O144  1  0.29397900  0.24229400  0.37705500  1
  O  O145  1  0.79397900  0.25770600  0.62294500  1
  O  O146  1  0.70602100  0.74229400  0.12294500  1
  O  O147  1  0.20602100  0.75770600  0.87705500  1
  O  O148  1  0.70602100  0.75770600  0.62294500  1
  O  O149  1  0.20602100  0.74229400  0.37705500  1
  O  O150  1  0.29397900  0.25770600  0.87705500  1
  O  O151  1  0.79397900  0.24229400  0.12294500  1
  O  O152  1  0.23933700  0.29333700  0.69961600  1
  O  O153  1  0.73933700  0.20666300  0.30038400  1
  O  O154  1  0.76066300  0.79333700  0.80038400  1
  O  O155  1  0.26066300  0.70666300  0.19961600  1
  O  O156  1  0.76066300  0.70666300  0.30038400  1
  O  O157  1  0.26066300  0.79333700  0.69961600  1
  O  O158  1  0.23933700  0.20666300  0.19961600  1
  O  O159  1  0.73933700  0.29333700  0.80038400  1
  O  O160  1  0.50346200  0.93397600  0.29748600  1
  O  O161  1  0.00346200  0.56602400  0.70251400  1
  O  O162  1  0.49653800  0.43397600  0.20251400  1
  O  O163  1  0.99653800  0.06602400  0.79748600  1
  O  O164  1  0.49653800  0.06602400  0.70251400  1
  O  O165  1  0.99653800  0.43397600  0.29748600  1
  O  O166  1  0.50346200  0.56602400  0.79748600  1
  O  O167  1  0.00346200  0.93397600  0.20251400  1
  O  O168  1  0.52015700  0.03884600  0.16625800  1
  O  O169  1  0.02015700  0.46115400  0.83374200  1
  O  O170  1  0.47984300  0.53884600  0.33374200  1
  O  O171  1  0.97984300  0.96115400  0.66625800  1
  O  O172  1  0.47984300  0.96115400  0.83374200  1
  O  O173  1  0.97984300  0.53884600  0.16625800  1
  O  O174  1  0.52015700  0.46115400  0.66625800  1
  O  O175  1  0.02015700  0.03884600  0.33374200  1
  O  O176  1  0.15133400  0.92279800  0.42718600  1
  O  O177  1  0.65133400  0.57720200  0.57281400  1
  O  O178  1  0.84866600  0.42279800  0.07281400  1
  O  O179  1  0.34866600  0.07720200  0.92718600  1
  O  O180  1  0.84866600  0.07720200  0.57281400  1
  O  O181  1  0.34866600  0.42279800  0.42718600  1
  O  O182  1  0.15133400  0.57720200  0.92718600  1
  O  O183  1  0.65133400  0.92279800  0.07281400  1
