# generated using pymatgen
data_Sr(InTe2)2
_symmetry_space_group_name_H-M   'P 1'
_cell_length_a   7.24931400
_cell_length_b   11.93243000
_cell_length_c   12.04430600
_cell_angle_alpha   90.00000000
_cell_angle_beta   90.00000000
_cell_angle_gamma   90.00000000
_symmetry_Int_Tables_number   1
_chemical_formula_structural   Sr(InTe2)2
_chemical_formula_sum   'Sr4 In8 Te16'
_cell_volume   1041.85573683
_cell_formula_units_Z   4
loop_
 _symmetry_equiv_pos_site_id
 _symmetry_equiv_pos_as_xyz
  1  'x, y, z'
loop_
 _atom_site_type_symbol
 _atom_site_label
 _atom_site_symmetry_multiplicity
 _atom_site_fract_x
 _atom_site_fract_y
 _atom_site_fract_z
 _atom_site_occupancy
  Sr  Sr0  1  0.50000000  0.00000000  0.75000000  1
  Sr  Sr1  1  0.50000000  0.00000000  0.25000000  1
  Sr  Sr2  1  0.00000000  0.50000000  0.75000000  1
  Sr  Sr3  1  0.00000000  0.50000000  0.25000000  1
  In  In4  1  0.49743300  0.26610600  0.00000000  1
  In  In5  1  0.50256700  0.73389400  0.00000000  1
  In  In6  1  0.49743300  0.73389400  0.50000000  1
  In  In7  1  0.50256700  0.26610600  0.50000000  1
  In  In8  1  0.99743300  0.76610600  0.00000000  1
  In  In9  1  0.00256700  0.23389400  0.00000000  1
  In  In10  1  0.99743300  0.23389400  0.50000000  1
  In  In11  1  0.00256700  0.76610600  0.50000000  1
  Te  Te12  1  0.72390150  0.06761650  0.00000000  1
  Te  Te13  1  0.27609850  0.93238350  0.00000000  1
  Te  Te14  1  0.72390150  0.93238350  0.50000000  1
  Te  Te15  1  0.27609850  0.06761650  0.50000000  1
  Te  Te16  1  0.25000000  0.75000000  0.68341300  1
  Te  Te17  1  0.25000000  0.25000000  0.81658700  1
  Te  Te18  1  0.25000000  0.75000000  0.31658700  1
  Te  Te19  1  0.25000000  0.25000000  0.18341300  1
  Te  Te20  1  0.22390150  0.56761650  0.00000000  1
  Te  Te21  1  0.77609850  0.43238350  0.00000000  1
  Te  Te22  1  0.22390150  0.43238350  0.50000000  1
  Te  Te23  1  0.77609850  0.56761650  0.50000000  1
  Te  Te24  1  0.75000000  0.25000000  0.68341300  1
  Te  Te25  1  0.75000000  0.75000000  0.81658700  1
  Te  Te26  1  0.75000000  0.25000000  0.31658700  1
  Te  Te27  1  0.75000000  0.75000000  0.18341300  1
