# generated using pymatgen
data_UH12(ClO2)3
_symmetry_space_group_name_H-M   'P 1'
_cell_length_a   8.04609800
_cell_length_b   6.68909500
_cell_length_c   12.33176146
_cell_angle_alpha   90.00000000
_cell_angle_beta   127.55844793
_cell_angle_gamma   90.00000000
_symmetry_Int_Tables_number   1
_chemical_formula_structural   UH12(ClO2)3
_chemical_formula_sum   'U2 H24 Cl6 O12'
_cell_volume   526.14342268
_cell_formula_units_Z   2
loop_
 _symmetry_equiv_pos_site_id
 _symmetry_equiv_pos_as_xyz
  1  'x, y, z'
loop_
 _atom_site_type_symbol
 _atom_site_label
 _atom_site_symmetry_multiplicity
 _atom_site_fract_x
 _atom_site_fract_y
 _atom_site_fract_z
 _atom_site_occupancy
  U  U0  1  0.00000000  0.84953200  0.75000000  1
  U  U1  1  0.00000000  0.15046800  0.25000000  1
  H  H2  1  0.47756100  0.74461700  0.96749100  1
  H  H3  1  0.52243900  0.74461700  0.53250900  1
  H  H4  1  0.52243900  0.25538300  0.03250900  1
  H  H5  1  0.47756100  0.25538300  0.46749100  1
  H  H6  1  0.37781000  0.66728800  0.03626700  1
  H  H7  1  0.62219000  0.66728800  0.46373300  1
  H  H8  1  0.62219000  0.33271200  0.96373300  1
  H  H9  1  0.37781000  0.33271200  0.53626700  1
  H  H10  1  0.97373000  0.44493900  0.61377600  1
  H  H11  1  0.02627000  0.44493900  0.88622400  1
  H  H12  1  0.02627000  0.55506100  0.38622400  1
  H  H13  1  0.97373000  0.55506100  0.11377600  1
  H  H14  1  0.20356400  0.52083800  0.68196200  1
  H  H15  1  0.79643600  0.52083800  0.81803800  1
  H  H16  1  0.79643600  0.47916200  0.31803800  1
  H  H17  1  0.20356400  0.47916200  0.18196200  1
  H  H18  1  0.75062600  0.90972700  0.86825200  1
  H  H19  1  0.24937400  0.90972700  0.63174800  1
  H  H20  1  0.24937400  0.09027300  0.13174800  1
  H  H21  1  0.75062600  0.09027300  0.36825200  1
  H  H22  1  0.66769700  0.91273200  0.26333900  1
  H  H23  1  0.33230300  0.91273200  0.23666100  1
  H  H24  1  0.33230300  0.08726800  0.73666100  1
  H  H25  1  0.66769700  0.08726800  0.76333900  1
  Cl  Cl26  1  0.79505000  0.17640000  0.55324700  1
  Cl  Cl27  1  0.20495000  0.17640000  0.94675300  1
  Cl  Cl28  1  0.20495000  0.82360000  0.44675300  1
  Cl  Cl29  1  0.79505000  0.82360000  0.05324700  1
  Cl  Cl30  1  0.50000000  0.63238000  0.25000000  1
  Cl  Cl31  1  0.50000000  0.36762000  0.75000000  1
  O  O32  1  0.34205900  0.70526100  0.94680500  1
  O  O33  1  0.65794100  0.70526100  0.55319500  1
  O  O34  1  0.65794100  0.29473900  0.05319500  1
  O  O35  1  0.34205900  0.29473900  0.44680500  1
  O  O36  1  0.06193600  0.56739500  0.64622200  1
  O  O37  1  0.93806400  0.56739500  0.85377800  1
  O  O38  1  0.93806400  0.43260500  0.35377800  1
  O  O39  1  0.06193600  0.43260500  0.14622200  1
  O  O40  1  0.73635700  0.95538500  0.78625900  1
  O  O41  1  0.26364300  0.95538500  0.71374100  1
  O  O42  1  0.26364300  0.04461500  0.21374100  1
  O  O43  1  0.73635700  0.04461500  0.28625900  1
