# generated using pymatgen
data_Cs2Au2Se3
_symmetry_space_group_name_H-M   'P 1'
_cell_length_a   10.00822800
_cell_length_b   13.64752000
_cell_length_c   7.61735980
_cell_angle_alpha   90.00000000
_cell_angle_beta   91.76104828
_cell_angle_gamma   90.00000000
_symmetry_Int_Tables_number   1
_chemical_formula_structural   Cs2Au2Se3
_chemical_formula_sum   'Cs8 Au8 Se12'
_cell_volume   1039.94465470
_cell_formula_units_Z   4
loop_
 _symmetry_equiv_pos_site_id
 _symmetry_equiv_pos_as_xyz
  1  'x, y, z'
loop_
 _atom_site_type_symbol
 _atom_site_label
 _atom_site_symmetry_multiplicity
 _atom_site_fract_x
 _atom_site_fract_y
 _atom_site_fract_z
 _atom_site_occupancy
  Cs  Cs0  1  0.23930250  0.89508850  0.63295800  1
  Cs  Cs1  1  0.23930250  0.10491150  0.13295800  1
  Cs  Cs2  1  0.76069750  0.10491150  0.36704200  1
  Cs  Cs3  1  0.76069750  0.89508850  0.86704200  1
  Cs  Cs4  1  0.73930250  0.39508850  0.63295800  1
  Cs  Cs5  1  0.73930250  0.60491150  0.13295800  1
  Cs  Cs6  1  0.26069750  0.60491150  0.36704200  1
  Cs  Cs7  1  0.26069750  0.39508850  0.86704200  1
  Au  Au8  1  0.43487150  0.21150750  0.54143000  1
  Au  Au9  1  0.43487150  0.78849250  0.04143000  1
  Au  Au10  1  0.56512850  0.78849250  0.45857000  1
  Au  Au11  1  0.56512850  0.21150750  0.95857000  1
  Au  Au12  1  0.93487150  0.71150750  0.54143000  1
  Au  Au13  1  0.93487150  0.28849250  0.04143000  1
  Au  Au14  1  0.06512850  0.28849250  0.45857000  1
  Au  Au15  1  0.06512850  0.71150750  0.95857000  1
  Se  Se16  1  0.39199900  0.65879600  0.82410700  1
  Se  Se17  1  0.50000000  0.91721500  0.25000000  1
  Se  Se18  1  0.50000000  0.08278500  0.75000000  1
  Se  Se19  1  0.39199900  0.34120400  0.32410700  1
  Se  Se20  1  0.60800100  0.65879600  0.67589300  1
  Se  Se21  1  0.60800100  0.34120400  0.17589300  1
  Se  Se22  1  0.89199900  0.15879600  0.82410700  1
  Se  Se23  1  0.00000000  0.41721500  0.25000000  1
  Se  Se24  1  0.00000000  0.58278500  0.75000000  1
  Se  Se25  1  0.89199900  0.84120400  0.32410700  1
  Se  Se26  1  0.10800100  0.15879600  0.67589300  1
  Se  Se27  1  0.10800100  0.84120400  0.17589300  1
