# generated using pymatgen
data_Bi3NF6
_symmetry_space_group_name_H-M   'P 1'
_cell_length_a   5.80738400
_cell_length_b   5.82520600
_cell_length_c   18.82476700
_cell_angle_alpha   90.00000000
_cell_angle_beta   90.00000000
_cell_angle_gamma   90.00000000
_symmetry_Int_Tables_number   1
_chemical_formula_structural   Bi3NF6
_chemical_formula_sum   'Bi12 N4 F24'
_cell_volume   636.82696067
_cell_formula_units_Z   4
loop_
 _symmetry_equiv_pos_site_id
 _symmetry_equiv_pos_as_xyz
  1  'x, y, z'
loop_
 _atom_site_type_symbol
 _atom_site_label
 _atom_site_symmetry_multiplicity
 _atom_site_fract_x
 _atom_site_fract_y
 _atom_site_fract_z
 _atom_site_occupancy
  Bi  Bi0  1  0.48742100  0.70331100  0.56838500  1
  Bi  Bi1  1  0.98742100  0.29668900  0.93161500  1
  Bi  Bi2  1  0.01257900  0.70331100  0.43161500  1
  Bi  Bi3  1  0.51257900  0.29668900  0.06838500  1
  Bi  Bi4  1  0.51257900  0.29668900  0.43161500  1
  Bi  Bi5  1  0.01257900  0.70331100  0.06838500  1
  Bi  Bi6  1  0.98742100  0.29668900  0.56838500  1
  Bi  Bi7  1  0.48742100  0.70331100  0.93161500  1
  Bi  Bi8  1  0.97427600  0.21852500  0.25000000  1
  Bi  Bi9  1  0.47427600  0.78147500  0.25000000  1
  Bi  Bi10  1  0.52572400  0.21852500  0.75000000  1
  Bi  Bi11  1  0.02572400  0.78147500  0.75000000  1
  N  N12  1  0.75000000  0.51662000  0.50000000  1
  N  N13  1  0.25000000  0.48338000  0.00000000  1
  N  N14  1  0.25000000  0.48338000  0.50000000  1
  N  N15  1  0.75000000  0.51662000  0.00000000  1
  F  F16  1  0.75000000  0.01163700  0.50000000  1
  F  F17  1  0.25000000  0.98836300  0.00000000  1
  F  F18  1  0.25000000  0.98836300  0.50000000  1
  F  F19  1  0.75000000  0.01163700  0.00000000  1
  F  F20  1  0.13066100  0.59297300  0.25000000  1
  F  F21  1  0.63066100  0.40702700  0.25000000  1
  F  F22  1  0.36933900  0.59297300  0.75000000  1
  F  F23  1  0.86933900  0.40702700  0.75000000  1
  F  F24  1  0.26388500  0.03761100  0.32151400  1
  F  F25  1  0.76388500  0.96238900  0.17848600  1
  F  F26  1  0.23611500  0.03761100  0.67848600  1
  F  F27  1  0.73611500  0.96238900  0.82151400  1
  F  F28  1  0.73611500  0.96238900  0.67848600  1
  F  F29  1  0.23611500  0.03761100  0.82151400  1
  F  F30  1  0.76388500  0.96238900  0.32151400  1
  F  F31  1  0.26388500  0.03761100  0.17848600  1
  F  F32  1  0.44361200  0.62470600  0.12884600  1
  F  F33  1  0.94361200  0.37529400  0.37115400  1
  F  F34  1  0.05638800  0.62470600  0.87115400  1
  F  F35  1  0.55638800  0.37529400  0.62884600  1
  F  F36  1  0.55638800  0.37529400  0.87115400  1
  F  F37  1  0.05638800  0.62470600  0.62884600  1
  F  F38  1  0.94361200  0.37529400  0.12884600  1
  F  F39  1  0.44361200  0.62470600  0.37115400  1
