# generated using pymatgen
data_Zr6FeCl14
_symmetry_space_group_name_H-M   'P 1'
_cell_length_a   13.19084400
_cell_length_b   14.69909400
_cell_length_c   12.01198100
_cell_angle_alpha   90.00000000
_cell_angle_beta   90.00000000
_cell_angle_gamma   90.00000000
_symmetry_Int_Tables_number   1
_chemical_formula_structural   Zr6FeCl14
_chemical_formula_sum   'Zr24 Fe4 Cl56'
_cell_volume   2329.04450824
_cell_formula_units_Z   4
loop_
 _symmetry_equiv_pos_site_id
 _symmetry_equiv_pos_as_xyz
  1  'x, y, z'
loop_
 _atom_site_type_symbol
 _atom_site_label
 _atom_site_symmetry_multiplicity
 _atom_site_fract_x
 _atom_site_fract_y
 _atom_site_fract_z
 _atom_site_occupancy
  Zr  Zr0  1  0.42765700  0.61984700  0.38106400  1
  Zr  Zr1  1  0.84828600  0.00000000  0.61124600  1
  Zr  Zr2  1  0.15171400  0.00000000  0.38875400  1
  Zr  Zr3  1  0.34828600  0.00000000  0.88875400  1
  Zr  Zr4  1  0.57234300  0.88015300  0.88106400  1
  Zr  Zr5  1  0.65171400  0.00000000  0.11124600  1
  Zr  Zr6  1  0.57234300  0.61984700  0.61893600  1
  Zr  Zr7  1  0.42765700  0.88015300  0.11893600  1
  Zr  Zr8  1  0.42765700  0.11984700  0.11893600  1
  Zr  Zr9  1  0.57234300  0.38015300  0.61893600  1
  Zr  Zr10  1  0.42765700  0.38015300  0.38106400  1
  Zr  Zr11  1  0.57234300  0.11984700  0.88106400  1
  Zr  Zr12  1  0.92765700  0.11984700  0.38106400  1
  Zr  Zr13  1  0.34828600  0.50000000  0.61124600  1
  Zr  Zr14  1  0.65171400  0.50000000  0.38875400  1
  Zr  Zr15  1  0.84828600  0.50000000  0.88875400  1
  Zr  Zr16  1  0.07234300  0.38015300  0.88106400  1
  Zr  Zr17  1  0.15171400  0.50000000  0.11124600  1
  Zr  Zr18  1  0.07234300  0.11984700  0.61893600  1
  Zr  Zr19  1  0.92765700  0.38015300  0.11893600  1
  Zr  Zr20  1  0.92765700  0.61984700  0.11893600  1
  Zr  Zr21  1  0.07234300  0.88015300  0.61893600  1
  Zr  Zr22  1  0.92765700  0.88015300  0.38106400  1
  Zr  Zr23  1  0.07234300  0.61984700  0.88106400  1
  Fe  Fe24  1  0.00000000  0.00000000  0.50000000  1
  Fe  Fe25  1  0.50000000  0.00000000  0.00000000  1
  Fe  Fe26  1  0.50000000  0.50000000  0.50000000  1
  Fe  Fe27  1  0.00000000  0.50000000  0.00000000  1
  Cl  Cl28  1  0.23915300  0.12162300  0.50787000  1
  Cl  Cl29  1  0.35053800  0.75000000  0.25000000  1
  Cl  Cl30  1  0.50000000  0.74788200  0.50000000  1
  Cl  Cl31  1  0.50000000  0.75211800  0.00000000  1
  Cl  Cl32  1  0.50000000  0.25211800  0.50000000  1
  Cl  Cl33  1  0.50000000  0.24788200  0.00000000  1
  Cl  Cl34  1  0.84352300  0.00000000  0.24428900  1
  Cl  Cl35  1  0.65647700  0.00000000  0.74428900  1
  Cl  Cl36  1  0.34352300  0.00000000  0.25571100  1
  Cl  Cl37  1  0.15647700  0.00000000  0.75571100  1
  Cl  Cl38  1  0.35053800  0.25000000  0.25000000  1
  Cl  Cl39  1  0.64946200  0.25000000  0.75000000  1
  Cl  Cl40  1  0.58545050  0.37834650  0.25518600  1
  Cl  Cl41  1  0.41454950  0.12165350  0.75518600  1
  Cl  Cl42  1  0.26084700  0.12162300  0.00787000  1
  Cl  Cl43  1  0.41454950  0.37834650  0.74481400  1
  Cl  Cl44  1  0.41454950  0.62165350  0.74481400  1
  Cl  Cl45  1  0.58545050  0.87834650  0.24481400  1
  Cl  Cl46  1  0.41454950  0.87834650  0.75518600  1
  Cl  Cl47  1  0.58545050  0.62165350  0.25518600  1
  Cl  Cl48  1  0.26084700  0.87837700  0.00787000  1
  Cl  Cl49  1  0.58545050  0.12165350  0.24481400  1
  Cl  Cl50  1  0.76084700  0.12162300  0.49213000  1
  Cl  Cl51  1  0.73915300  0.87837700  0.99213000  1
  Cl  Cl52  1  0.73915300  0.12162300  0.99213000  1
  Cl  Cl53  1  0.76084700  0.87837700  0.49213000  1
  Cl  Cl54  1  0.23915300  0.87837700  0.50787000  1
  Cl  Cl55  1  0.64946200  0.75000000  0.75000000  1
  Cl  Cl56  1  0.73915300  0.62162300  0.50787000  1
  Cl  Cl57  1  0.85053800  0.25000000  0.25000000  1
  Cl  Cl58  1  0.00000000  0.24788200  0.50000000  1
  Cl  Cl59  1  0.00000000  0.25211800  0.00000000  1
  Cl  Cl60  1  0.00000000  0.75211800  0.50000000  1
  Cl  Cl61  1  0.00000000  0.74788200  0.00000000  1
  Cl  Cl62  1  0.34352300  0.50000000  0.24428900  1
  Cl  Cl63  1  0.15647700  0.50000000  0.74428900  1
  Cl  Cl64  1  0.84352300  0.50000000  0.25571100  1
  Cl  Cl65  1  0.65647700  0.50000000  0.75571100  1
  Cl  Cl66  1  0.85053800  0.75000000  0.25000000  1
  Cl  Cl67  1  0.14946200  0.75000000  0.75000000  1
  Cl  Cl68  1  0.08545050  0.87834650  0.25518600  1
  Cl  Cl69  1  0.91454950  0.62165350  0.75518600  1
  Cl  Cl70  1  0.76084700  0.62162300  0.00787000  1
  Cl  Cl71  1  0.91454950  0.87834650  0.74481400  1
  Cl  Cl72  1  0.91454950  0.12165350  0.74481400  1
  Cl  Cl73  1  0.08545050  0.37834650  0.24481400  1
  Cl  Cl74  1  0.91454950  0.37834650  0.75518600  1
  Cl  Cl75  1  0.08545050  0.12165350  0.25518600  1
  Cl  Cl76  1  0.76084700  0.37837700  0.00787000  1
  Cl  Cl77  1  0.08545050  0.62165350  0.24481400  1
  Cl  Cl78  1  0.26084700  0.62162300  0.49213000  1
  Cl  Cl79  1  0.23915300  0.37837700  0.99213000  1
  Cl  Cl80  1  0.23915300  0.62162300  0.99213000  1
  Cl  Cl81  1  0.26084700  0.37837700  0.49213000  1
  Cl  Cl82  1  0.73915300  0.37837700  0.50787000  1
  Cl  Cl83  1  0.14946200  0.25000000  0.75000000  1
