# generated using pymatgen
data_Hg4As2I3
_symmetry_space_group_name_H-M   'P 1'
_cell_length_a   13.39567000
_cell_length_b   13.39567000
_cell_length_c   13.39567000
_cell_angle_alpha   90.00000000
_cell_angle_beta   90.00000000
_cell_angle_gamma   90.00000000
_symmetry_Int_Tables_number   1
_chemical_formula_structural   Hg4As2I3
_chemical_formula_sum   'Hg32 As16 I24'
_cell_volume   2403.77226922
_cell_formula_units_Z   8
loop_
 _symmetry_equiv_pos_site_id
 _symmetry_equiv_pos_as_xyz
  1  'x, y, z'
loop_
 _atom_site_type_symbol
 _atom_site_label
 _atom_site_symmetry_multiplicity
 _atom_site_fract_x
 _atom_site_fract_y
 _atom_site_fract_z
 _atom_site_occupancy
  Hg  Hg0  1  0.22503500  0.22503500  0.22503500  1
  Hg  Hg1  1  0.27496500  0.77496500  0.72503500  1
  Hg  Hg2  1  0.72503500  0.27496500  0.77496500  1
  Hg  Hg3  1  0.77496500  0.72503500  0.27496500  1
  Hg  Hg4  1  0.77496500  0.77496500  0.77496500  1
  Hg  Hg5  1  0.72503500  0.22503500  0.27496500  1
  Hg  Hg6  1  0.27496500  0.72503500  0.22503500  1
  Hg  Hg7  1  0.22503500  0.27496500  0.72503500  1
  Hg  Hg8  1  0.03934800  0.01262400  0.26257600  1
  Hg  Hg9  1  0.26257600  0.03934800  0.01262400  1
  Hg  Hg10  1  0.01262400  0.26257600  0.03934800  1
  Hg  Hg11  1  0.48737600  0.73742400  0.53934800  1
  Hg  Hg12  1  0.76257600  0.46065200  0.98737600  1
  Hg  Hg13  1  0.98737600  0.76257600  0.46065200  1
  Hg  Hg14  1  0.23742400  0.96065200  0.51262400  1
  Hg  Hg15  1  0.73742400  0.53934800  0.48737600  1
  Hg  Hg16  1  0.51262400  0.23742400  0.96065200  1
  Hg  Hg17  1  0.53934800  0.48737600  0.73742400  1
  Hg  Hg18  1  0.96065200  0.51262400  0.23742400  1
  Hg  Hg19  1  0.46065200  0.98737600  0.76257600  1
  Hg  Hg20  1  0.96065200  0.98737600  0.73742400  1
  Hg  Hg21  1  0.73742400  0.96065200  0.98737600  1
  Hg  Hg22  1  0.98737600  0.73742400  0.96065200  1
  Hg  Hg23  1  0.51262400  0.26257600  0.46065200  1
  Hg  Hg24  1  0.23742400  0.53934800  0.01262400  1
  Hg  Hg25  1  0.01262400  0.23742400  0.53934800  1
  Hg  Hg26  1  0.76257600  0.03934800  0.48737600  1
  Hg  Hg27  1  0.26257600  0.46065200  0.51262400  1
  Hg  Hg28  1  0.48737600  0.76257600  0.03934800  1
  Hg  Hg29  1  0.46065200  0.51262400  0.26257600  1
  Hg  Hg30  1  0.03934800  0.48737600  0.76257600  1
  Hg  Hg31  1  0.53934800  0.01262400  0.23742400  1
  As  As32  1  0.11345500  0.11345500  0.11345500  1
  As  As33  1  0.38654500  0.88654500  0.61345500  1
  As  As34  1  0.61345500  0.38654500  0.88654500  1
  As  As35  1  0.88654500  0.61345500  0.38654500  1
  As  As36  1  0.88654500  0.88654500  0.88654500  1
  As  As37  1  0.61345500  0.11345500  0.38654500  1
  As  As38  1  0.38654500  0.61345500  0.11345500  1
  As  As39  1  0.11345500  0.38654500  0.61345500  1
  As  As40  1  0.44687800  0.44687800  0.44687800  1
  As  As41  1  0.05312200  0.55312200  0.94687800  1
  As  As42  1  0.94687800  0.05312200  0.55312200  1
  As  As43  1  0.55312200  0.94687800  0.05312200  1
  As  As44  1  0.55312200  0.55312200  0.55312200  1
  As  As45  1  0.94687800  0.44687800  0.05312200  1
  As  As46  1  0.05312200  0.94687800  0.44687800  1
  As  As47  1  0.44687800  0.05312200  0.94687800  1
  I  I48  1  0.18640900  0.44174800  0.25946400  1
  I  I49  1  0.25946400  0.18640900  0.44174800  1
  I  I50  1  0.44174800  0.25946400  0.18640900  1
  I  I51  1  0.05825200  0.74053600  0.68640900  1
  I  I52  1  0.75946400  0.31359100  0.55825200  1
  I  I53  1  0.55825200  0.75946400  0.31359100  1
  I  I54  1  0.24053600  0.81359100  0.94174800  1
  I  I55  1  0.74053600  0.68640900  0.05825200  1
  I  I56  1  0.94174800  0.24053600  0.81359100  1
  I  I57  1  0.68640900  0.05825200  0.74053600  1
  I  I58  1  0.81359100  0.94174800  0.24053600  1
  I  I59  1  0.31359100  0.55825200  0.75946400  1
  I  I60  1  0.81359100  0.55825200  0.74053600  1
  I  I61  1  0.74053600  0.81359100  0.55825200  1
  I  I62  1  0.55825200  0.74053600  0.81359100  1
  I  I63  1  0.94174800  0.25946400  0.31359100  1
  I  I64  1  0.24053600  0.68640900  0.44174800  1
  I  I65  1  0.44174800  0.24053600  0.68640900  1
  I  I66  1  0.75946400  0.18640900  0.05825200  1
  I  I67  1  0.25946400  0.31359100  0.94174800  1
  I  I68  1  0.05825200  0.75946400  0.18640900  1
  I  I69  1  0.31359100  0.94174800  0.25946400  1
  I  I70  1  0.18640900  0.05825200  0.75946400  1
  I  I71  1  0.68640900  0.44174800  0.24053600  1
