# generated using pymatgen
data_Nd2H16S3O20
_symmetry_space_group_name_H-M   'P 1'
_cell_length_a   13.70363200
_cell_length_b   6.89794200
_cell_length_c   18.56349620
_cell_angle_alpha   90.00000000
_cell_angle_beta   102.74870573
_cell_angle_gamma   90.00000000
_symmetry_Int_Tables_number   1
_chemical_formula_structural   Nd2H16S3O20
_chemical_formula_sum   'Nd8 H64 S12 O80'
_cell_volume   1711.48969221
_cell_formula_units_Z   4
loop_
 _symmetry_equiv_pos_site_id
 _symmetry_equiv_pos_as_xyz
  1  'x, y, z'
loop_
 _atom_site_type_symbol
 _atom_site_label
 _atom_site_symmetry_multiplicity
 _atom_site_fract_x
 _atom_site_fract_y
 _atom_site_fract_z
 _atom_site_occupancy
  Nd  Nd0  1  0.66914850  0.97589250  0.39312200  1
  Nd  Nd1  1  0.83085150  0.47589250  0.10687800  1
  Nd  Nd2  1  0.83085150  0.52410750  0.60687800  1
  Nd  Nd3  1  0.66914850  0.02410750  0.89312200  1
  Nd  Nd4  1  0.16914850  0.47589250  0.39312200  1
  Nd  Nd5  1  0.33085150  0.97589250  0.10687800  1
  Nd  Nd6  1  0.33085150  0.02410750  0.60687800  1
  Nd  Nd7  1  0.16914850  0.52410750  0.89312200  1
  H  H8  1  0.72863600  0.98171900  0.24344000  1
  H  H9  1  0.77136400  0.48171900  0.25656000  1
  H  H10  1  0.77136400  0.51828100  0.75656000  1
  H  H11  1  0.72863600  0.01828100  0.74344000  1
  H  H12  1  0.83260500  0.03096700  0.29935200  1
  H  H13  1  0.66739500  0.53096700  0.20064800  1
  H  H14  1  0.66739500  0.46903300  0.70064800  1
  H  H15  1  0.83260500  0.96903300  0.79935200  1
  H  H16  1  0.94596250  0.60456450  0.35061100  1
  H  H17  1  0.55403750  0.10456450  0.14938900  1
  H  H18  1  0.55403750  0.89543550  0.64938900  1
  H  H19  1  0.94596250  0.39543550  0.85061100  1
  H  H20  1  0.50490550  0.29843250  0.33855500  1
  H  H21  1  0.99509450  0.79843250  0.16144500  1
  H  H22  1  0.99509450  0.20156750  0.66144500  1
  H  H23  1  0.50490550  0.70156750  0.83855500  1
  H  H24  1  0.86163050  0.14419550  0.48271400  1
  H  H25  1  0.63836950  0.64419550  0.01728600  1
  H  H26  1  0.63836950  0.35580450  0.51728600  1
  H  H27  1  0.86163050  0.85580450  0.98271400  1
  H  H28  1  0.88217050  0.91767250  0.49482500  1
  H  H29  1  0.61782950  0.41767250  0.00517500  1
  H  H30  1  0.61782950  0.58232750  0.50517500  1
  H  H31  1  0.88217050  0.08232750  0.99482500  1
  H  H32  1  0.50605350  0.67270250  0.39330300  1
  H  H33  1  0.99394650  0.17270250  0.10669700  1
  H  H34  1  0.99394650  0.82729750  0.60669700  1
  H  H35  1  0.50605350  0.32729750  0.89330300  1
  H  H36  1  0.98559650  0.31869550  0.45410900  1
  H  H37  1  0.51440350  0.81869550  0.04589100  1
  H  H38  1  0.51440350  0.18130450  0.54589100  1
  H  H39  1  0.98559650  0.68130450  0.95410900  1
  H  H40  1  0.22863600  0.48171900  0.24344000  1
  H  H41  1  0.27136400  0.98171900  0.25656000  1
  H  H42  1  0.27136400  0.01828100  0.75656000  1
  H  H43  1  0.22863600  0.51828100  0.74344000  1
  H  H44  1  0.33260500  0.53096700  0.29935200  1
  H  H45  1  0.16739500  0.03096700  0.20064800  1
  H  H46  1  0.16739500  0.96903300  0.70064800  1
  H  H47  1  0.33260500  0.46903300  0.79935200  1
  H  H48  1  0.44596250  0.10456450  0.35061100  1
  H  H49  1  0.05403750  0.60456450  0.14938900  1
  H  H50  1  0.05403750  0.39543550  0.64938900  1
  H  H51  1  0.44596250  0.89543550  0.85061100  1
  H  H52  1  0.00490550  0.79843250  0.33855500  1
  H  H53  1  0.49509450  0.29843250  0.16144500  1
  H  H54  1  0.49509450  0.70156750  0.66144500  1
  H  H55  1  0.00490550  0.20156750  0.83855500  1
  H  H56  1  0.36163050  0.64419550  0.48271400  1
  H  H57  1  0.13836950  0.14419550  0.01728600  1
  H  H58  1  0.13836950  0.85580450  0.51728600  1
  H  H59  1  0.36163050  0.35580450  0.98271400  1
  H  H60  1  0.38217050  0.41767250  0.49482500  1
  H  H61  1  0.11782950  0.91767250  0.00517500  1
  H  H62  1  0.11782950  0.08232750  0.50517500  1
  H  H63  1  0.38217050  0.58232750  0.99482500  1
  H  H64  1  0.00605350  0.17270250  0.39330300  1
  H  H65  1  0.49394650  0.67270250  0.10669700  1
  H  H66  1  0.49394650  0.32729750  0.60669700  1
  H  H67  1  0.00605350  0.82729750  0.89330300  1
  H  H68  1  0.48559650  0.81869550  0.45410900  1
  H  H69  1  0.01440350  0.31869550  0.04589100  1
  H  H70  1  0.01440350  0.68130450  0.54589100  1
  H  H71  1  0.48559650  0.18130450  0.95410900  1
  S  S72  1  0.00000000  0.17030800  0.25000000  1
  S  S73  1  0.00000000  0.82969200  0.75000000  1
  S  S74  1  0.78671100  0.46916400  0.41008000  1
  S  S75  1  0.71328900  0.96916400  0.08992000  1
  S  S76  1  0.71328900  0.03083600  0.58992000  1
  S  S77  1  0.78671100  0.53083600  0.91008000  1
  S  S78  1  0.50000000  0.67030800  0.25000000  1
  S  S79  1  0.50000000  0.32969200  0.75000000  1
  S  S80  1  0.28671100  0.96916400  0.41008000  1
  S  S81  1  0.21328900  0.46916400  0.08992000  1
  S  S82  1  0.21328900  0.53083600  0.58992000  1
  S  S83  1  0.28671100  0.03083600  0.91008000  1
  O  O84  1  0.76124100  0.00095600  0.29620400  1
  O  O85  1  0.73875900  0.50095600  0.20379600  1
  O  O86  1  0.73875900  0.49904400  0.70379600  1
  O  O87  1  0.76124100  0.99904400  0.79620400  1
  O  O88  1  0.51350650  0.16409050  0.35730900  1
  O  O89  1  0.98649350  0.66409050  0.14269100  1
  O  O90  1  0.98649350  0.33590950  0.64269100  1
  O  O91  1  0.51350650  0.83590950  0.85730900  1
  O  O92  1  0.84736750  0.01568350  0.45949500  1
  O  O93  1  0.65263250  0.51568350  0.04050500  1
  O  O94  1  0.65263250  0.48431650  0.54050500  1
  O  O95  1  0.84736750  0.98431650  0.95949500  1
  O  O96  1  0.53979900  0.75501500  0.43573000  1
  O  O97  1  0.96020100  0.25501500  0.06427000  1
  O  O98  1  0.96020100  0.74498500  0.56427000  1
  O  O99  1  0.53979900  0.24498500  0.93573000  1
  O  O100  1  0.91508900  0.29324300  0.21275900  1
  O  O101  1  0.58491100  0.79324300  0.28724100  1
  O  O102  1  0.58491100  0.20675700  0.78724100  1
  O  O103  1  0.91508900  0.70675700  0.71275900  1
  O  O104  1  0.96691650  0.04636550  0.30661800  1
  O  O105  1  0.53308350  0.54636550  0.19338200  1
  O  O106  1  0.53308350  0.45363450  0.69338200  1
  O  O107  1  0.96691650  0.95363450  0.80661800  1
  O  O108  1  0.86087200  0.41281900  0.48074400  1
  O  O109  1  0.63912800  0.91281900  0.01925600  1
  O  O110  1  0.63912800  0.08718100  0.51925600  1
  O  O111  1  0.86087200  0.58718100  0.98074400  1
  O  O112  1  0.83938800  0.47364600  0.34865900  1
  O  O113  1  0.66061200  0.97364600  0.15134100  1
  O  O114  1  0.66061200  0.02635400  0.65134100  1
  O  O115  1  0.83938800  0.52635400  0.84865900  1
  O  O116  1  0.70481350  0.32412550  0.39528800  1
  O  O117  1  0.79518650  0.82412550  0.10471200  1
  O  O118  1  0.79518650  0.17587450  0.60471200  1
  O  O119  1  0.70481350  0.67587450  0.89528800  1
  O  O120  1  0.74613450  0.66181450  0.42278100  1
  O  O121  1  0.75386550  0.16181450  0.07721900  1
  O  O122  1  0.75386550  0.83818550  0.57721900  1
  O  O123  1  0.74613450  0.33818550  0.92278100  1
  O  O124  1  0.26124100  0.50095600  0.29620400  1
  O  O125  1  0.23875900  0.00095600  0.20379600  1
  O  O126  1  0.23875900  0.99904400  0.70379600  1
  O  O127  1  0.26124100  0.49904400  0.79620400  1
  O  O128  1  0.01350650  0.66409050  0.35730900  1
  O  O129  1  0.48649350  0.16409050  0.14269100  1
  O  O130  1  0.48649350  0.83590950  0.64269100  1
  O  O131  1  0.01350650  0.33590950  0.85730900  1
  O  O132  1  0.34736750  0.51568350  0.45949500  1
  O  O133  1  0.15263250  0.01568350  0.04050500  1
  O  O134  1  0.15263250  0.98431650  0.54050500  1
  O  O135  1  0.34736750  0.48431650  0.95949500  1
  O  O136  1  0.03979900  0.25501500  0.43573000  1
  O  O137  1  0.46020100  0.75501500  0.06427000  1
  O  O138  1  0.46020100  0.24498500  0.56427000  1
  O  O139  1  0.03979900  0.74498500  0.93573000  1
  O  O140  1  0.41508900  0.79324300  0.21275900  1
  O  O141  1  0.08491100  0.29324300  0.28724100  1
  O  O142  1  0.08491100  0.70675700  0.78724100  1
  O  O143  1  0.41508900  0.20675700  0.71275900  1
  O  O144  1  0.46691650  0.54636550  0.30661800  1
  O  O145  1  0.03308350  0.04636550  0.19338200  1
  O  O146  1  0.03308350  0.95363450  0.69338200  1
  O  O147  1  0.46691650  0.45363450  0.80661800  1
  O  O148  1  0.36087200  0.91281900  0.48074400  1
  O  O149  1  0.13912800  0.41281900  0.01925600  1
  O  O150  1  0.13912800  0.58718100  0.51925600  1
  O  O151  1  0.36087200  0.08718100  0.98074400  1
  O  O152  1  0.33938800  0.97364600  0.34865900  1
  O  O153  1  0.16061200  0.47364600  0.15134100  1
  O  O154  1  0.16061200  0.52635400  0.65134100  1
  O  O155  1  0.33938800  0.02635400  0.84865900  1
  O  O156  1  0.20481350  0.82412550  0.39528800  1
  O  O157  1  0.29518650  0.32412550  0.10471200  1
  O  O158  1  0.29518650  0.67587450  0.60471200  1
  O  O159  1  0.20481350  0.17587450  0.89528800  1
  O  O160  1  0.24613450  0.16181450  0.42278100  1
  O  O161  1  0.25386550  0.66181450  0.07721900  1
  O  O162  1  0.25386550  0.33818550  0.57721900  1
  O  O163  1  0.24613450  0.83818550  0.92278100  1
