# generated using pymatgen
data_CsAuCl3
_symmetry_space_group_name_H-M   'P 1'
_cell_length_a   7.59988800
_cell_length_b   7.59988800
_cell_length_c   11.32637600
_cell_angle_alpha   90.00000000
_cell_angle_beta   90.00000000
_cell_angle_gamma   90.00000000
_symmetry_Int_Tables_number   1
_chemical_formula_structural   CsAuCl3
_chemical_formula_sum   'Cs4 Au4 Cl12'
_cell_volume   654.19219588
_cell_formula_units_Z   4
loop_
 _symmetry_equiv_pos_site_id
 _symmetry_equiv_pos_as_xyz
  1  'x, y, z'
loop_
 _atom_site_type_symbol
 _atom_site_label
 _atom_site_symmetry_multiplicity
 _atom_site_fract_x
 _atom_site_fract_y
 _atom_site_fract_z
 _atom_site_occupancy
  Cs  Cs0  1  0.50000000  0.00000000  0.25000000  1
  Cs  Cs1  1  0.00000000  0.50000000  0.25000000  1
  Cs  Cs2  1  0.00000000  0.50000000  0.75000000  1
  Cs  Cs3  1  0.50000000  0.00000000  0.75000000  1
  Au  Au4  1  0.50000000  0.50000000  0.00000000  1
  Au  Au5  1  0.00000000  0.00000000  0.00000000  1
  Au  Au6  1  0.00000000  0.00000000  0.50000000  1
  Au  Au7  1  0.50000000  0.50000000  0.50000000  1
  Cl  Cl8  1  0.00000000  0.00000000  0.29517100  1
  Cl  Cl9  1  0.50000000  0.50000000  0.20482900  1
  Cl  Cl10  1  0.78033300  0.78033300  0.00000000  1
  Cl  Cl11  1  0.21966700  0.78033300  0.00000000  1
  Cl  Cl12  1  0.21966700  0.21966700  0.00000000  1
  Cl  Cl13  1  0.78033300  0.21966700  0.00000000  1
  Cl  Cl14  1  0.50000000  0.50000000  0.79517100  1
  Cl  Cl15  1  0.00000000  0.00000000  0.70482900  1
  Cl  Cl16  1  0.28033300  0.28033300  0.50000000  1
  Cl  Cl17  1  0.71966700  0.28033300  0.50000000  1
  Cl  Cl18  1  0.71966700  0.71966700  0.50000000  1
  Cl  Cl19  1  0.28033300  0.71966700  0.50000000  1
