# generated using pymatgen
data_Rb4Hg5Te13
_symmetry_space_group_name_H-M   'P 1'
_cell_length_a   9.37265500
_cell_length_b   10.26030900
_cell_length_c   35.49147800
_cell_angle_alpha   90.00000000
_cell_angle_beta   90.00000000
_cell_angle_gamma   90.00000000
_symmetry_Int_Tables_number   1
_chemical_formula_structural   Rb4Hg5Te13
_chemical_formula_sum   'Rb16 Hg20 Te52'
_cell_volume   3413.08541447
_cell_formula_units_Z   4
loop_
 _symmetry_equiv_pos_site_id
 _symmetry_equiv_pos_as_xyz
  1  'x, y, z'
loop_
 _atom_site_type_symbol
 _atom_site_label
 _atom_site_symmetry_multiplicity
 _atom_site_fract_x
 _atom_site_fract_y
 _atom_site_fract_z
 _atom_site_occupancy
  Rb  Rb0  1  0.99286700  0.22559700  0.48485300  1
  Rb  Rb1  1  0.49286700  0.77440300  0.51514700  1
  Rb  Rb2  1  0.50713300  0.72559700  0.01514700  1
  Rb  Rb3  1  0.00713300  0.27440300  0.98485300  1
  Rb  Rb4  1  0.00713300  0.77440300  0.51514700  1
  Rb  Rb5  1  0.50713300  0.22559700  0.48485300  1
  Rb  Rb6  1  0.49286700  0.27440300  0.98485300  1
  Rb  Rb7  1  0.99286700  0.72559700  0.01514700  1
  Rb  Rb8  1  0.75000000  0.58298800  0.34039600  1
  Rb  Rb9  1  0.25000000  0.41701200  0.65960400  1
  Rb  Rb10  1  0.75000000  0.08298800  0.15960400  1
  Rb  Rb11  1  0.25000000  0.91701200  0.84039600  1
  Rb  Rb12  1  0.25000000  0.08790500  0.25340200  1
  Rb  Rb13  1  0.75000000  0.91209500  0.74659800  1
  Rb  Rb14  1  0.25000000  0.58790500  0.24659800  1
  Rb  Rb15  1  0.75000000  0.41209500  0.75340200  1
  Hg  Hg16  1  0.75000000  0.94411300  0.30290800  1
  Hg  Hg17  1  0.25000000  0.05588700  0.69709200  1
  Hg  Hg18  1  0.75000000  0.44411300  0.19709200  1
  Hg  Hg19  1  0.25000000  0.55588700  0.80290800  1
  Hg  Hg20  1  0.02479900  0.79090500  0.40307000  1
  Hg  Hg21  1  0.52479900  0.20909500  0.59693000  1
  Hg  Hg22  1  0.47520100  0.29090500  0.09693000  1
  Hg  Hg23  1  0.97520100  0.70909500  0.90307000  1
  Hg  Hg24  1  0.97520100  0.20909500  0.59693000  1
  Hg  Hg25  1  0.47520100  0.79090500  0.40307000  1
  Hg  Hg26  1  0.52479900  0.70909500  0.90307000  1
  Hg  Hg27  1  0.02479900  0.29090500  0.09693000  1
  Hg  Hg28  1  0.00820700  0.12766400  0.35552300  1
  Hg  Hg29  1  0.50820700  0.87233600  0.64447700  1
  Hg  Hg30  1  0.49179300  0.62766400  0.14447700  1
  Hg  Hg31  1  0.99179300  0.37233600  0.85552300  1
  Hg  Hg32  1  0.99179300  0.87233600  0.64447700  1
  Hg  Hg33  1  0.49179300  0.12766400  0.35552300  1
  Hg  Hg34  1  0.50820700  0.37233600  0.85552300  1
  Hg  Hg35  1  0.00820700  0.62766400  0.14447700  1
  Te  Te36  1  0.02757500  0.87034200  0.32468400  1
  Te  Te37  1  0.52757500  0.12965800  0.67531600  1
  Te  Te38  1  0.47242500  0.37034200  0.17531600  1
  Te  Te39  1  0.97242500  0.62965800  0.82468400  1
  Te  Te40  1  0.97242500  0.12965800  0.67531600  1
  Te  Te41  1  0.47242500  0.87034200  0.32468400  1
  Te  Te42  1  0.52757500  0.62965800  0.82468400  1
  Te  Te43  1  0.02757500  0.37034200  0.17531600  1
  Te  Te44  1  0.25000000  0.93047600  0.44181400  1
  Te  Te45  1  0.75000000  0.06952400  0.55818600  1
  Te  Te46  1  0.25000000  0.43047600  0.05818600  1
  Te  Te47  1  0.75000000  0.56952400  0.94181400  1
  Te  Te48  1  0.75000000  0.14043200  0.40371000  1
  Te  Te49  1  0.25000000  0.85956800  0.59629000  1
  Te  Te50  1  0.75000000  0.64043200  0.09629000  1
  Te  Te51  1  0.25000000  0.35956800  0.90371000  1
  Te  Te52  1  0.75000000  0.89351000  0.43693500  1
  Te  Te53  1  0.25000000  0.10649000  0.56306500  1
  Te  Te54  1  0.75000000  0.39351000  0.06306500  1
  Te  Te55  1  0.25000000  0.60649000  0.93693500  1
  Te  Te56  1  0.25000000  0.20516400  0.40103200  1
  Te  Te57  1  0.75000000  0.79483600  0.59896800  1
  Te  Te58  1  0.25000000  0.70516400  0.09896800  1
  Te  Te59  1  0.75000000  0.29483600  0.90103200  1
  Te  Te60  1  0.25000000  0.44673000  0.35524100  1
  Te  Te61  1  0.75000000  0.55327000  0.64475900  1
  Te  Te62  1  0.25000000  0.94673000  0.14475900  1
  Te  Te63  1  0.75000000  0.05327000  0.85524100  1
  Te  Te64  1  0.75000000  0.20544700  0.26551500  1
  Te  Te65  1  0.25000000  0.79455300  0.73448500  1
  Te  Te66  1  0.75000000  0.70544700  0.23448500  1
  Te  Te67  1  0.25000000  0.29455300  0.76551500  1
  Te  Te68  1  0.99704300  0.33340000  0.30194800  1
  Te  Te69  1  0.49704300  0.66660000  0.69805200  1
  Te  Te70  1  0.50295700  0.83340000  0.19805200  1
  Te  Te71  1  0.00295700  0.16660000  0.80194800  1
  Te  Te72  1  0.00295700  0.66660000  0.69805200  1
  Te  Te73  1  0.50295700  0.33340000  0.30194800  1
  Te  Te74  1  0.49704300  0.16660000  0.80194800  1
  Te  Te75  1  0.99704300  0.83340000  0.19805200  1
  Te  Te76  1  0.75000000  0.53740700  0.46838000  1
  Te  Te77  1  0.25000000  0.46259300  0.53162000  1
  Te  Te78  1  0.75000000  0.03740700  0.03162000  1
  Te  Te79  1  0.25000000  0.96259300  0.96838000  1
  Te  Te80  1  0.99442600  0.52091400  0.42061900  1
  Te  Te81  1  0.49442600  0.47908600  0.57938100  1
  Te  Te82  1  0.50557400  0.02091400  0.07938100  1
  Te  Te83  1  0.00557400  0.97908600  0.92061900  1
  Te  Te84  1  0.00557400  0.47908600  0.57938100  1
  Te  Te85  1  0.50557400  0.52091400  0.42061900  1
  Te  Te86  1  0.49442600  0.97908600  0.92061900  1
  Te  Te87  1  0.99442600  0.02091400  0.07938100  1
