# generated using pymatgen
data_Ba2TaBiO6
_symmetry_space_group_name_H-M   'P 1'
_cell_length_a   6.15125367
_cell_length_b   6.15125367
_cell_length_c   14.86866932
_cell_angle_alpha   90.00000000
_cell_angle_beta   90.00000000
_cell_angle_gamma   120.00000000
_symmetry_Int_Tables_number   1
_chemical_formula_structural   Ba2TaBiO6
_chemical_formula_sum   'Ba6 Ta3 Bi3 O18'
_cell_volume   487.22549841
_cell_formula_units_Z   3
loop_
 _symmetry_equiv_pos_site_id
 _symmetry_equiv_pos_as_xyz
  1  'x, y, z'
loop_
 _atom_site_type_symbol
 _atom_site_label
 _atom_site_symmetry_multiplicity
 _atom_site_fract_x
 _atom_site_fract_y
 _atom_site_fract_z
 _atom_site_occupancy
  Ba  Ba0  1  0.33333333  0.66666667  0.41548267  1
  Ba  Ba1  1  0.33333333  0.66666667  0.91785067  1
  Ba  Ba2  1  0.00000000  0.00000000  0.74881600  1
  Ba  Ba3  1  0.00000000  0.00000000  0.25118400  1
  Ba  Ba4  1  0.66666667  0.33333333  0.08214933  1
  Ba  Ba5  1  0.66666667  0.33333333  0.58451733  1
  Ta  Ta6  1  0.33333333  0.66666667  0.16666667  1
  Ta  Ta7  1  1.00000000  0.00000000  0.50000000  1
  Ta  Ta8  1  0.66666667  0.33333333  0.83333333  1
  Bi  Bi9  1  0.00000000  0.00000000  0.00000000  1
  Bi  Bi10  1  0.66666667  0.33333333  0.33333333  1
  Bi  Bi11  1  0.33333333  0.66666667  0.66666667  1
  O  O12  1  0.63670967  0.76676533  0.08880033  1
  O  O13  1  0.13005567  0.36329033  0.08880033  1
  O  O14  1  0.23323467  0.86994433  0.08880033  1
  O  O15  1  0.02995700  0.56656800  0.24453300  1
  O  O16  1  0.43343200  0.46338900  0.24453300  1
  O  O17  1  0.53661100  0.97004300  0.24453300  1
  O  O18  1  0.30337633  0.10009867  0.42213367  1
  O  O19  1  0.79672233  0.69662367  0.42213367  1
  O  O20  1  0.89990133  0.20327767  0.42213367  1
  O  O21  1  0.69662367  0.89990133  0.57786633  1
  O  O22  1  0.10009867  0.79672233  0.57786633  1
  O  O23  1  0.20327767  0.30337633  0.57786633  1
  O  O24  1  0.97004300  0.43343200  0.75546700  1
  O  O25  1  0.46338900  0.02995700  0.75546700  1
  O  O26  1  0.56656800  0.53661100  0.75546700  1
  O  O27  1  0.36329033  0.23323467  0.91119967  1
  O  O28  1  0.76676533  0.13005567  0.91119967  1
  O  O29  1  0.86994433  0.63670967  0.91119967  1
