# generated using pymatgen
data_Tl4HgI6
_symmetry_space_group_name_H-M   'P 1'
_cell_length_a   9.61601100
_cell_length_b   9.61601100
_cell_length_c   9.51306200
_cell_angle_alpha   90.00000000
_cell_angle_beta   90.00000000
_cell_angle_gamma   90.00000000
_symmetry_Int_Tables_number   1
_chemical_formula_structural   Tl4HgI6
_chemical_formula_sum   'Tl8 Hg2 I12'
_cell_volume   879.65065442
_cell_formula_units_Z   2
loop_
 _symmetry_equiv_pos_site_id
 _symmetry_equiv_pos_as_xyz
  1  'x, y, z'
loop_
 _atom_site_type_symbol
 _atom_site_label
 _atom_site_symmetry_multiplicity
 _atom_site_fract_x
 _atom_site_fract_y
 _atom_site_fract_z
 _atom_site_occupancy
  Tl  Tl0  1  0.34958000  0.84958000  0.75000000  1
  Tl  Tl1  1  0.15042000  0.34958000  0.75000000  1
  Tl  Tl2  1  0.84958000  0.65042000  0.75000000  1
  Tl  Tl3  1  0.65042000  0.15042000  0.75000000  1
  Tl  Tl4  1  0.65042000  0.15042000  0.25000000  1
  Tl  Tl5  1  0.84958000  0.65042000  0.25000000  1
  Tl  Tl6  1  0.15042000  0.34958000  0.25000000  1
  Tl  Tl7  1  0.34958000  0.84958000  0.25000000  1
  Hg  Hg8  1  0.50000000  0.50000000  0.50000000  1
  Hg  Hg9  1  0.00000000  0.00000000  0.00000000  1
  I  I10  1  0.35947000  0.17559500  0.50000000  1
  I  I11  1  0.64053000  0.82440500  0.50000000  1
  I  I12  1  0.17559500  0.64053000  0.50000000  1
  I  I13  1  0.82440500  0.35947000  0.50000000  1
  I  I14  1  0.67559500  0.85947000  0.00000000  1
  I  I15  1  0.14053000  0.67559500  0.00000000  1
  I  I16  1  0.85947000  0.32440500  0.00000000  1
  I  I17  1  0.32440500  0.14053000  0.00000000  1
  I  I18  1  0.50000000  0.50000000  0.78862800  1
  I  I19  1  0.00000000  0.00000000  0.71137200  1
  I  I20  1  0.00000000  0.00000000  0.28862800  1
  I  I21  1  0.50000000  0.50000000  0.21137200  1
