# generated using pymatgen
data_In(IO3)3
_symmetry_space_group_name_H-M   'P 1'
_cell_length_a   9.89742601
_cell_length_b   9.89742601
_cell_length_c   14.92525357
_cell_angle_alpha   90.00000000
_cell_angle_beta   90.00000000
_cell_angle_gamma   120.00000000
_symmetry_Int_Tables_number   1
_chemical_formula_structural   In(IO3)3
_chemical_formula_sum   'In6 I18 O54'
_cell_volume   1266.18416461
_cell_formula_units_Z   6
loop_
 _symmetry_equiv_pos_site_id
 _symmetry_equiv_pos_as_xyz
  1  'x, y, z'
loop_
 _atom_site_type_symbol
 _atom_site_label
 _atom_site_symmetry_multiplicity
 _atom_site_fract_x
 _atom_site_fract_y
 _atom_site_fract_z
 _atom_site_occupancy
  In  In0  1  0.33333333  0.66666667  0.48802367  1
  In  In1  1  0.33333333  0.66666667  0.84530967  1
  In  In2  1  0.00000000  0.00000000  0.82135700  1
  In  In3  1  0.00000000  0.00000000  0.17864300  1
  In  In4  1  0.66666667  0.33333333  0.15469033  1
  In  In5  1  0.66666667  0.33333333  0.51197633  1
  I  I6  1  0.63064433  0.67075867  0.09002567  1
  I  I7  1  0.62655233  0.96397767  0.24330767  1
  I  I8  1  0.33742533  0.37344767  0.24330767  1
  I  I9  1  0.03602233  0.66257467  0.24330767  1
  I  I10  1  0.32924133  0.95988567  0.09002567  1
  I  I11  1  0.04011433  0.36935567  0.09002567  1
  I  I12  1  0.29731100  0.00409200  0.42335900  1
  I  I13  1  0.29321900  0.29731100  0.57664100  1
  I  I14  1  0.00409200  0.70678100  0.57664100  1
  I  I15  1  0.70268900  0.99590800  0.57664100  1
  I  I16  1  0.99590800  0.29321900  0.42335900  1
  I  I17  1  0.70678100  0.70268900  0.42335900  1
  I  I18  1  0.96397767  0.33742533  0.75669233  1
  I  I19  1  0.95988567  0.63064433  0.90997433  1
  I  I20  1  0.67075867  0.04011433  0.90997433  1
  I  I21  1  0.36935567  0.32924133  0.90997433  1
  I  I22  1  0.66257467  0.62655233  0.75669233  1
  I  I23  1  0.37344767  0.03602233  0.75669233  1
  O  O24  1  0.05751533  0.42388167  0.20899267  1
  O  O25  1  0.36636633  0.94248467  0.20899267  1
  O  O26  1  0.57611833  0.63363367  0.20899267  1
  O  O27  1  0.60915133  0.90945167  0.12434067  1
  O  O28  1  0.30030033  0.39084867  0.12434067  1
  O  O29  1  0.09054833  0.69969967  0.12434067  1
  O  O30  1  0.52004733  0.69567567  0.39678967  1
  O  O31  1  0.17562833  0.47995267  0.39678967  1
  O  O32  1  0.82405367  0.53173133  0.23802633  1
  O  O33  1  0.46826867  0.29232233  0.23802633  1
  O  O34  1  0.70767767  0.17594633  0.23802633  1
  O  O35  1  0.84261300  0.80160200  0.09530700  1
  O  O36  1  0.19839800  0.04101100  0.09530700  1
  O  O37  1  0.95898900  0.15738700  0.09530700  1
  O  O38  1  0.36234233  0.50896167  0.93654367  1
  O  O39  1  0.49103833  0.85338067  0.93654367  1
  O  O40  1  0.14661933  0.63765767  0.93654367  1
  O  O41  1  0.30432433  0.82437167  0.39678967  1
  O  O42  1  0.72418200  0.75721500  0.54232600  1
  O  O43  1  0.03303300  0.27581800  0.54232600  1
  O  O44  1  0.24278500  0.96696700  0.54232600  1
  O  O45  1  0.27581800  0.24278500  0.45767400  1
  O  O46  1  0.96696700  0.72418200  0.45767400  1
  O  O47  1  0.75721500  0.03303300  0.45767400  1
  O  O48  1  0.18671400  0.02900900  0.73012300  1
  O  O49  1  0.84229500  0.81328600  0.73012300  1
  O  O50  1  0.49072033  0.86506467  0.57135967  1
  O  O51  1  0.13493533  0.62565567  0.57135967  1
  O  O52  1  0.37434433  0.50927967  0.57135967  1
  O  O53  1  0.50927967  0.13493533  0.42864033  1
  O  O54  1  0.86506467  0.37434433  0.42864033  1
  O  O55  1  0.62565567  0.49072033  0.42864033  1
  O  O56  1  0.02900900  0.84229500  0.26987700  1
  O  O57  1  0.15770500  0.18671400  0.26987700  1
  O  O58  1  0.81328600  0.97099100  0.26987700  1
  O  O59  1  0.97099100  0.15770500  0.73012300  1
  O  O60  1  0.39084867  0.09054833  0.87565933  1
  O  O61  1  0.69969967  0.60915133  0.87565933  1
  O  O62  1  0.90945167  0.30030033  0.87565933  1
  O  O63  1  0.94248467  0.57611833  0.79100733  1
  O  O64  1  0.63363367  0.05751533  0.79100733  1
  O  O65  1  0.42388167  0.36636633  0.79100733  1
  O  O66  1  0.85338067  0.36234233  0.06345633  1
  O  O67  1  0.50896167  0.14661933  0.06345633  1
  O  O68  1  0.15738700  0.19839800  0.90469300  1
  O  O69  1  0.80160200  0.95898900  0.90469300  1
  O  O70  1  0.04101100  0.84261300  0.90469300  1
  O  O71  1  0.17594633  0.46826867  0.76197367  1
  O  O72  1  0.53173133  0.70767767  0.76197367  1
  O  O73  1  0.29232233  0.82405367  0.76197367  1
  O  O74  1  0.69567567  0.17562833  0.60321033  1
  O  O75  1  0.82437167  0.52004733  0.60321033  1
  O  O76  1  0.47995267  0.30432433  0.60321033  1
  O  O77  1  0.63765767  0.49103833  0.06345633  1
