# generated using pymatgen
data_LiBiF6
_symmetry_space_group_name_H-M   'P 1'
_cell_length_a   5.23821564
_cell_length_b   5.23821564
_cell_length_c   14.41885950
_cell_angle_alpha   90.00000000
_cell_angle_beta   90.00000000
_cell_angle_gamma   120.00000000
_symmetry_Int_Tables_number   1
_chemical_formula_structural   LiBiF6
_chemical_formula_sum   'Li3 Bi3 F18'
_cell_volume   342.63228842
_cell_formula_units_Z   3
loop_
 _symmetry_equiv_pos_site_id
 _symmetry_equiv_pos_as_xyz
  1  'x, y, z'
loop_
 _atom_site_type_symbol
 _atom_site_label
 _atom_site_symmetry_multiplicity
 _atom_site_fract_x
 _atom_site_fract_y
 _atom_site_fract_z
 _atom_site_occupancy
  Li  Li0  1  0.33333333  0.66666667  0.16666667  1
  Li  Li1  1  1.00000000  0.00000000  0.50000000  1
  Li  Li2  1  0.66666667  0.33333333  0.83333333  1
  Bi  Bi3  1  0.00000000  0.00000000  0.00000000  1
  Bi  Bi4  1  0.66666667  0.33333333  0.33333333  1
  Bi  Bi5  1  0.33333333  0.66666667  0.66666667  1
  F  F6  1  0.03073433  0.69808567  0.08260667  1
  F  F7  1  0.66735133  0.96926567  0.08260667  1
  F  F8  1  0.30191433  0.33264867  0.08260667  1
  F  F9  1  0.99931533  0.36406767  0.25072667  1
  F  F10  1  0.36475233  0.00068467  0.25072667  1
  F  F11  1  0.63593233  0.63524767  0.25072667  1
  F  F12  1  0.69740100  0.03141900  0.41594000  1
  F  F13  1  0.33401800  0.30259900  0.41594000  1
  F  F14  1  0.96858100  0.66598200  0.41594000  1
  F  F15  1  0.66598200  0.69740100  0.58406000  1
  F  F16  1  0.03141900  0.33401800  0.58406000  1
  F  F17  1  0.30259900  0.96858100  0.58406000  1
  F  F18  1  0.36406767  0.36475233  0.74927333  1
  F  F19  1  0.00068467  0.63593233  0.74927333  1
  F  F20  1  0.63524767  0.99931533  0.74927333  1
  F  F21  1  0.33264867  0.03073433  0.91739333  1
  F  F22  1  0.69808567  0.66735133  0.91739333  1
  F  F23  1  0.96926567  0.30191433  0.91739333  1
