# generated using pymatgen
data_Te3(PbO4)2
_symmetry_space_group_name_H-M   'P 1'
_cell_length_a   7.22616200
_cell_length_b   20.11227200
_cell_length_c   19.23715900
_cell_angle_alpha   90.00000000
_cell_angle_beta   90.00000000
_cell_angle_gamma   90.00000000
_symmetry_Int_Tables_number   1
_chemical_formula_structural   Te3(PbO4)2
_chemical_formula_sum   'Te36 Pb24 O96'
_cell_volume   2795.82357068
_cell_formula_units_Z   12
loop_
 _symmetry_equiv_pos_site_id
 _symmetry_equiv_pos_as_xyz
  1  'x, y, z'
loop_
 _atom_site_type_symbol
 _atom_site_label
 _atom_site_symmetry_multiplicity
 _atom_site_fract_x
 _atom_site_fract_y
 _atom_site_fract_z
 _atom_site_occupancy
  Te  Te0  1  0.43769900  0.38627300  0.25000000  1
  Te  Te1  1  0.93769900  0.11372700  0.25000000  1
  Te  Te2  1  0.06230100  0.11372700  0.75000000  1
  Te  Te3  1  0.56230100  0.38627300  0.75000000  1
  Te  Te4  1  0.34743100  0.11671900  0.58367600  1
  Te  Te5  1  0.84743100  0.38328100  0.91632400  1
  Te  Te6  1  0.15256900  0.38328100  0.08367600  1
  Te  Te7  1  0.65256900  0.11671900  0.41632400  1
  Te  Te8  1  0.15256900  0.38328100  0.41632400  1
  Te  Te9  1  0.65256900  0.11671900  0.08367600  1
  Te  Te10  1  0.34743100  0.11671900  0.91632400  1
  Te  Te11  1  0.84743100  0.38328100  0.58367600  1
  Te  Te12  1  0.20534100  0.00000000  0.07487400  1
  Te  Te13  1  0.20534100  0.00000000  0.42512600  1
  Te  Te14  1  0.79465900  0.00000000  0.57487400  1
  Te  Te15  1  0.79465900  0.00000000  0.92512600  1
  Te  Te16  1  0.39694600  0.00000000  0.25000000  1
  Te  Te17  1  0.60305400  0.00000000  0.75000000  1
  Te  Te18  1  0.93769900  0.88627300  0.25000000  1
  Te  Te19  1  0.43769900  0.61372700  0.25000000  1
  Te  Te20  1  0.56230100  0.61372700  0.75000000  1
  Te  Te21  1  0.06230100  0.88627300  0.75000000  1
  Te  Te22  1  0.84743100  0.61671900  0.58367600  1
  Te  Te23  1  0.34743100  0.88328100  0.91632400  1
  Te  Te24  1  0.65256900  0.88328100  0.08367600  1
  Te  Te25  1  0.15256900  0.61671900  0.41632400  1
  Te  Te26  1  0.65256900  0.88328100  0.41632400  1
  Te  Te27  1  0.15256900  0.61671900  0.08367600  1
  Te  Te28  1  0.84743100  0.61671900  0.91632400  1
  Te  Te29  1  0.34743100  0.88328100  0.58367600  1
  Te  Te30  1  0.70534100  0.50000000  0.07487400  1
  Te  Te31  1  0.70534100  0.50000000  0.42512600  1
  Te  Te32  1  0.29465900  0.50000000  0.57487400  1
  Te  Te33  1  0.29465900  0.50000000  0.92512600  1
  Te  Te34  1  0.89694600  0.50000000  0.25000000  1
  Te  Te35  1  0.10305400  0.50000000  0.75000000  1
  Pb  Pb36  1  0.49156850  0.18972550  0.25000000  1
  Pb  Pb37  1  0.99156850  0.31027450  0.25000000  1
  Pb  Pb38  1  0.00843150  0.31027450  0.75000000  1
  Pb  Pb39  1  0.50843150  0.18972550  0.75000000  1
  Pb  Pb40  1  0.87261200  0.19075200  0.58969200  1
  Pb  Pb41  1  0.37261200  0.30924800  0.91030800  1
  Pb  Pb42  1  0.62738800  0.30924800  0.08969200  1
  Pb  Pb43  1  0.12738800  0.19075200  0.41030800  1
  Pb  Pb44  1  0.62738800  0.30924800  0.41030800  1
  Pb  Pb45  1  0.12738800  0.19075200  0.08969200  1
  Pb  Pb46  1  0.87261200  0.19075200  0.91030800  1
  Pb  Pb47  1  0.37261200  0.30924800  0.58969200  1
  Pb  Pb48  1  0.99156850  0.68972550  0.25000000  1
  Pb  Pb49  1  0.49156850  0.81027450  0.25000000  1
  Pb  Pb50  1  0.50843150  0.81027450  0.75000000  1
  Pb  Pb51  1  0.00843150  0.68972550  0.75000000  1
  Pb  Pb52  1  0.37261200  0.69075200  0.58969200  1
  Pb  Pb53  1  0.87261200  0.80924800  0.91030800  1
  Pb  Pb54  1  0.12738800  0.80924800  0.08969200  1
  Pb  Pb55  1  0.62738800  0.69075200  0.41030800  1
  Pb  Pb56  1  0.12738800  0.80924800  0.41030800  1
  Pb  Pb57  1  0.62738800  0.69075200  0.08969200  1
  Pb  Pb58  1  0.37261200  0.69075200  0.91030800  1
  Pb  Pb59  1  0.87261200  0.80924800  0.58969200  1
  O  O60  1  0.65332300  0.33242000  0.25000000  1
  O  O61  1  0.15332300  0.16758000  0.25000000  1
  O  O62  1  0.84667700  0.16758000  0.75000000  1
  O  O63  1  0.34667700  0.33242000  0.75000000  1
  O  O64  1  0.06252200  0.42803300  0.25000000  1
  O  O65  1  0.56252200  0.07196700  0.25000000  1
  O  O66  1  0.43747800  0.07196700  0.75000000  1
  O  O67  1  0.93747800  0.42803300  0.75000000  1
  O  O68  1  0.92777050  0.07210650  0.88664400  1
  O  O69  1  0.42777050  0.42789350  0.61335600  1
  O  O70  1  0.57222950  0.42789350  0.38664400  1
  O  O71  1  0.07222950  0.07210650  0.11335600  1
  O  O72  1  0.57222950  0.42789350  0.11335600  1
  O  O73  1  0.07222950  0.07210650  0.38664400  1
  O  O74  1  0.92777050  0.07210650  0.61335600  1
  O  O75  1  0.42777050  0.42789350  0.88664400  1
  O  O76  1  0.53108400  0.17645000  0.61580000  1
  O  O77  1  0.03108400  0.32355000  0.88420000  1
  O  O78  1  0.96891600  0.32355000  0.11580000  1
  O  O79  1  0.46891600  0.17645000  0.38420000  1
  O  O80  1  0.96891600  0.32355000  0.38420000  1
  O  O81  1  0.46891600  0.17645000  0.11580000  1
  O  O82  1  0.53108400  0.17645000  0.88420000  1
  O  O83  1  0.03108400  0.32355000  0.61580000  1
  O  O84  1  0.18612250  0.16412550  0.67855200  1
  O  O85  1  0.68612250  0.33587450  0.82144800  1
  O  O86  1  0.31387750  0.33587450  0.17855200  1
  O  O87  1  0.81387750  0.16412550  0.32144800  1
  O  O88  1  0.31387750  0.33587450  0.32144800  1
  O  O89  1  0.81387750  0.16412550  0.17855200  1
  O  O90  1  0.58549300  0.00000000  0.86338500  1
  O  O91  1  0.58549300  0.00000000  0.63661500  1
  O  O92  1  0.41450700  0.00000000  0.36338500  1
  O  O93  1  0.41450700  0.00000000  0.13661500  1
  O  O94  1  0.00000000  0.41256600  0.50000000  1
  O  O95  1  0.50000000  0.08743400  0.00000000  1
  O  O96  1  0.50000000  0.08743400  0.50000000  1
  O  O97  1  0.00000000  0.41256600  0.00000000  1
  O  O98  1  0.69690250  0.32262150  0.53239500  1
  O  O99  1  0.19690250  0.17737850  0.96760500  1
  O  O100  1  0.80309750  0.17737850  0.03239500  1
  O  O101  1  0.30309750  0.32262150  0.46760500  1
  O  O102  1  0.80309750  0.17737850  0.46760500  1
  O  O103  1  0.30309750  0.32262150  0.03239500  1
  O  O104  1  0.69690250  0.32262150  0.96760500  1
  O  O105  1  0.19690250  0.17737850  0.53239500  1
  O  O106  1  0.68612250  0.33587450  0.67855200  1
  O  O107  1  0.18612250  0.16412550  0.82144800  1
  O  O108  1  0.15332300  0.83242000  0.25000000  1
  O  O109  1  0.65332300  0.66758000  0.25000000  1
  O  O110  1  0.34667700  0.66758000  0.75000000  1
  O  O111  1  0.84667700  0.83242000  0.75000000  1
  O  O112  1  0.56252200  0.92803300  0.25000000  1
  O  O113  1  0.06252200  0.57196700  0.25000000  1
  O  O114  1  0.93747800  0.57196700  0.75000000  1
  O  O115  1  0.43747800  0.92803300  0.75000000  1
  O  O116  1  0.42777050  0.57210650  0.88664400  1
  O  O117  1  0.92777050  0.92789350  0.61335600  1
  O  O118  1  0.07222950  0.92789350  0.38664400  1
  O  O119  1  0.57222950  0.57210650  0.11335600  1
  O  O120  1  0.07222950  0.92789350  0.11335600  1
  O  O121  1  0.57222950  0.57210650  0.38664400  1
  O  O122  1  0.42777050  0.57210650  0.61335600  1
  O  O123  1  0.92777050  0.92789350  0.88664400  1
  O  O124  1  0.03108400  0.67645000  0.61580000  1
  O  O125  1  0.53108400  0.82355000  0.88420000  1
  O  O126  1  0.46891600  0.82355000  0.11580000  1
  O  O127  1  0.96891600  0.67645000  0.38420000  1
  O  O128  1  0.46891600  0.82355000  0.38420000  1
  O  O129  1  0.96891600  0.67645000  0.11580000  1
  O  O130  1  0.03108400  0.67645000  0.88420000  1
  O  O131  1  0.53108400  0.82355000  0.61580000  1
  O  O132  1  0.68612250  0.66412550  0.67855200  1
  O  O133  1  0.18612250  0.83587450  0.82144800  1
  O  O134  1  0.81387750  0.83587450  0.17855200  1
  O  O135  1  0.31387750  0.66412550  0.32144800  1
  O  O136  1  0.81387750  0.83587450  0.32144800  1
  O  O137  1  0.31387750  0.66412550  0.17855200  1
  O  O138  1  0.08549300  0.50000000  0.86338500  1
  O  O139  1  0.08549300  0.50000000  0.63661500  1
  O  O140  1  0.91450700  0.50000000  0.36338500  1
  O  O141  1  0.91450700  0.50000000  0.13661500  1
  O  O142  1  0.50000000  0.91256600  0.50000000  1
  O  O143  1  0.00000000  0.58743400  0.00000000  1
  O  O144  1  0.00000000  0.58743400  0.50000000  1
  O  O145  1  0.50000000  0.91256600  0.00000000  1
  O  O146  1  0.19690250  0.82262150  0.53239500  1
  O  O147  1  0.69690250  0.67737850  0.96760500  1
  O  O148  1  0.30309750  0.67737850  0.03239500  1
  O  O149  1  0.80309750  0.82262150  0.46760500  1
  O  O150  1  0.30309750  0.67737850  0.46760500  1
  O  O151  1  0.80309750  0.82262150  0.03239500  1
  O  O152  1  0.19690250  0.82262150  0.96760500  1
  O  O153  1  0.69690250  0.67737850  0.53239500  1
  O  O154  1  0.18612250  0.83587450  0.67855200  1
  O  O155  1  0.68612250  0.66412550  0.82144800  1
