# generated using pymatgen
data_Sn5Sb2S9
_symmetry_space_group_name_H-M   'P 1'
_cell_length_a   11.53337300
_cell_length_b   11.62481000
_cell_length_c   11.66331600
_cell_angle_alpha   90.00000000
_cell_angle_beta   90.00000000
_cell_angle_gamma   90.00000000
_symmetry_Int_Tables_number   1
_chemical_formula_structural   Sn5Sb2S9
_chemical_formula_sum   'Sn20 Sb8 S36'
_cell_volume   1563.73891265
_cell_formula_units_Z   4
loop_
 _symmetry_equiv_pos_site_id
 _symmetry_equiv_pos_as_xyz
  1  'x, y, z'
loop_
 _atom_site_type_symbol
 _atom_site_label
 _atom_site_symmetry_multiplicity
 _atom_site_fract_x
 _atom_site_fract_y
 _atom_site_fract_z
 _atom_site_occupancy
  Sn  Sn0  1  0.50000000  0.50000000  0.00000000  1
  Sn  Sn1  1  0.00000000  0.50000000  0.50000000  1
  Sn  Sn2  1  0.50000000  0.00000000  0.50000000  1
  Sn  Sn3  1  0.00000000  0.00000000  0.00000000  1
  Sn  Sn4  1  0.43695700  0.84688100  0.19548200  1
  Sn  Sn5  1  0.06304300  0.15311900  0.69548200  1
  Sn  Sn6  1  0.56304300  0.34688100  0.30451800  1
  Sn  Sn7  1  0.93695700  0.65311900  0.80451800  1
  Sn  Sn8  1  0.56304300  0.15311900  0.80451800  1
  Sn  Sn9  1  0.93695700  0.84688100  0.30451800  1
  Sn  Sn10  1  0.43695700  0.65311900  0.69548200  1
  Sn  Sn11  1  0.06304300  0.34688100  0.19548200  1
  Sn  Sn12  1  0.14800900  0.69240500  0.06253500  1
  Sn  Sn13  1  0.35199100  0.30759500  0.56253500  1
  Sn  Sn14  1  0.85199100  0.19240500  0.43746500  1
  Sn  Sn15  1  0.64800900  0.80759500  0.93746500  1
  Sn  Sn16  1  0.85199100  0.30759500  0.93746500  1
  Sn  Sn17  1  0.64800900  0.69240500  0.43746500  1
  Sn  Sn18  1  0.14800900  0.80759500  0.56253500  1
  Sn  Sn19  1  0.35199100  0.19240500  0.06253500  1
  Sb  Sb20  1  0.29690800  0.54947500  0.36012700  1
  Sb  Sb21  1  0.20309200  0.45052500  0.86012700  1
  Sb  Sb22  1  0.70309200  0.04947500  0.13987300  1
  Sb  Sb23  1  0.79690800  0.95052500  0.63987300  1
  Sb  Sb24  1  0.70309200  0.45052500  0.63987300  1
  Sb  Sb25  1  0.79690800  0.54947500  0.13987300  1
  Sb  Sb26  1  0.29690800  0.95052500  0.86012700  1
  Sb  Sb27  1  0.20309200  0.04947500  0.36012700  1
  S  S28  1  0.07116800  0.55554200  0.29315500  1
  S  S29  1  0.42883200  0.44445800  0.79315500  1
  S  S30  1  0.92883200  0.05554200  0.20684500  1
  S  S31  1  0.57116800  0.94445800  0.70684500  1
  S  S32  1  0.92883200  0.44445800  0.70684500  1
  S  S33  1  0.57116800  0.55554200  0.20684500  1
  S  S34  1  0.07116800  0.94445800  0.79315500  1
  S  S35  1  0.42883200  0.05554200  0.29315500  1
  S  S36  1  0.44647900  0.79387900  0.44565800  1
  S  S37  1  0.05352100  0.20612100  0.94565800  1
  S  S38  1  0.55352100  0.29387900  0.05434200  1
  S  S39  1  0.94647900  0.70612100  0.55434200  1
  S  S40  1  0.55352100  0.20612100  0.55434200  1
  S  S41  1  0.94647900  0.79387900  0.05434200  1
  S  S42  1  0.44647900  0.70612100  0.94565800  1
  S  S43  1  0.17459800  0.83679500  0.32758500  1
  S  S44  1  0.05352100  0.29387900  0.44565800  1
  S  S45  1  0.28723400  0.05382600  0.55558700  1
  S  S46  1  0.78723400  0.44617400  0.44441300  1
  S  S47  1  0.71276600  0.55382600  0.94441300  1
  S  S48  1  0.78723400  0.05382600  0.94441300  1
  S  S49  1  0.71276600  0.94617400  0.44441300  1
  S  S50  1  0.21276600  0.55382600  0.55558700  1
  S  S51  1  0.28723400  0.44617400  0.05558700  1
  S  S52  1  0.00000000  0.00000000  0.50000000  1
  S  S53  1  0.50000000  0.00000000  0.00000000  1
  S  S54  1  0.00000000  0.50000000  0.00000000  1
  S  S55  1  0.50000000  0.50000000  0.50000000  1
  S  S56  1  0.32540200  0.33679500  0.32758500  1
  S  S57  1  0.17459800  0.66320500  0.82758500  1
  S  S58  1  0.67459800  0.83679500  0.17241500  1
  S  S59  1  0.82540200  0.16320500  0.67241500  1
  S  S60  1  0.67459800  0.66320500  0.67241500  1
  S  S61  1  0.82540200  0.33679500  0.17241500  1
  S  S62  1  0.32540200  0.16320500  0.82758500  1
  S  S63  1  0.21276600  0.94617400  0.05558700  1
