# generated using pymatgen
data_Tl3PbBr5
_symmetry_space_group_name_H-M   'P 1'
_cell_length_a   8.71619300
_cell_length_b   9.24136700
_cell_length_c   15.68687600
_cell_angle_alpha   90.00000000
_cell_angle_beta   90.00000000
_cell_angle_gamma   90.00000000
_symmetry_Int_Tables_number   1
_chemical_formula_structural   Tl3PbBr5
_chemical_formula_sum   'Tl12 Pb4 Br20'
_cell_volume   1263.57062005
_cell_formula_units_Z   4
loop_
 _symmetry_equiv_pos_site_id
 _symmetry_equiv_pos_as_xyz
  1  'x, y, z'
loop_
 _atom_site_type_symbol
 _atom_site_label
 _atom_site_symmetry_multiplicity
 _atom_site_fract_x
 _atom_site_fract_y
 _atom_site_fract_z
 _atom_site_occupancy
  Tl  Tl0  1  0.77222300  0.70617600  0.44877900  1
  Tl  Tl1  1  0.27222300  0.79382400  0.55122100  1
  Tl  Tl2  1  0.22777700  0.20617600  0.05122100  1
  Tl  Tl3  1  0.72777700  0.29382400  0.94877900  1
  Tl  Tl4  1  0.91297200  0.16738800  0.52208700  1
  Tl  Tl5  1  0.41297200  0.33261200  0.47791300  1
  Tl  Tl6  1  0.08702800  0.66738800  0.97791300  1
  Tl  Tl7  1  0.58702800  0.83261200  0.02208700  1
  Tl  Tl8  1  0.93589400  0.08716000  0.21512700  1
  Tl  Tl9  1  0.43589400  0.41284000  0.78487300  1
  Tl  Tl10  1  0.06410600  0.58716000  0.28487300  1
  Tl  Tl11  1  0.56410600  0.91284000  0.71512700  1
  Pb  Pb12  1  0.57669000  0.45263800  0.20540600  1
  Pb  Pb13  1  0.07669000  0.04736200  0.79459400  1
  Pb  Pb14  1  0.42331000  0.95263800  0.29459400  1
  Pb  Pb15  1  0.92331000  0.54736200  0.70540600  1
  Br  Br16  1  0.73641000  0.65380300  0.84952000  1
  Br  Br17  1  0.23641000  0.84619700  0.15048000  1
  Br  Br18  1  0.26359000  0.15380300  0.65048000  1
  Br  Br19  1  0.76359000  0.34619700  0.34952000  1
  Br  Br20  1  0.27915000  0.28889800  0.27407000  1
  Br  Br21  1  0.77915000  0.21110200  0.72593000  1
  Br  Br22  1  0.72085000  0.78889800  0.22593000  1
  Br  Br23  1  0.22085000  0.71110200  0.77407000  1
  Br  Br24  1  0.91537100  0.85263600  0.63560700  1
  Br  Br25  1  0.41537100  0.64736400  0.36439300  1
  Br  Br26  1  0.08462900  0.35263600  0.86439300  1
  Br  Br27  1  0.58462900  0.14736400  0.13560700  1
  Br  Br28  1  0.60479000  0.55519900  0.61107500  1
  Br  Br29  1  0.10479000  0.94480100  0.38892500  1
  Br  Br30  1  0.39521000  0.05519900  0.88892500  1
  Br  Br31  1  0.89521000  0.44480100  0.11107500  1
  Br  Br32  1  0.07472700  0.49674700  0.52478000  1
  Br  Br33  1  0.57472700  0.00325300  0.47522000  1
  Br  Br34  1  0.92527300  0.99674700  0.97522000  1
  Br  Br35  1  0.42527300  0.50325300  0.02478000  1
