# generated using pymatgen
data_Ba2PCl
_symmetry_space_group_name_H-M   'P 1'
_cell_length_a   4.67357037
_cell_length_b   4.67357037
_cell_length_c   23.08028033
_cell_angle_alpha   90.00000000
_cell_angle_beta   90.00000000
_cell_angle_gamma   120.00000000
_symmetry_Int_Tables_number   1
_chemical_formula_structural   Ba2PCl
_chemical_formula_sum   'Ba6 P3 Cl3'
_cell_volume   436.58547493
_cell_formula_units_Z   3
loop_
 _symmetry_equiv_pos_site_id
 _symmetry_equiv_pos_as_xyz
  1  'x, y, z'
loop_
 _atom_site_type_symbol
 _atom_site_label
 _atom_site_symmetry_multiplicity
 _atom_site_fract_x
 _atom_site_fract_y
 _atom_site_fract_z
 _atom_site_occupancy
  Ba  Ba0  1  0.00000000  0.00000000  0.24036200  1
  Ba  Ba1  1  0.66666667  0.33333333  0.09297133  1
  Ba  Ba2  1  0.66666667  0.33333333  0.57369533  1
  Ba  Ba3  1  0.33333333  0.66666667  0.42630467  1
  Ba  Ba4  1  0.33333333  0.66666667  0.90702867  1
  Ba  Ba5  1  0.00000000  0.00000000  0.75963800  1
  P  P6  1  0.33333333  0.66666667  0.16666667  1
  P  P7  1  1.00000000  1.00000000  0.50000000  1
  P  P8  1  0.66666667  0.33333333  0.83333333  1
  Cl  Cl9  1  0.00000000  0.00000000  0.00000000  1
  Cl  Cl10  1  0.66666667  0.33333333  0.33333333  1
  Cl  Cl11  1  0.33333333  0.66666667  0.66666667  1
