# generated using pymatgen
data_CuSe3I
_symmetry_space_group_name_H-M   'P 1'
_cell_length_a   14.18859607
_cell_length_b   14.18859607
_cell_length_c   15.01951302
_cell_angle_alpha   90.00000000
_cell_angle_beta   90.00000000
_cell_angle_gamma   120.00000000
_symmetry_Int_Tables_number   1
_chemical_formula_structural   CuSe3I
_chemical_formula_sum   'Cu18 Se54 I18'
_cell_volume   2618.57690810
_cell_formula_units_Z   18
loop_
 _symmetry_equiv_pos_site_id
 _symmetry_equiv_pos_as_xyz
  1  'x, y, z'
loop_
 _atom_site_type_symbol
 _atom_site_label
 _atom_site_symmetry_multiplicity
 _atom_site_fract_x
 _atom_site_fract_y
 _atom_site_fract_z
 _atom_site_occupancy
  Cu  Cu0  1  0.16547100  0.33094200  0.72181500  1
  Cu  Cu1  1  0.16547100  0.83452900  0.72181500  1
  Cu  Cu2  1  0.66905800  0.83452900  0.72181500  1
  Cu  Cu3  1  0.33094200  0.16547100  0.27818500  1
  Cu  Cu4  1  0.83452900  0.66905800  0.27818500  1
  Cu  Cu5  1  0.83452900  0.16547100  0.27818500  1
  Cu  Cu6  1  0.83213767  0.66427533  0.05514833  1
  Cu  Cu7  1  0.83213767  0.16786233  0.05514833  1
  Cu  Cu8  1  0.33572467  0.16786233  0.05514833  1
  Cu  Cu9  1  0.99760867  0.49880433  0.61151833  1
  Cu  Cu10  1  0.50119567  0.00239133  0.61151833  1
  Cu  Cu11  1  0.50119567  0.49880433  0.61151833  1
  Cu  Cu12  1  0.49880433  0.99760867  0.38848167  1
  Cu  Cu13  1  0.49880433  0.50119567  0.38848167  1
  Cu  Cu14  1  0.00239133  0.50119567  0.38848167  1
  Cu  Cu15  1  0.66427533  0.83213767  0.94485167  1
  Cu  Cu16  1  0.16786233  0.33572467  0.94485167  1
  Cu  Cu17  1  0.16786233  0.83213767  0.94485167  1
  Se  Se18  1  0.91193433  0.82386867  0.69893467  1
  Se  Se19  1  0.91193433  0.08806567  0.69893467  1
  Se  Se20  1  0.17613133  0.08806567  0.69893467  1
  Se  Se21  1  0.82386867  0.91193433  0.30106533  1
  Se  Se22  1  0.08806567  0.17613133  0.30106533  1
  Se  Se23  1  0.08806567  0.91193433  0.30106533  1
  Se  Se24  1  0.24547000  0.49094000  0.62871100  1
  Se  Se25  1  0.24547000  0.75453000  0.62871100  1
  Se  Se26  1  0.50906000  0.75453000  0.62871100  1
  Se  Se27  1  0.49094000  0.24547000  0.37128900  1
  Se  Se28  1  0.75453000  0.50906000  0.37128900  1
  Se  Se29  1  0.75453000  0.24547000  0.37128900  1
  Se  Se30  1  0.08631500  0.17263000  0.62638400  1
  Se  Se31  1  0.08631500  0.91368500  0.62638400  1
  Se  Se32  1  0.82737000  0.91368500  0.62638400  1
  Se  Se33  1  0.17263000  0.08631500  0.37361600  1
  Se  Se34  1  0.91368500  0.82737000  0.37361600  1
  Se  Se35  1  0.91368500  0.08631500  0.37361600  1
  Se  Se36  1  0.57860100  0.15720200  0.03226800  1
  Se  Se37  1  0.57860100  0.42139900  0.03226800  1
  Se  Se38  1  0.84279800  0.42139900  0.03226800  1
  Se  Se39  1  0.49053533  0.24526767  0.63439867  1
  Se  Se40  1  0.75473233  0.50946467  0.63439867  1
  Se  Se41  1  0.75473233  0.24526767  0.63439867  1
  Se  Se42  1  0.91213667  0.82427333  0.96204433  1
  Se  Se43  1  0.91213667  0.08786333  0.96204433  1
  Se  Se44  1  0.17572667  0.08786333  0.96204433  1
  Se  Se45  1  0.15760667  0.57880333  0.70462233  1
  Se  Se46  1  0.42119667  0.84239333  0.70462233  1
  Se  Se47  1  0.42119667  0.57880333  0.70462233  1
  Se  Se48  1  0.75298167  0.50596333  0.95971733  1
  Se  Se49  1  0.75298167  0.24701833  0.95971733  1
  Se  Se50  1  0.49403667  0.24701833  0.95971733  1
  Se  Se51  1  0.83929667  0.41964833  0.70694933  1
  Se  Se52  1  0.58035167  0.16070333  0.70694933  1
  Se  Se53  1  0.58035167  0.41964833  0.70694933  1
  Se  Se54  1  0.24526767  0.49053533  0.36560133  1
  Se  Se55  1  0.24526767  0.75473233  0.36560133  1
  Se  Se56  1  0.50946467  0.75473233  0.36560133  1
  Se  Se57  1  0.15720200  0.57860100  0.96773200  1
  Se  Se58  1  0.42139900  0.84279800  0.96773200  1
  Se  Se59  1  0.42139900  0.57860100  0.96773200  1
  Se  Se60  1  0.57880333  0.15760667  0.29537767  1
  Se  Se61  1  0.57880333  0.42119667  0.29537767  1
  Se  Se62  1  0.84239333  0.42119667  0.29537767  1
  Se  Se63  1  0.82427333  0.91213667  0.03795567  1
  Se  Se64  1  0.08786333  0.17572667  0.03795567  1
  Se  Se65  1  0.08786333  0.91213667  0.03795567  1
  Se  Se66  1  0.41964833  0.83929667  0.29305067  1
  Se  Se67  1  0.41964833  0.58035167  0.29305067  1
  Se  Se68  1  0.16070333  0.58035167  0.29305067  1
  Se  Se69  1  0.50596333  0.75298167  0.04028267  1
  Se  Se70  1  0.24701833  0.49403667  0.04028267  1
  Se  Se71  1  0.24701833  0.75298167  0.04028267  1
  I  I72  1  0.35252900  0.35252900  0.50000000  1
  I  I73  1  0.00000000  0.64747100  0.50000000  1
  I  I74  1  0.64747100  0.00000000  0.50000000  1
  I  I75  1  0.64747100  0.64747100  0.50000000  1
  I  I76  1  0.00000000  0.35252900  0.50000000  1
  I  I77  1  0.35252900  0.00000000  0.50000000  1
  I  I78  1  0.01919567  0.68586233  0.83333333  1
  I  I79  1  0.66666667  0.98080433  0.83333333  1
  I  I80  1  0.31413767  0.33333333  0.83333333  1
  I  I81  1  0.31413767  0.98080433  0.83333333  1
  I  I82  1  0.66666667  0.68586233  0.83333333  1
  I  I83  1  0.01919567  0.33333333  0.83333333  1
  I  I84  1  0.68586233  0.01919567  0.16666667  1
  I  I85  1  0.33333333  0.31413767  0.16666667  1
  I  I86  1  0.98080433  0.66666667  0.16666667  1
  I  I87  1  0.98080433  0.31413767  0.16666667  1
  I  I88  1  0.33333333  0.01919567  0.16666667  1
  I  I89  1  0.68586233  0.66666667  0.16666667  1
