# generated using pymatgen
data_Nb(PO3)4
_symmetry_space_group_name_H-M   'P 1'
_cell_length_a   8.44621600
_cell_length_b   9.75165700
_cell_length_c   13.02629500
_cell_angle_alpha   90.00000000
_cell_angle_beta   90.00000000
_cell_angle_gamma   90.00000000
_symmetry_Int_Tables_number   1
_chemical_formula_structural   Nb(PO3)4
_chemical_formula_sum   'Nb4 P16 O48'
_cell_volume   1072.90559513
_cell_formula_units_Z   4
loop_
 _symmetry_equiv_pos_site_id
 _symmetry_equiv_pos_as_xyz
  1  'x, y, z'
loop_
 _atom_site_type_symbol
 _atom_site_label
 _atom_site_symmetry_multiplicity
 _atom_site_fract_x
 _atom_site_fract_y
 _atom_site_fract_z
 _atom_site_occupancy
  Nb  Nb0  1  0.35569400  0.75000000  0.00000000  1
  Nb  Nb1  1  0.14430600  0.25000000  0.50000000  1
  Nb  Nb2  1  0.64430600  0.25000000  0.00000000  1
  Nb  Nb3  1  0.85569400  0.75000000  0.50000000  1
  P  P4  1  0.46991100  0.48880900  0.84706800  1
  P  P5  1  0.03008900  0.51119100  0.34706800  1
  P  P6  1  0.96991100  0.48880900  0.65293200  1
  P  P7  1  0.32234200  0.49942200  0.64080500  1
  P  P8  1  0.67765800  0.99942200  0.64080500  1
  P  P9  1  0.82234200  0.49942200  0.85919500  1
  P  P10  1  0.17765800  0.50057800  0.14080500  1
  P  P11  1  0.03008900  0.98880900  0.65293200  1
  P  P12  1  0.53008900  0.98880900  0.84706800  1
  P  P13  1  0.17765800  0.99942200  0.85919500  1
  P  P14  1  0.82234200  0.00057800  0.14080500  1
  P  P15  1  0.46991100  0.01119100  0.15293200  1
  P  P16  1  0.67765800  0.50057800  0.35919500  1
  P  P17  1  0.53008900  0.51119100  0.15293200  1
  P  P18  1  0.32234200  0.00057800  0.35919500  1
  P  P19  1  0.96991100  0.01119100  0.34706800  1
  O  O20  1  0.14298200  0.96353600  0.31787900  1
  O  O21  1  0.47139800  0.37423900  0.92520500  1
  O  O22  1  0.60652700  0.56991900  0.25412800  1
  O  O23  1  0.40785900  0.62293500  0.60976600  1
  O  O24  1  0.30500900  0.37530800  0.56969200  1
  O  O25  1  0.19499100  0.87530800  0.93030800  1
  O  O26  1  0.80500900  0.12469200  0.06969200  1
  O  O27  1  0.02860200  0.87423900  0.57479500  1
  O  O28  1  0.35701800  0.46353600  0.18212100  1
  O  O29  1  0.40785900  0.87706500  0.39023400  1
  O  O30  1  0.89347300  0.43008100  0.75412800  1
  O  O31  1  0.59214100  0.37706500  0.39023400  1
  O  O32  1  0.85701800  0.46353600  0.31787900  1
  O  O33  1  0.37799900  0.61644800  0.88068300  1
  O  O34  1  0.09214100  0.12293500  0.89023400  1
  O  O35  1  0.64298200  0.53646400  0.81787900  1
  O  O36  1  0.69499100  0.62469200  0.43030800  1
  O  O37  1  0.39347300  0.06991900  0.25412800  1
  O  O38  1  0.14298200  0.53646400  0.68212100  1
  O  O39  1  0.47139800  0.12576100  0.07479500  1
  O  O40  1  0.87799900  0.61644800  0.61931700  1
  O  O41  1  0.69499100  0.87530800  0.56969200  1
  O  O42  1  0.64298200  0.96353600  0.18212100  1
  O  O43  1  0.85701800  0.03646400  0.68212100  1
  O  O44  1  0.97139800  0.12576100  0.42520500  1
  O  O45  1  0.02860200  0.62576100  0.42520500  1
  O  O46  1  0.52860200  0.87423900  0.92520500  1
  O  O47  1  0.19499100  0.62469200  0.06969200  1
  O  O48  1  0.89347300  0.06991900  0.24587200  1
  O  O49  1  0.90785900  0.87706500  0.10976600  1
  O  O50  1  0.37799900  0.88355200  0.11931700  1
  O  O51  1  0.12200100  0.38355200  0.38068300  1
  O  O52  1  0.90785900  0.62293500  0.89023400  1
  O  O53  1  0.10652700  0.93008100  0.75412800  1
  O  O54  1  0.39347300  0.43008100  0.74587200  1
  O  O55  1  0.35701800  0.03646400  0.81787900  1
  O  O56  1  0.62200100  0.38355200  0.11931700  1
  O  O57  1  0.80500900  0.37530800  0.93030800  1
  O  O58  1  0.12200100  0.11644800  0.61931700  1
  O  O59  1  0.59214100  0.12293500  0.60976600  1
  O  O60  1  0.10652700  0.56991900  0.24587200  1
  O  O61  1  0.30500900  0.12469200  0.43030800  1
  O  O62  1  0.60652700  0.93008100  0.74587200  1
  O  O63  1  0.62200100  0.11644800  0.88068300  1
  O  O64  1  0.52860200  0.62576100  0.07479500  1
  O  O65  1  0.97139800  0.37423900  0.57479500  1
  O  O66  1  0.09214100  0.37706500  0.10976600  1
  O  O67  1  0.87799900  0.88355200  0.38068300  1
