# generated using pymatgen
data_MgH2SeO5
_symmetry_space_group_name_H-M   'P 1'
_cell_length_a   7.03905800
_cell_length_b   8.24134600
_cell_length_c   7.78275917
_cell_angle_alpha   90.00000000
_cell_angle_beta   116.16435755
_cell_angle_gamma   90.00000000
_symmetry_Int_Tables_number   1
_chemical_formula_structural   MgH2SeO5
_chemical_formula_sum   'Mg4 H8 Se4 O20'
_cell_volume   405.22537695
_cell_formula_units_Z   4
loop_
 _symmetry_equiv_pos_site_id
 _symmetry_equiv_pos_as_xyz
  1  'x, y, z'
loop_
 _atom_site_type_symbol
 _atom_site_label
 _atom_site_symmetry_multiplicity
 _atom_site_fract_x
 _atom_site_fract_y
 _atom_site_fract_z
 _atom_site_occupancy
  Mg  Mg0  1  0.75000000  0.25000000  0.00000000  1
  Mg  Mg1  1  0.75000000  0.75000000  0.50000000  1
  Mg  Mg2  1  0.25000000  0.75000000  0.00000000  1
  Mg  Mg3  1  0.25000000  0.25000000  0.50000000  1
  H  H4  1  0.91739600  0.94962300  0.79587800  1
  H  H5  1  0.08260400  0.94962300  0.70412200  1
  H  H6  1  0.08260400  0.05037700  0.20412200  1
  H  H7  1  0.91739600  0.05037700  0.29587800  1
  H  H8  1  0.41739600  0.44962300  0.79587800  1
  H  H9  1  0.58260400  0.44962300  0.70412200  1
  H  H10  1  0.58260400  0.55037700  0.20412200  1
  H  H11  1  0.41739600  0.55037700  0.29587800  1
  Se  Se12  1  0.50000000  0.08457500  0.25000000  1
  Se  Se13  1  0.50000000  0.91542500  0.75000000  1
  Se  Se14  1  0.00000000  0.58457500  0.25000000  1
  Se  Se15  1  0.00000000  0.41542500  0.75000000  1
  O  O16  1  0.48079500  0.19911100  0.41674700  1
  O  O17  1  0.51920500  0.19911100  0.08325300  1
  O  O18  1  0.51920500  0.80088900  0.58325300  1
  O  O19  1  0.48079500  0.80088900  0.91674700  1
  O  O20  1  0.28274550  0.96720050  0.15087900  1
  O  O21  1  0.71725450  0.96720050  0.34912100  1
  O  O22  1  0.71725450  0.03279950  0.84912100  1
  O  O23  1  0.28274550  0.03279950  0.65087900  1
  O  O24  1  0.50000000  0.62276700  0.25000000  1
  O  O25  1  0.50000000  0.37723300  0.75000000  1
  O  O26  1  0.98079500  0.69911100  0.41674700  1
  O  O27  1  0.01920500  0.69911100  0.08325300  1
  O  O28  1  0.01920500  0.30088900  0.58325300  1
  O  O29  1  0.98079500  0.30088900  0.91674700  1
  O  O30  1  0.78274550  0.46720050  0.15087900  1
  O  O31  1  0.21725450  0.46720050  0.34912100  1
  O  O32  1  0.21725450  0.53279950  0.84912100  1
  O  O33  1  0.78274550  0.53279950  0.65087900  1
  O  O34  1  0.00000000  0.12276700  0.25000000  1
  O  O35  1  0.00000000  0.87723300  0.75000000  1
