# generated using pymatgen
data_PbO
_symmetry_space_group_name_H-M   'P 1'
_cell_length_a   4.81682100
_cell_length_b   5.72836000
_cell_length_c   6.14762200
_cell_angle_alpha   90.00000000
_cell_angle_beta   90.00000000
_cell_angle_gamma   90.00000000
_symmetry_Int_Tables_number   1
_chemical_formula_structural   PbO
_chemical_formula_sum   'Pb4 O4'
_cell_volume   169.62816624
_cell_formula_units_Z   4
loop_
 _symmetry_equiv_pos_site_id
 _symmetry_equiv_pos_as_xyz
  1  'x, y, z'
loop_
 _atom_site_type_symbol
 _atom_site_label
 _atom_site_symmetry_multiplicity
 _atom_site_fract_x
 _atom_site_fract_y
 _atom_site_fract_z
 _atom_site_occupancy
  Pb  Pb0  1  0.75000000  0.01797200  0.77880500  1
  Pb  Pb1  1  0.25000000  0.98202800  0.22119500  1
  Pb  Pb2  1  0.75000000  0.51797200  0.22119500  1
  Pb  Pb3  1  0.25000000  0.48202800  0.77880500  1
  O  O4  1  0.75000000  0.90607800  0.13208400  1
  O  O5  1  0.25000000  0.09392200  0.86791600  1
  O  O6  1  0.75000000  0.40607800  0.86791600  1
  O  O7  1  0.25000000  0.59392200  0.13208400  1
