# generated using pymatgen
data_NaHg2IO2
_symmetry_space_group_name_H-M   'P 1'
_cell_length_a   6.78389040
_cell_length_b   6.78389040
_cell_length_c   10.39857100
_cell_angle_alpha   90.00000000
_cell_angle_beta   90.00000000
_cell_angle_gamma   120.00000000
_symmetry_Int_Tables_number   1
_chemical_formula_structural   NaHg2IO2
_chemical_formula_sum   'Na3 Hg6 I3 O6'
_cell_volume   414.44026135
_cell_formula_units_Z   3
loop_
 _symmetry_equiv_pos_site_id
 _symmetry_equiv_pos_as_xyz
  1  'x, y, z'
loop_
 _atom_site_type_symbol
 _atom_site_label
 _atom_site_symmetry_multiplicity
 _atom_site_fract_x
 _atom_site_fract_y
 _atom_site_fract_z
 _atom_site_occupancy
  Na  Na0  1  0.00000000  0.00000000  0.83333333  1
  Na  Na1  1  0.00000000  0.00000000  0.50000000  1
  Na  Na2  1  0.00000000  0.00000000  0.16666667  1
  Hg  Hg3  1  0.50000000  0.00000000  0.67066867  1
  Hg  Hg4  1  0.50000000  0.50000000  0.00400200  1
  Hg  Hg5  1  0.00000000  0.50000000  0.33733533  1
  Hg  Hg6  1  0.50000000  0.50000000  0.66266467  1
  Hg  Hg7  1  0.50000000  0.00000000  0.32933133  1
  Hg  Hg8  1  0.00000000  0.50000000  0.99599800  1
  I  I9  1  0.00000000  0.50000000  0.66666667  1
  I  I10  1  0.50000000  0.00000000  0.00000000  1
  I  I11  1  0.50000000  0.50000000  0.33333333  1
  O  O12  1  0.70433000  0.85216500  0.66666667  1
  O  O13  1  0.85216500  0.70433000  0.00000000  1
  O  O14  1  0.85216500  0.14783500  0.33333333  1
  O  O15  1  0.14783500  0.85216500  0.33333333  1
  O  O16  1  0.29567000  0.14783500  0.66666667  1
  O  O17  1  0.14783500  0.29567000  0.00000000  1
