# generated using pymatgen
data_Rb6Si10O23
_symmetry_space_group_name_H-M   'P 1'
_cell_length_a   9.47486600
_cell_length_b   16.56996400
_cell_length_c   8.19073700
_cell_angle_alpha   90.00000000
_cell_angle_beta   90.00000000
_cell_angle_gamma   90.00000000
_symmetry_Int_Tables_number   1
_chemical_formula_structural   Rb6Si10O23
_chemical_formula_sum   'Rb12 Si20 O46'
_cell_volume   1285.93087168
_cell_formula_units_Z   2
loop_
 _symmetry_equiv_pos_site_id
 _symmetry_equiv_pos_as_xyz
  1  'x, y, z'
loop_
 _atom_site_type_symbol
 _atom_site_label
 _atom_site_symmetry_multiplicity
 _atom_site_fract_x
 _atom_site_fract_y
 _atom_site_fract_z
 _atom_site_occupancy
  Rb  Rb0  1  0.39099450  0.38073050  0.50000000  1
  Rb  Rb1  1  0.89099450  0.11926950  0.50000000  1
  Rb  Rb2  1  0.37939850  0.37901250  0.00000000  1
  Rb  Rb3  1  0.87939850  0.12098750  0.00000000  1
  Rb  Rb4  1  0.25032100  0.00000000  0.50000000  1
  Rb  Rb5  1  0.24409700  0.00000000  0.00000000  1
  Rb  Rb6  1  0.89099450  0.88073050  0.50000000  1
  Rb  Rb7  1  0.39099450  0.61926950  0.50000000  1
  Rb  Rb8  1  0.87939850  0.87901250  0.00000000  1
  Rb  Rb9  1  0.37939850  0.62098750  0.00000000  1
  Rb  Rb10  1  0.75032100  0.50000000  0.50000000  1
  Rb  Rb11  1  0.74409700  0.50000000  0.00000000  1
  Si  Si12  1  0.51717350  0.17193350  0.68860000  1
  Si  Si13  1  0.01717350  0.32806650  0.31140000  1
  Si  Si14  1  0.51717350  0.17193350  0.31140000  1
  Si  Si15  1  0.01717350  0.32806650  0.68860000  1
  Si  Si16  1  0.21488750  0.19548150  0.80919200  1
  Si  Si17  1  0.71488750  0.30451850  0.19080800  1
  Si  Si18  1  0.21488750  0.19548150  0.19080800  1
  Si  Si19  1  0.71488750  0.30451850  0.80919200  1
  Si  Si20  1  0.60158800  0.00000000  0.19853000  1
  Si  Si21  1  0.60158800  0.00000000  0.80147000  1
  Si  Si22  1  0.01717350  0.67193350  0.68860000  1
  Si  Si23  1  0.51717350  0.82806650  0.31140000  1
  Si  Si24  1  0.01717350  0.67193350  0.31140000  1
  Si  Si25  1  0.51717350  0.82806650  0.68860000  1
  Si  Si26  1  0.71488750  0.69548150  0.80919200  1
  Si  Si27  1  0.21488750  0.80451850  0.19080800  1
  Si  Si28  1  0.71488750  0.69548150  0.19080800  1
  Si  Si29  1  0.21488750  0.80451850  0.80919200  1
  Si  Si30  1  0.10158800  0.50000000  0.19853000  1
  Si  Si31  1  0.10158800  0.50000000  0.80147000  1
  O  O32  1  0.13478100  0.28540900  0.80482700  1
  O  O33  1  0.63478100  0.21459100  0.19517300  1
  O  O34  1  0.13478100  0.28540900  0.19517300  1
  O  O35  1  0.63478100  0.21459100  0.80482700  1
  O  O36  1  0.36244100  0.21415100  0.70365500  1
  O  O37  1  0.86244100  0.28584900  0.29634500  1
  O  O38  1  0.36244100  0.21415100  0.29634500  1
  O  O39  1  0.86244100  0.28584900  0.70365500  1
  O  O40  1  0.12291050  0.12124950  0.75008200  1
  O  O41  1  0.62291050  0.37875050  0.24991800  1
  O  O42  1  0.12291050  0.12124950  0.24991800  1
  O  O43  1  0.62291050  0.37875050  0.75008200  1
  O  O44  1  0.50344550  0.07656350  0.73258100  1
  O  O45  1  0.00344550  0.42343650  0.26741900  1
  O  O46  1  0.50344550  0.07656350  0.26741900  1
  O  O47  1  0.00344550  0.42343650  0.73258100  1
  O  O48  1  0.57237900  0.00000000  0.00000000  1
  O  O49  1  0.77231750  0.31195250  0.00000000  1
  O  O50  1  0.27231750  0.18804750  0.00000000  1
  O  O51  1  0.07238050  0.31718850  0.50000000  1
  O  O52  1  0.57238050  0.18281150  0.50000000  1
  O  O53  1  0.76304400  0.00000000  0.75173600  1
  O  O54  1  0.76304400  0.00000000  0.24826400  1
  O  O55  1  0.63478100  0.78540900  0.80482700  1
  O  O56  1  0.13478100  0.71459100  0.19517300  1
  O  O57  1  0.63478100  0.78540900  0.19517300  1
  O  O58  1  0.13478100  0.71459100  0.80482700  1
  O  O59  1  0.86244100  0.71415100  0.70365500  1
  O  O60  1  0.36244100  0.78584900  0.29634500  1
  O  O61  1  0.86244100  0.71415100  0.29634500  1
  O  O62  1  0.36244100  0.78584900  0.70365500  1
  O  O63  1  0.62291050  0.62124950  0.75008200  1
  O  O64  1  0.12291050  0.87875050  0.24991800  1
  O  O65  1  0.62291050  0.62124950  0.24991800  1
  O  O66  1  0.12291050  0.87875050  0.75008200  1
  O  O67  1  0.00344550  0.57656350  0.73258100  1
  O  O68  1  0.50344550  0.92343650  0.26741900  1
  O  O69  1  0.00344550  0.57656350  0.26741900  1
  O  O70  1  0.50344550  0.92343650  0.73258100  1
  O  O71  1  0.07237900  0.50000000  0.00000000  1
  O  O72  1  0.27231750  0.81195250  0.00000000  1
  O  O73  1  0.77231750  0.68804750  0.00000000  1
  O  O74  1  0.57238050  0.81718850  0.50000000  1
  O  O75  1  0.07238050  0.68281150  0.50000000  1
  O  O76  1  0.26304400  0.50000000  0.75173600  1
  O  O77  1  0.26304400  0.50000000  0.24826400  1
