# generated using pymatgen
data_Ca3C3Cl2
_symmetry_space_group_name_H-M   'P 1'
_cell_length_a   3.86051600
_cell_length_b   13.51187600
_cell_length_c   11.56697800
_cell_angle_alpha   90.00000000
_cell_angle_beta   90.00000000
_cell_angle_gamma   90.00000000
_symmetry_Int_Tables_number   1
_chemical_formula_structural   Ca3C3Cl2
_chemical_formula_sum   'Ca12 C12 Cl8'
_cell_volume   603.36611603
_cell_formula_units_Z   4
loop_
 _symmetry_equiv_pos_site_id
 _symmetry_equiv_pos_as_xyz
  1  'x, y, z'
loop_
 _atom_site_type_symbol
 _atom_site_label
 _atom_site_symmetry_multiplicity
 _atom_site_fract_x
 _atom_site_fract_y
 _atom_site_fract_z
 _atom_site_occupancy
  Ca  Ca0  1  0.00000000  0.34321800  0.06091000  1
  Ca  Ca1  1  0.50000000  0.15678200  0.93909000  1
  Ca  Ca2  1  0.50000000  0.15678200  0.56091000  1
  Ca  Ca3  1  0.00000000  0.34321800  0.43909000  1
  Ca  Ca4  1  0.50000000  0.37872100  0.75000000  1
  Ca  Ca5  1  0.00000000  0.12127900  0.25000000  1
  Ca  Ca6  1  0.50000000  0.84321800  0.06091000  1
  Ca  Ca7  1  0.00000000  0.65678200  0.93909000  1
  Ca  Ca8  1  0.00000000  0.65678200  0.56091000  1
  Ca  Ca9  1  0.50000000  0.84321800  0.43909000  1
  Ca  Ca10  1  0.00000000  0.87872100  0.75000000  1
  Ca  Ca11  1  0.50000000  0.62127900  0.25000000  1
  C  C12  1  0.50000000  0.23271200  0.13514800  1
  C  C13  1  0.00000000  0.26728800  0.86485200  1
  C  C14  1  0.00000000  0.26728800  0.63514800  1
  C  C15  1  0.50000000  0.23271200  0.36485200  1
  C  C16  1  0.00000000  0.25782700  0.75000000  1
  C  C17  1  0.50000000  0.24217300  0.25000000  1
  C  C18  1  0.00000000  0.73271200  0.13514800  1
  C  C19  1  0.50000000  0.76728800  0.86485200  1
  C  C20  1  0.50000000  0.76728800  0.63514800  1
  C  C21  1  0.00000000  0.73271200  0.36485200  1
  C  C22  1  0.50000000  0.75782700  0.75000000  1
  C  C23  1  0.00000000  0.74217300  0.25000000  1
  Cl  Cl24  1  0.00000000  0.47100700  0.25000000  1
  Cl  Cl25  1  0.50000000  0.02899300  0.75000000  1
  Cl  Cl26  1  0.00000000  0.00000000  0.50000000  1
  Cl  Cl27  1  0.00000000  0.00000000  0.00000000  1
  Cl  Cl28  1  0.50000000  0.97100700  0.25000000  1
  Cl  Cl29  1  0.00000000  0.52899300  0.75000000  1
  Cl  Cl30  1  0.50000000  0.50000000  0.50000000  1
  Cl  Cl31  1  0.50000000  0.50000000  0.00000000  1
