# generated using pymatgen
data_Te5(O2F11)2
_symmetry_space_group_name_H-M   'P 1'
_cell_length_a   10.04503200
_cell_length_b   10.04503200
_cell_length_c   20.75405800
_cell_angle_alpha   90.00000000
_cell_angle_beta   90.00000000
_cell_angle_gamma   90.00000000
_symmetry_Int_Tables_number   1
_chemical_formula_structural   Te5(O2F11)2
_chemical_formula_sum   'Te20 O16 F88'
_cell_volume   2094.13982156
_cell_formula_units_Z   4
loop_
 _symmetry_equiv_pos_site_id
 _symmetry_equiv_pos_as_xyz
  1  'x, y, z'
loop_
 _atom_site_type_symbol
 _atom_site_label
 _atom_site_symmetry_multiplicity
 _atom_site_fract_x
 _atom_site_fract_y
 _atom_site_fract_z
 _atom_site_occupancy
  Te  Te0  1  0.70605200  0.21234300  0.47137400  1
  Te  Te1  1  0.71234300  0.29394800  0.22137400  1
  Te  Te2  1  0.28765700  0.70605200  0.22137400  1
  Te  Te3  1  0.29394800  0.78765700  0.47137400  1
  Te  Te4  1  0.79394800  0.78765700  0.27862600  1
  Te  Te5  1  0.28765700  0.20605200  0.02862600  1
  Te  Te6  1  0.71234300  0.79394800  0.02862600  1
  Te  Te7  1  0.20605200  0.21234300  0.27862600  1
  Te  Te8  1  0.00000000  0.00000000  0.00000000  1
  Te  Te9  1  0.00000000  0.50000000  0.25000000  1
  Te  Te10  1  0.20605200  0.71234300  0.97137400  1
  Te  Te11  1  0.21234300  0.79394800  0.72137400  1
  Te  Te12  1  0.78765700  0.20605200  0.72137400  1
  Te  Te13  1  0.79394800  0.28765700  0.97137400  1
  Te  Te14  1  0.29394800  0.28765700  0.77862600  1
  Te  Te15  1  0.78765700  0.70605200  0.52862600  1
  Te  Te16  1  0.21234300  0.29394800  0.52862600  1
  Te  Te17  1  0.70605200  0.71234300  0.77862600  1
  Te  Te18  1  0.50000000  0.50000000  0.50000000  1
  Te  Te19  1  0.50000000  0.00000000  0.75000000  1
  O  O20  1  0.05634900  0.81571100  0.00149300  1
  O  O21  1  0.81571100  0.44365100  0.25149300  1
  O  O22  1  0.18428900  0.55634900  0.25149300  1
  O  O23  1  0.94365100  0.18428900  0.00149300  1
  O  O24  1  0.94365100  0.68428900  0.24850700  1
  O  O25  1  0.68428900  0.55634900  0.49850700  1
  O  O26  1  0.31571100  0.44365100  0.49850700  1
  O  O27  1  0.05634900  0.31571100  0.24850700  1
  O  O28  1  0.55634900  0.31571100  0.50149300  1
  O  O29  1  0.31571100  0.94365100  0.75149300  1
  O  O30  1  0.68428900  0.05634900  0.75149300  1
  O  O31  1  0.44365100  0.68428900  0.50149300  1
  O  O32  1  0.44365100  0.18428900  0.74850700  1
  O  O33  1  0.18428900  0.05634900  0.99850700  1
  O  O34  1  0.81571100  0.94365100  0.99850700  1
  O  O35  1  0.55634900  0.81571100  0.74850700  1
  F  F36  1  0.84527150  0.10237550  0.44500750  1
  F  F37  1  0.60237550  0.15472850  0.19500750  1
  F  F38  1  0.00000000  0.50000000  0.34062100  1
  F  F39  1  0.00000000  0.00000000  0.09062100  1
  F  F40  1  0.50000000  0.50000000  0.40937900  1
  F  F41  1  0.00000000  0.50000000  0.15937900  1
  F  F42  1  0.15170400  0.08222400  0.22002900  1
  F  F43  1  0.08222400  0.34829600  0.47002900  1
  F  F44  1  0.91777600  0.65170400  0.47002900  1
  F  F45  1  0.84829600  0.91777600  0.22002900  1
  F  F46  1  0.84829600  0.41777600  0.02997100  1
  F  F47  1  0.41777600  0.65170400  0.27997100  1
  F  F48  1  0.58222400  0.34829600  0.27997100  1
  F  F49  1  0.15170400  0.58222400  0.02997100  1
  F  F50  1  0.09723650  0.13656350  0.34170250  1
  F  F51  1  0.63656350  0.90276350  0.09170250  1
  F  F52  1  0.36343650  0.09723650  0.09170250  1
  F  F53  1  0.90276350  0.86343650  0.34170250  1
  F  F54  1  0.40276350  0.86343650  0.40829750  1
  F  F55  1  0.36343650  0.59723650  0.15829750  1
  F  F56  1  0.63656350  0.40276350  0.15829750  1
  F  F57  1  0.59723650  0.13656350  0.40829750  1
  F  F58  1  0.31791300  0.28595100  0.21595200  1
  F  F59  1  0.28595100  0.18208700  0.46595200  1
  F  F60  1  0.71404900  0.81791300  0.46595200  1
  F  F61  1  0.68208700  0.71404900  0.21595200  1
  F  F62  1  0.68208700  0.21404900  0.03404800  1
  F  F63  1  0.21404900  0.81791300  0.28404800  1
  F  F64  1  0.78595100  0.18208700  0.28404800  1
  F  F65  1  0.31791300  0.78595100  0.03404800  1
  F  F66  1  0.26237000  0.34126300  0.33773300  1
  F  F67  1  0.84126300  0.73763000  0.08773300  1
  F  F68  1  0.15873700  0.26237000  0.08773300  1
  F  F69  1  0.73763000  0.65873700  0.33773300  1
  F  F70  1  0.23763000  0.65873700  0.41226700  1
  F  F71  1  0.15873700  0.76237000  0.16226700  1
  F  F72  1  0.84126300  0.23763000  0.16226700  1
  F  F73  1  0.76237000  0.34126300  0.41226700  1
  F  F74  1  0.34527150  0.10237550  0.30499250  1
  F  F75  1  0.60237550  0.65472850  0.05499250  1
  F  F76  1  0.39762450  0.34527150  0.05499250  1
  F  F77  1  0.65472850  0.89762450  0.30499250  1
  F  F78  1  0.15472850  0.89762450  0.44500750  1
  F  F79  1  0.39762450  0.84527150  0.19500750  1
  F  F80  1  0.34527150  0.60237550  0.94500750  1
  F  F81  1  0.10237550  0.65472850  0.69500750  1
  F  F82  1  0.50000000  0.00000000  0.84062100  1
  F  F83  1  0.50000000  0.50000000  0.59062100  1
  F  F84  1  0.00000000  0.00000000  0.90937900  1
  F  F85  1  0.50000000  0.00000000  0.65937900  1
  F  F86  1  0.65170400  0.58222400  0.72002900  1
  F  F87  1  0.58222400  0.84829600  0.97002900  1
  F  F88  1  0.41777600  0.15170400  0.97002900  1
  F  F89  1  0.34829600  0.41777600  0.72002900  1
  F  F90  1  0.34829600  0.91777600  0.52997100  1
  F  F91  1  0.91777600  0.15170400  0.77997100  1
  F  F92  1  0.08222400  0.84829600  0.77997100  1
  F  F93  1  0.65170400  0.08222400  0.52997100  1
  F  F94  1  0.59723650  0.63656350  0.84170250  1
  F  F95  1  0.13656350  0.40276350  0.59170250  1
  F  F96  1  0.86343650  0.59723650  0.59170250  1
  F  F97  1  0.40276350  0.36343650  0.84170250  1
  F  F98  1  0.90276350  0.36343650  0.90829750  1
  F  F99  1  0.86343650  0.09723650  0.65829750  1
  F  F100  1  0.13656350  0.90276350  0.65829750  1
  F  F101  1  0.09723650  0.63656350  0.90829750  1
  F  F102  1  0.81791300  0.78595100  0.71595200  1
  F  F103  1  0.78595100  0.68208700  0.96595200  1
  F  F104  1  0.21404900  0.31791300  0.96595200  1
  F  F105  1  0.18208700  0.21404900  0.71595200  1
  F  F106  1  0.18208700  0.71404900  0.53404800  1
  F  F107  1  0.71404900  0.31791300  0.78404800  1
  F  F108  1  0.28595100  0.68208700  0.78404800  1
  F  F109  1  0.81791300  0.28595100  0.53404800  1
  F  F110  1  0.76237000  0.84126300  0.83773300  1
  F  F111  1  0.34126300  0.23763000  0.58773300  1
  F  F112  1  0.65873700  0.76237000  0.58773300  1
  F  F113  1  0.23763000  0.15873700  0.83773300  1
  F  F114  1  0.73763000  0.15873700  0.91226700  1
  F  F115  1  0.65873700  0.26237000  0.66226700  1
  F  F116  1  0.34126300  0.73763000  0.66226700  1
  F  F117  1  0.26237000  0.84126300  0.91226700  1
  F  F118  1  0.84527150  0.60237550  0.80499250  1
  F  F119  1  0.10237550  0.15472850  0.55499250  1
  F  F120  1  0.89762450  0.84527150  0.55499250  1
  F  F121  1  0.15472850  0.39762450  0.80499250  1
  F  F122  1  0.65472850  0.39762450  0.94500750  1
  F  F123  1  0.89762450  0.34527150  0.69500750  1
