# generated using pymatgen
data_K9Fe2Se7
_symmetry_space_group_name_H-M   'P 1'
_cell_length_a   13.25471000
_cell_length_b   13.25471000
_cell_length_c   13.25471000
_cell_angle_alpha   90.00000000
_cell_angle_beta   90.00000000
_cell_angle_gamma   90.00000000
_symmetry_Int_Tables_number   1
_chemical_formula_structural   K9Fe2Se7
_chemical_formula_sum   'K36 Fe8 Se28'
_cell_volume   2328.68470505
_cell_formula_units_Z   4
loop_
 _symmetry_equiv_pos_site_id
 _symmetry_equiv_pos_as_xyz
  1  'x, y, z'
loop_
 _atom_site_type_symbol
 _atom_site_label
 _atom_site_symmetry_multiplicity
 _atom_site_fract_x
 _atom_site_fract_y
 _atom_site_fract_z
 _atom_site_occupancy
  K  K0  1  0.83216800  0.00256400  0.30206900  1
  K  K1  1  0.30206900  0.83216800  0.00256400  1
  K  K2  1  0.00256400  0.30206900  0.83216800  1
  K  K3  1  0.49743600  0.69793100  0.33216800  1
  K  K4  1  0.80206900  0.66783200  0.99743600  1
  K  K5  1  0.99743600  0.80206900  0.66783200  1
  K  K6  1  0.19793100  0.16783200  0.50256400  1
  K  K7  1  0.69793100  0.33216800  0.49743600  1
  K  K8  1  0.50256400  0.19793100  0.16783200  1
  K  K9  1  0.33216800  0.49743600  0.69793100  1
  K  K10  1  0.16783200  0.50256400  0.19793100  1
  K  K11  1  0.66783200  0.99743600  0.80206900  1
  K  K12  1  0.17968900  0.04199500  0.79418700  1
  K  K13  1  0.79418700  0.17968900  0.04199500  1
  K  K14  1  0.04199500  0.79418700  0.17968900  1
  K  K15  1  0.45800500  0.20581300  0.67968900  1
  K  K16  1  0.29418700  0.32031100  0.95800500  1
  K  K17  1  0.95800500  0.29418700  0.32031100  1
  K  K18  1  0.70581300  0.82031100  0.54199500  1
  K  K19  1  0.20581300  0.67968900  0.45800500  1
  K  K20  1  0.54199500  0.70581300  0.82031100  1
  K  K21  1  0.67968900  0.45800500  0.20581300  1
  K  K22  1  0.82031100  0.54199500  0.70581300  1
  K  K23  1  0.32031100  0.95800500  0.29418700  1
  K  K24  1  0.41747200  0.41747200  0.41747200  1
  K  K25  1  0.08252800  0.58252800  0.91747200  1
  K  K26  1  0.91747200  0.08252800  0.58252800  1
  K  K27  1  0.58252800  0.91747200  0.08252800  1
  K  K28  1  0.24034200  0.24034200  0.24034200  1
  K  K29  1  0.25965800  0.75965800  0.74034200  1
  K  K30  1  0.74034200  0.25965800  0.75965800  1
  K  K31  1  0.75965800  0.74034200  0.25965800  1
  K  K32  1  0.05708100  0.05708100  0.05708100  1
  K  K33  1  0.44291900  0.94291900  0.55708100  1
  K  K34  1  0.55708100  0.44291900  0.94291900  1
  K  K35  1  0.94291900  0.55708100  0.44291900  1
  Fe  Fe36  1  0.57018200  0.57018200  0.57018200  1
  Fe  Fe37  1  0.92981800  0.42981800  0.07018200  1
  Fe  Fe38  1  0.07018200  0.92981800  0.42981800  1
  Fe  Fe39  1  0.42981800  0.07018200  0.92981800  1
  Fe  Fe40  1  0.89952400  0.89952400  0.89952400  1
  Fe  Fe41  1  0.60047600  0.10047600  0.39952400  1
  Fe  Fe42  1  0.39952400  0.60047600  0.10047600  1
  Fe  Fe43  1  0.10047600  0.39952400  0.60047600  1
  Se  Se44  1  0.91429100  0.06946800  0.83221900  1
  Se  Se45  1  0.83221900  0.91429100  0.06946800  1
  Se  Se46  1  0.06946800  0.83221900  0.91429100  1
  Se  Se47  1  0.43053200  0.16778100  0.41429100  1
  Se  Se48  1  0.33221900  0.58570900  0.93053200  1
  Se  Se49  1  0.93053200  0.33221900  0.58570900  1
  Se  Se50  1  0.66778100  0.08570900  0.56946800  1
  Se  Se51  1  0.16778100  0.41429100  0.43053200  1
  Se  Se52  1  0.56946800  0.66778100  0.08570900  1
  Se  Se53  1  0.41429100  0.43053200  0.16778100  1
  Se  Se54  1  0.08570900  0.56946800  0.66778100  1
  Se  Se55  1  0.58570900  0.93053200  0.33221900  1
  Se  Se56  1  0.07518000  0.06191300  0.31022100  1
  Se  Se57  1  0.31022100  0.07518000  0.06191300  1
  Se  Se58  1  0.06191300  0.31022100  0.07518000  1
  Se  Se59  1  0.43808700  0.68977900  0.57518000  1
  Se  Se60  1  0.81022100  0.42482000  0.93808700  1
  Se  Se61  1  0.93808700  0.81022100  0.42482000  1
  Se  Se62  1  0.18977900  0.92482000  0.56191300  1
  Se  Se63  1  0.68977900  0.57518000  0.43808700  1
  Se  Se64  1  0.56191300  0.18977900  0.92482000  1
  Se  Se65  1  0.57518000  0.43808700  0.68977900  1
  Se  Se66  1  0.92482000  0.56191300  0.18977900  1
  Se  Se67  1  0.42482000  0.93808700  0.81022100  1
  Se  Se68  1  0.79092800  0.79092800  0.79092800  1
  Se  Se69  1  0.70907200  0.20907200  0.29092800  1
  Se  Se70  1  0.29092800  0.70907200  0.20907200  1
  Se  Se71  1  0.20907200  0.29092800  0.70907200  1
