# generated using pymatgen
data_Li2Cu(PO3)4
_symmetry_space_group_name_H-M   'P 1'
_cell_length_a   9.15053600
_cell_length_b   13.77740400
_cell_length_c   7.52399054
_cell_angle_alpha   90.00000000
_cell_angle_beta   93.57317837
_cell_angle_gamma   90.00000000
_symmetry_Int_Tables_number   1
_chemical_formula_structural   Li2Cu(PO3)4
_chemical_formula_sum   'Li8 Cu4 P16 O48'
_cell_volume   946.71026006
_cell_formula_units_Z   4
loop_
 _symmetry_equiv_pos_site_id
 _symmetry_equiv_pos_as_xyz
  1  'x, y, z'
loop_
 _atom_site_type_symbol
 _atom_site_label
 _atom_site_symmetry_multiplicity
 _atom_site_fract_x
 _atom_site_fract_y
 _atom_site_fract_z
 _atom_site_occupancy
  Li  Li0  1  0.33222000  0.15393700  0.80823500  1
  Li  Li1  1  0.66778000  0.84606300  0.19176500  1
  Li  Li2  1  0.66778000  0.15393700  0.69176500  1
  Li  Li3  1  0.33222000  0.84606300  0.30823500  1
  Li  Li4  1  0.83222000  0.65393700  0.80823500  1
  Li  Li5  1  0.16778000  0.34606300  0.19176500  1
  Li  Li6  1  0.16778000  0.65393700  0.69176500  1
  Li  Li7  1  0.83222000  0.34606300  0.30823500  1
  Cu  Cu8  1  0.50000000  0.36889100  0.25000000  1
  Cu  Cu9  1  0.50000000  0.63110900  0.75000000  1
  Cu  Cu10  1  0.00000000  0.86889100  0.25000000  1
  Cu  Cu11  1  0.00000000  0.13110900  0.75000000  1
  P  P12  1  0.60509150  0.16786550  0.11302800  1
  P  P13  1  0.85109800  0.92422100  0.81632500  1
  P  P14  1  0.14890200  0.92422100  0.68367500  1
  P  P15  1  0.14890200  0.07577900  0.18367500  1
  P  P16  1  0.39490850  0.83213450  0.88697200  1
  P  P17  1  0.85109800  0.07577900  0.31632500  1
  P  P18  1  0.60509150  0.83213450  0.61302800  1
  P  P19  1  0.39490850  0.16786550  0.38697200  1
  P  P20  1  0.10509150  0.66786550  0.11302800  1
  P  P21  1  0.35109800  0.42422100  0.81632500  1
  P  P22  1  0.64890200  0.42422100  0.68367500  1
  P  P23  1  0.64890200  0.57577900  0.18367500  1
  P  P24  1  0.89490850  0.33213450  0.88697200  1
  P  P25  1  0.35109800  0.57577900  0.31632500  1
  P  P26  1  0.10509150  0.33213450  0.61302800  1
  P  P27  1  0.89490850  0.66786550  0.38697200  1
  O  O28  1  0.50000000  0.62190000  0.25000000  1
  O  O29  1  0.86265100  0.96632800  0.32652400  1
  O  O30  1  0.13734900  0.03367200  0.67347600  1
  O  O31  1  0.13734900  0.96632800  0.17347600  1
  O  O32  1  0.19454950  0.87001650  0.52471700  1
  O  O33  1  0.19454950  0.12998350  0.02471700  1
  O  O34  1  0.25535050  0.90059250  0.85803800  1
  O  O35  1  0.25535050  0.09940750  0.35803800  1
  O  O36  1  0.35566350  0.73037250  0.81908800  1
  O  O37  1  0.35566350  0.26962750  0.31908800  1
  O  O38  1  0.45650950  0.15507650  0.57400000  1
  O  O39  1  0.50000000  0.88269600  0.75000000  1
  O  O40  1  0.50000000  0.37810000  0.75000000  1
  O  O41  1  0.80545050  0.12998350  0.47528300  1
  O  O42  1  0.54349050  0.15507650  0.92600000  1
  O  O43  1  0.45650950  0.84492350  0.07400000  1
  O  O44  1  0.50000000  0.11730400  0.25000000  1
  O  O45  1  0.54349050  0.84492350  0.42600000  1
  O  O46  1  0.64433650  0.73037250  0.68091200  1
  O  O47  1  0.64433650  0.26962750  0.18091200  1
  O  O48  1  0.74464950  0.90059250  0.64196200  1
  O  O49  1  0.74464950  0.09940750  0.14196200  1
  O  O50  1  0.80545050  0.87001650  0.97528300  1
  O  O51  1  0.86265100  0.03367200  0.82652400  1
  O  O52  1  0.00000000  0.12190000  0.25000000  1
  O  O53  1  0.36265100  0.46632800  0.32652400  1
  O  O54  1  0.63734900  0.53367200  0.67347600  1
  O  O55  1  0.63734900  0.46632800  0.17347600  1
  O  O56  1  0.69454950  0.37001650  0.52471700  1
  O  O57  1  0.69454950  0.62998350  0.02471700  1
  O  O58  1  0.75535050  0.40059250  0.85803800  1
  O  O59  1  0.75535050  0.59940750  0.35803800  1
  O  O60  1  0.85566350  0.23037250  0.81908800  1
  O  O61  1  0.85566350  0.76962750  0.31908800  1
  O  O62  1  0.95650950  0.65507650  0.57400000  1
  O  O63  1  0.00000000  0.38269600  0.75000000  1
  O  O64  1  0.00000000  0.87810000  0.75000000  1
  O  O65  1  0.30545050  0.62998350  0.47528300  1
  O  O66  1  0.04349050  0.65507650  0.92600000  1
  O  O67  1  0.95650950  0.34492350  0.07400000  1
  O  O68  1  0.00000000  0.61730400  0.25000000  1
  O  O69  1  0.04349050  0.34492350  0.42600000  1
  O  O70  1  0.14433650  0.23037250  0.68091200  1
  O  O71  1  0.14433650  0.76962750  0.18091200  1
  O  O72  1  0.24464950  0.40059250  0.64196200  1
  O  O73  1  0.24464950  0.59940750  0.14196200  1
  O  O74  1  0.30545050  0.37001650  0.97528300  1
  O  O75  1  0.36265100  0.53367200  0.82652400  1
