# generated using pymatgen
data_SnI2
_symmetry_space_group_name_H-M   'P 1'
_cell_length_a   14.83175800
_cell_length_b   4.51170600
_cell_length_c   11.16645142
_cell_angle_alpha   90.00000000
_cell_angle_beta   91.80317403
_cell_angle_gamma   90.00000000
_symmetry_Int_Tables_number   1
_chemical_formula_structural   SnI2
_chemical_formula_sum   'Sn6 I12'
_cell_volume   746.85018924
_cell_formula_units_Z   6
loop_
 _symmetry_equiv_pos_site_id
 _symmetry_equiv_pos_as_xyz
  1  'x, y, z'
loop_
 _atom_site_type_symbol
 _atom_site_label
 _atom_site_symmetry_multiplicity
 _atom_site_fract_x
 _atom_site_fract_y
 _atom_site_fract_z
 _atom_site_occupancy
  Sn  Sn0  1  0.00000000  0.00000000  0.00000000  1
  Sn  Sn1  1  0.73236500  0.00000000  0.68902300  1
  Sn  Sn2  1  0.76763500  0.50000000  0.31097700  1
  Sn  Sn3  1  0.50000000  0.50000000  0.00000000  1
  Sn  Sn4  1  0.23236500  0.50000000  0.68902300  1
  Sn  Sn5  1  0.26763500  0.00000000  0.31097700  1
  I  I6  1  0.91452800  0.00000000  0.26509200  1
  I  I7  1  0.58547200  0.50000000  0.73490800  1
  I  I8  1  0.64332200  0.00000000  0.43971600  1
  I  I9  1  0.85667800  0.50000000  0.56028400  1
  I  I10  1  0.64155100  0.00000000  0.08100900  1
  I  I11  1  0.85844900  0.50000000  0.91899100  1
  I  I12  1  0.41452800  0.50000000  0.26509200  1
  I  I13  1  0.08547200  0.00000000  0.73490800  1
  I  I14  1  0.14332200  0.50000000  0.43971600  1
  I  I15  1  0.35667800  0.00000000  0.56028400  1
  I  I16  1  0.14155100  0.50000000  0.08100900  1
  I  I17  1  0.35844900  0.00000000  0.91899100  1
