# generated using pymatgen
data_Ba3(SnP2)2
_symmetry_space_group_name_H-M   'P 1'
_cell_length_a   7.97555900
_cell_length_b   19.56392400
_cell_length_c   7.98012656
_cell_angle_alpha   90.00000000
_cell_angle_beta   112.77190696
_cell_angle_gamma   90.00000000
_symmetry_Int_Tables_number   1
_chemical_formula_structural   Ba3(SnP2)2
_chemical_formula_sum   'Ba12 Sn8 P16'
_cell_volume   1148.10811065
_cell_formula_units_Z   4
loop_
 _symmetry_equiv_pos_site_id
 _symmetry_equiv_pos_as_xyz
  1  'x, y, z'
loop_
 _atom_site_type_symbol
 _atom_site_label
 _atom_site_symmetry_multiplicity
 _atom_site_fract_x
 _atom_site_fract_y
 _atom_site_fract_z
 _atom_site_occupancy
  Ba  Ba0  1  0.70335900  0.31156200  0.06615900  1
  Ba  Ba1  1  0.29664100  0.81156200  0.43384100  1
  Ba  Ba2  1  0.29664100  0.68843800  0.93384100  1
  Ba  Ba3  1  0.70335900  0.18843800  0.56615900  1
  Ba  Ba4  1  0.76855600  0.93673100  0.45686400  1
  Ba  Ba5  1  0.23144400  0.43673100  0.04313600  1
  Ba  Ba6  1  0.23144400  0.06326900  0.54313600  1
  Ba  Ba7  1  0.76855600  0.56326900  0.95686400  1
  Ba  Ba8  1  0.81699200  0.69468000  0.44962300  1
  Ba  Ba9  1  0.18300800  0.19468000  0.05037700  1
  Ba  Ba10  1  0.18300800  0.30532000  0.55037700  1
  Ba  Ba11  1  0.81699200  0.80532000  0.94962300  1
  Sn  Sn12  1  0.64683300  0.37887300  0.58550000  1
  Sn  Sn13  1  0.35316700  0.87887300  0.91450000  1
  Sn  Sn14  1  0.35316700  0.62112700  0.41450000  1
  Sn  Sn15  1  0.64683300  0.12112700  0.08550000  1
  Sn  Sn16  1  0.22671000  0.99424500  0.05471400  1
  Sn  Sn17  1  0.22671000  0.50575500  0.55471400  1
  Sn  Sn18  1  0.77329000  0.00575500  0.94528600  1
  Sn  Sn19  1  0.77329000  0.49424500  0.44528600  1
  P  P20  1  0.44251200  0.31005600  0.31479200  1
  P  P21  1  0.55748800  0.81005600  0.18520800  1
  P  P22  1  0.55748800  0.68994400  0.68520800  1
  P  P23  1  0.44251200  0.18994400  0.81479200  1
  P  P24  1  0.47131500  0.07131100  0.27930700  1
  P  P25  1  0.52868500  0.57131100  0.22069300  1
  P  P26  1  0.52868500  0.92868900  0.72069300  1
  P  P27  1  0.47131500  0.42868900  0.77930700  1
  P  P28  1  0.93079600  0.18080700  0.29890300  1
  P  P29  1  0.06920400  0.68080700  0.20109700  1
  P  P30  1  0.06920400  0.81919300  0.70109700  1
  P  P31  1  0.93079600  0.31919300  0.79890300  1
  P  P32  1  0.02531900  0.94338200  0.21102300  1
  P  P33  1  0.02531900  0.55661800  0.71102300  1
  P  P34  1  0.97468100  0.05661800  0.78897700  1
  P  P35  1  0.97468100  0.44338200  0.28897700  1
