# generated using pymatgen
data_K4CdCl6
_symmetry_space_group_name_H-M   'P 1'
_cell_length_a   12.32676231
_cell_length_b   12.32676231
_cell_length_c   15.14836852
_cell_angle_alpha   90.00000000
_cell_angle_beta   90.00000000
_cell_angle_gamma   120.00000000
_symmetry_Int_Tables_number   1
_chemical_formula_structural   K4CdCl6
_chemical_formula_sum   'K24 Cd6 Cl36'
_cell_volume   1993.40038118
_cell_formula_units_Z   6
loop_
 _symmetry_equiv_pos_site_id
 _symmetry_equiv_pos_as_xyz
  1  'x, y, z'
loop_
 _atom_site_type_symbol
 _atom_site_label
 _atom_site_symmetry_multiplicity
 _atom_site_fract_x
 _atom_site_fract_y
 _atom_site_fract_z
 _atom_site_occupancy
  K  K0  1  0.33333333  0.66666667  0.91666667  1
  K  K1  1  0.33333333  0.66666667  0.41666667  1
  K  K2  1  0.04320167  0.33333333  0.08333333  1
  K  K3  1  0.66666667  0.70986833  0.08333333  1
  K  K4  1  0.29013167  0.95679833  0.08333333  1
  K  K5  1  0.62346500  0.00000000  0.25000000  1
  K  K6  1  0.00000000  0.62346500  0.25000000  1
  K  K7  1  0.37653500  0.37653500  0.25000000  1
  K  K8  1  0.00000000  0.00000000  0.25000000  1
  K  K9  1  0.00000000  0.00000000  0.75000000  1
  K  K10  1  0.70986833  0.66666667  0.41666667  1
  K  K11  1  0.33333333  0.04320167  0.41666667  1
  K  K12  1  0.95679833  0.29013167  0.41666667  1
  K  K13  1  0.29013167  0.33333333  0.58333333  1
  K  K14  1  0.66666667  0.95679833  0.58333333  1
  K  K15  1  0.04320167  0.70986833  0.58333333  1
  K  K16  1  0.66666667  0.33333333  0.58333333  1
  K  K17  1  0.66666667  0.33333333  0.08333333  1
  K  K18  1  0.37653500  0.00000000  0.75000000  1
  K  K19  1  0.00000000  0.37653500  0.75000000  1
  K  K20  1  0.62346500  0.62346500  0.75000000  1
  K  K21  1  0.95679833  0.66666667  0.91666667  1
  K  K22  1  0.33333333  0.29013167  0.91666667  1
  K  K23  1  0.70986833  0.04320167  0.91666667  1
  Cd  Cd24  1  0.00000000  0.00000000  0.00000000  1
  Cd  Cd25  1  0.33333333  0.66666667  0.16666667  1
  Cd  Cd26  1  0.66666667  0.33333333  0.33333333  1
  Cd  Cd27  1  0.00000000  0.00000000  0.50000000  1
  Cd  Cd28  1  0.33333333  0.66666667  0.66666667  1
  Cd  Cd29  1  0.66666667  0.33333333  0.83333333  1
  Cl  Cl30  1  0.30113100  0.82565300  0.26919900  1
  Cl  Cl31  1  0.17434700  0.47547800  0.26919900  1
  Cl  Cl32  1  0.52452200  0.69886900  0.26919900  1
  Cl  Cl33  1  0.47547800  0.17434700  0.23080100  1
  Cl  Cl34  1  0.82565300  0.30113100  0.23080100  1
  Cl  Cl35  1  0.69886900  0.52452200  0.23080100  1
  Cl  Cl36  1  0.36553567  0.50768033  0.06413433  1
  Cl  Cl37  1  0.49231967  0.85785533  0.06413433  1
  Cl  Cl38  1  0.14214467  0.63446433  0.06413433  1
  Cl  Cl39  1  0.19118867  0.15898633  0.10253233  1
  Cl  Cl40  1  0.96779767  0.80881133  0.10253233  1
  Cl  Cl41  1  0.84101367  0.03220233  0.10253233  1
  Cl  Cl42  1  0.96779767  0.15898633  0.60253233  1
  Cl  Cl43  1  0.84101367  0.80881133  0.60253233  1
  Cl  Cl44  1  0.19118867  0.03220233  0.60253233  1
  Cl  Cl45  1  0.14214467  0.50768033  0.56413433  1
  Cl  Cl46  1  0.49231967  0.63446433  0.56413433  1
  Cl  Cl47  1  0.36553567  0.85785533  0.56413433  1
  Cl  Cl48  1  0.03220233  0.84101367  0.39746767  1
  Cl  Cl49  1  0.15898633  0.19118867  0.39746767  1
  Cl  Cl50  1  0.80881133  0.96779767  0.39746767  1
  Cl  Cl51  1  0.85785533  0.49231967  0.43586567  1
  Cl  Cl52  1  0.63446433  0.14214467  0.43586567  1
  Cl  Cl53  1  0.50768033  0.36553567  0.43586567  1
  Cl  Cl54  1  0.63446433  0.49231967  0.93586567  1
  Cl  Cl55  1  0.50768033  0.14214467  0.93586567  1
  Cl  Cl56  1  0.85785533  0.36553567  0.93586567  1
  Cl  Cl57  1  0.80881133  0.84101367  0.89746767  1
  Cl  Cl58  1  0.15898633  0.96779767  0.89746767  1
  Cl  Cl59  1  0.03220233  0.19118867  0.89746767  1
  Cl  Cl60  1  0.69886900  0.17434700  0.73080100  1
  Cl  Cl61  1  0.82565300  0.52452200  0.73080100  1
  Cl  Cl62  1  0.47547800  0.30113100  0.73080100  1
  Cl  Cl63  1  0.52452200  0.82565300  0.76919900  1
  Cl  Cl64  1  0.30113100  0.47547800  0.76919900  1
  Cl  Cl65  1  0.17434700  0.69886900  0.76919900  1
