# generated using pymatgen
data_MgInBr3
_symmetry_space_group_name_H-M   'P 1'
_cell_length_a   4.01046200
_cell_length_b   9.64231200
_cell_length_c   15.65899800
_cell_angle_alpha   90.00000000
_cell_angle_beta   90.00000000
_cell_angle_gamma   90.00000000
_symmetry_Int_Tables_number   1
_chemical_formula_structural   MgInBr3
_chemical_formula_sum   'Mg4 In4 Br12'
_cell_volume   605.53542363
_cell_formula_units_Z   4
loop_
 _symmetry_equiv_pos_site_id
 _symmetry_equiv_pos_as_xyz
  1  'x, y, z'
loop_
 _atom_site_type_symbol
 _atom_site_label
 _atom_site_symmetry_multiplicity
 _atom_site_fract_x
 _atom_site_fract_y
 _atom_site_fract_z
 _atom_site_occupancy
  Mg  Mg0  1  0.25000000  0.66149700  0.05326900  1
  Mg  Mg1  1  0.75000000  0.33850300  0.94673100  1
  Mg  Mg2  1  0.25000000  0.16149700  0.44673100  1
  Mg  Mg3  1  0.75000000  0.83850300  0.55326900  1
  In  In4  1  0.25000000  0.97157300  0.82441900  1
  In  In5  1  0.75000000  0.02842700  0.17558100  1
  In  In6  1  0.25000000  0.47157300  0.67558100  1
  In  In7  1  0.75000000  0.52842700  0.32441900  1
  Br  Br8  1  0.75000000  0.97993800  0.40087300  1
  Br  Br9  1  0.25000000  0.02006200  0.59912700  1
  Br  Br10  1  0.75000000  0.47993800  0.09912700  1
  Br  Br11  1  0.25000000  0.52006200  0.90087300  1
  Br  Br12  1  0.75000000  0.32511700  0.50258100  1
  Br  Br13  1  0.25000000  0.67488300  0.49741900  1
  Br  Br14  1  0.75000000  0.82511700  0.99741900  1
  Br  Br15  1  0.25000000  0.17488300  0.00258100  1
  Br  Br16  1  0.75000000  0.72617300  0.70656900  1
  Br  Br17  1  0.25000000  0.27382700  0.29343100  1
  Br  Br18  1  0.75000000  0.22617300  0.79343100  1
  Br  Br19  1  0.25000000  0.77382700  0.20656900  1
