# generated using pymatgen
data_NaP4N7
_symmetry_space_group_name_H-M   'P 1'
_cell_length_a   12.43818400
_cell_length_b   8.60266600
_cell_length_c   5.18245496
_cell_angle_alpha   90.00000000
_cell_angle_beta   102.47274930
_cell_angle_gamma   90.00000000
_symmetry_Int_Tables_number   1
_chemical_formula_structural   NaP4N7
_chemical_formula_sum   'Na4 P16 N28'
_cell_volume   541.44310677
_cell_formula_units_Z   4
loop_
 _symmetry_equiv_pos_site_id
 _symmetry_equiv_pos_as_xyz
  1  'x, y, z'
loop_
 _atom_site_type_symbol
 _atom_site_label
 _atom_site_symmetry_multiplicity
 _atom_site_fract_x
 _atom_site_fract_y
 _atom_site_fract_z
 _atom_site_occupancy
  Na  Na0  1  0.50000000  0.70640500  0.75000000  1
  Na  Na1  1  0.50000000  0.29359500  0.25000000  1
  Na  Na2  1  0.00000000  0.20640500  0.75000000  1
  Na  Na3  1  0.00000000  0.79359500  0.25000000  1
  P  P4  1  0.37757800  0.08204100  0.71267400  1
  P  P5  1  0.62242200  0.08204100  0.78732600  1
  P  P6  1  0.17359050  0.07691050  0.30293100  1
  P  P7  1  0.82640950  0.07691050  0.19706900  1
  P  P8  1  0.82640950  0.92308950  0.69706900  1
  P  P9  1  0.17359050  0.92308950  0.80293100  1
  P  P10  1  0.37757800  0.91795900  0.21267400  1
  P  P11  1  0.62242200  0.91795900  0.28732600  1
  P  P12  1  0.87757800  0.58204100  0.71267400  1
  P  P13  1  0.12242200  0.58204100  0.78732600  1
  P  P14  1  0.67359050  0.57691050  0.30293100  1
  P  P15  1  0.32640950  0.57691050  0.19706900  1
  P  P16  1  0.32640950  0.42308950  0.69706900  1
  P  P17  1  0.67359050  0.42308950  0.80293100  1
  P  P18  1  0.87757800  0.41795900  0.21267400  1
  P  P19  1  0.12242200  0.41795900  0.28732600  1
  N  N20  1  0.31617100  0.04769400  0.39191800  1
  N  N21  1  0.68382900  0.04769400  0.10808200  1
  N  N22  1  0.68382900  0.95230600  0.60808200  1
  N  N23  1  0.31617100  0.95230600  0.89191800  1
  N  N24  1  0.64339450  0.74866450  0.19164400  1
  N  N25  1  0.35660550  0.74866450  0.30835600  1
  N  N26  1  0.35660550  0.25133550  0.80835600  1
  N  N27  1  0.64339450  0.25133550  0.69164400  1
  N  N28  1  0.86877600  0.95223200  0.42917300  1
  N  N29  1  0.13122400  0.95223200  0.07082700  1
  N  N30  1  0.50000000  0.02323200  0.75000000  1
  N  N31  1  0.50000000  0.97676800  0.25000000  1
  N  N32  1  0.86877600  0.04776800  0.92917300  1
  N  N33  1  0.13122400  0.04776800  0.57082700  1
  N  N34  1  0.81617100  0.54769400  0.39191800  1
  N  N35  1  0.18382900  0.54769400  0.10808200  1
  N  N36  1  0.18382900  0.45230600  0.60808200  1
  N  N37  1  0.81617100  0.45230600  0.89191800  1
  N  N38  1  0.14339450  0.24866450  0.19164400  1
  N  N39  1  0.85660550  0.24866450  0.30835600  1
  N  N40  1  0.85660550  0.75133550  0.80835600  1
  N  N41  1  0.14339450  0.75133550  0.69164400  1
  N  N42  1  0.36877600  0.45223200  0.42917300  1
  N  N43  1  0.63122400  0.45223200  0.07082700  1
  N  N44  1  0.00000000  0.52323200  0.75000000  1
  N  N45  1  0.00000000  0.47676800  0.25000000  1
  N  N46  1  0.36877600  0.54776800  0.92917300  1
  N  N47  1  0.63122400  0.54776800  0.57082700  1
