# generated using pymatgen
data_Rb3B12H12Br
_symmetry_space_group_name_H-M   'P 1'
_cell_length_a   10.35762446
_cell_length_b   10.35762446
_cell_length_c   11.66448619
_cell_angle_alpha   90.00000000
_cell_angle_beta   90.00000000
_cell_angle_gamma   120.00000000
_symmetry_Int_Tables_number   1
_chemical_formula_structural   Rb3B12H12Br
_chemical_formula_sum   'Rb9 B36 H36 Br3'
_cell_volume   1083.71869719
_cell_formula_units_Z   3
loop_
 _symmetry_equiv_pos_site_id
 _symmetry_equiv_pos_as_xyz
  1  'x, y, z'
loop_
 _atom_site_type_symbol
 _atom_site_label
 _atom_site_symmetry_multiplicity
 _atom_site_fract_x
 _atom_site_fract_y
 _atom_site_fract_z
 _atom_site_occupancy
  Rb  Rb0  1  0.16666667  0.33333333  0.33333333  1
  Rb  Rb1  1  0.66666667  0.83333333  0.33333333  1
  Rb  Rb2  1  0.16666667  0.83333333  0.33333333  1
  Rb  Rb3  1  0.83333333  0.66666667  0.66666667  1
  Rb  Rb4  1  0.33333333  0.16666667  0.66666667  1
  Rb  Rb5  1  0.83333333  0.16666667  0.66666667  1
  Rb  Rb6  1  0.50000000  0.00000000  0.00000000  1
  Rb  Rb7  1  0.00000000  0.50000000  0.00000000  1
  Rb  Rb8  1  0.50000000  0.50000000  0.00000000  1
  B  B9  1  0.48135067  0.24067533  0.36064833  1
  B  B10  1  0.51864933  0.75932467  0.63935167  1
  B  B11  1  0.24067533  0.48135067  0.63935167  1
  B  B12  1  0.24067533  0.75932467  0.63935167  1
  B  B13  1  0.94286533  0.05713467  0.11524667  1
  B  B14  1  0.94286533  0.88573067  0.11524667  1
  B  B15  1  0.11426933  0.05713467  0.11524667  1
  B  B16  1  0.88573067  0.94286533  0.88475333  1
  B  B17  1  0.05713467  0.94286533  0.88475333  1
  B  B18  1  0.05713467  0.11426933  0.88475333  1
  B  B19  1  0.75932467  0.24067533  0.36064833  1
  B  B20  1  0.75932467  0.51864933  0.36064833  1
  B  B21  1  0.14801733  0.57400867  0.69398167  1
  B  B22  1  0.18531600  0.09265800  0.97268500  1
  B  B23  1  0.90734200  0.81468400  0.97268500  1
  B  B24  1  0.90734200  0.09265800  0.97268500  1
  B  B25  1  0.60953200  0.39046800  0.44858000  1
  B  B26  1  0.60953200  0.21906400  0.44858000  1
  B  B27  1  0.78093600  0.39046800  0.44858000  1
  B  B28  1  0.55239733  0.27619867  0.21808667  1
  B  B29  1  0.72380133  0.27619867  0.21808667  1
  B  B30  1  0.72380133  0.44760267  0.21808667  1
  B  B31  1  0.42599133  0.57400867  0.69398167  1
  B  B32  1  0.42599133  0.85198267  0.69398167  1
  B  B33  1  0.81468400  0.90734200  0.02731500  1
  B  B34  1  0.85198267  0.42599133  0.30601833  1
  B  B35  1  0.57400867  0.14801733  0.30601833  1
  B  B36  1  0.57400867  0.42599133  0.30601833  1
  B  B37  1  0.27619867  0.72380133  0.78191333  1
  B  B38  1  0.27619867  0.55239733  0.78191333  1
  B  B39  1  0.44760267  0.72380133  0.78191333  1
  B  B40  1  0.21906400  0.60953200  0.55142000  1
  B  B41  1  0.39046800  0.60953200  0.55142000  1
  B  B42  1  0.39046800  0.78093600  0.55142000  1
  B  B43  1  0.09265800  0.90734200  0.02731500  1
  B  B44  1  0.09265800  0.18531600  0.02731500  1
  H  H45  1  0.17476467  0.82523533  0.61892533  1
  H  H46  1  0.17476467  0.34952933  0.61892533  1
  H  H47  1  0.65047067  0.82523533  0.61892533  1
  H  H48  1  0.34952933  0.17476467  0.38107467  1
  H  H49  1  0.09771900  0.90228100  0.80279100  1
  H  H50  1  0.09771900  0.19543800  0.80279100  1
  H  H51  1  0.80456200  0.90228100  0.80279100  1
  H  H52  1  0.19543800  0.09771900  0.19720900  1
  H  H53  1  0.90228100  0.09771900  0.19720900  1
  H  H54  1  0.90228100  0.80456200  0.19720900  1
  H  H55  1  0.82523533  0.17476467  0.38107467  1
  H  H56  1  0.82523533  0.65047067  0.38107467  1
  H  H57  1  0.84143133  0.15856867  0.95225867  1
  H  H58  1  0.84143133  0.68286267  0.95225867  1
  H  H59  1  0.31713733  0.15856867  0.95225867  1
  H  H60  1  0.01619600  0.50809800  0.71440800  1
  H  H61  1  0.76438567  0.23561433  0.13612433  1
  H  H62  1  0.76438567  0.52877133  0.13612433  1
  H  H63  1  0.47122867  0.23561433  0.13612433  1
  H  H64  1  0.86210467  0.43105233  0.53054233  1
  H  H65  1  0.56894767  0.43105233  0.53054233  1
  H  H66  1  0.56894767  0.13789533  0.53054233  1
  H  H67  1  0.49190200  0.50809800  0.71440800  1
  H  H68  1  0.49190200  0.98380400  0.71440800  1
  H  H69  1  0.50809800  0.49190200  0.28559200  1
  H  H70  1  0.50809800  0.01619600  0.28559200  1
  H  H71  1  0.98380400  0.49190200  0.28559200  1
  H  H72  1  0.68286267  0.84143133  0.04774133  1
  H  H73  1  0.43105233  0.56894767  0.46945767  1
  H  H74  1  0.43105233  0.86210467  0.46945767  1
  H  H75  1  0.13789533  0.56894767  0.46945767  1
  H  H76  1  0.52877133  0.76438567  0.86387567  1
  H  H77  1  0.23561433  0.76438567  0.86387567  1
  H  H78  1  0.23561433  0.47122867  0.86387567  1
  H  H79  1  0.15856867  0.84143133  0.04774133  1
  H  H80  1  0.15856867  0.31713733  0.04774133  1
  Br  Br81  1  0.00000000  0.00000000  0.50000000  1
  Br  Br82  1  0.66666667  0.33333333  0.83333333  1
  Br  Br83  1  0.33333333  0.66666667  0.16666667  1
