# generated using pymatgen
data_PrZr3F15
_symmetry_space_group_name_H-M   'P 1'
_cell_length_a   12.52200763
_cell_length_b   12.52200763
_cell_length_c   6.23639004
_cell_angle_alpha   90.00000000
_cell_angle_beta   90.00000000
_cell_angle_gamma   120.00000000
_symmetry_Int_Tables_number   1
_chemical_formula_structural   PrZr3F15
_chemical_formula_sum   'Pr3 Zr9 F45'
_cell_volume   846.86040693
_cell_formula_units_Z   3
loop_
 _symmetry_equiv_pos_site_id
 _symmetry_equiv_pos_as_xyz
  1  'x, y, z'
loop_
 _atom_site_type_symbol
 _atom_site_label
 _atom_site_symmetry_multiplicity
 _atom_site_fract_x
 _atom_site_fract_y
 _atom_site_fract_z
 _atom_site_occupancy
  Pr  Pr0  1  0.00000000  0.00000000  0.49391200  1
  Pr  Pr1  1  0.66666667  0.33333333  0.82724533  1
  Pr  Pr2  1  0.33333333  0.66666667  0.16057867  1
  Zr  Zr3  1  0.62078267  0.81039133  0.66556933  1
  Zr  Zr4  1  0.18960867  0.37921733  0.66556933  1
  Zr  Zr5  1  0.85627533  0.14372467  0.99890267  1
  Zr  Zr6  1  0.28744933  0.14372467  0.99890267  1
  Zr  Zr7  1  0.85627533  0.71255067  0.99890267  1
  Zr  Zr8  1  0.52294200  0.47705800  0.33223600  1
  Zr  Zr9  1  0.95411600  0.47705800  0.33223600  1
  Zr  Zr10  1  0.52294200  0.04588400  0.33223600  1
  Zr  Zr11  1  0.18960867  0.81039133  0.66556933  1
  F  F12  1  0.03878867  0.29134133  0.89001333  1
  F  F13  1  0.91921933  0.29454467  0.22334667  1
  F  F14  1  0.04199200  0.41411400  0.55668000  1
  F  F15  1  0.70865867  0.96121133  0.89001333  1
  F  F16  1  0.77998533  0.22001467  0.81626067  1
  F  F17  1  0.11331867  0.22663733  0.48292733  1
  F  F18  1  0.77336267  0.88668133  0.48292733  1
  F  F19  1  0.92586467  0.07413533  0.21130733  1
  F  F20  1  0.25919800  0.51839600  0.87797400  1
  F  F21  1  0.48160400  0.74080200  0.87797400  1
  F  F22  1  0.92088100  0.07911900  0.75792100  1
  F  F23  1  0.25421433  0.50842867  0.42458767  1
  F  F24  1  0.49157133  0.74578567  0.42458767  1
  F  F25  1  0.70545533  0.08078067  0.22334667  1
  F  F26  1  0.58588600  0.95800800  0.55668000  1
  F  F27  1  0.70545533  0.62467467  0.22334667  1
  F  F28  1  0.58588600  0.62787800  0.55668000  1
  F  F29  1  0.70865867  0.74744733  0.89001333  1
  F  F30  1  0.37532533  0.29454467  0.22334667  1
  F  F31  1  0.44665200  0.55334800  0.14959400  1
  F  F32  1  0.77998533  0.55997067  0.81626067  1
  F  F33  1  0.44002933  0.22001467  0.81626067  1
  F  F34  1  0.59253133  0.40746867  0.54464067  1
  F  F35  1  0.92586467  0.85172933  0.21130733  1
  F  F36  1  0.14827067  0.07413533  0.21130733  1
  F  F37  1  0.58754767  0.41245233  0.09125433  1
  F  F38  1  0.92088100  0.84176200  0.75792100  1
  F  F39  1  0.15823800  0.07911900  0.75792100  1
  F  F40  1  0.37212200  0.41411400  0.55668000  1
  F  F41  1  0.25255267  0.29134133  0.89001333  1
  F  F42  1  0.37212200  0.95800800  0.55668000  1
  F  F43  1  0.25255267  0.96121133  0.89001333  1
  F  F44  1  0.37532533  0.08078067  0.22334667  1
  F  F45  1  0.04199200  0.62787800  0.55668000  1
  F  F46  1  0.11331867  0.88668133  0.48292733  1
  F  F47  1  0.44665200  0.89330400  0.14959400  1
  F  F48  1  0.10669600  0.55334800  0.14959400  1
  F  F49  1  0.25919800  0.74080200  0.87797400  1
  F  F50  1  0.59253133  0.18506267  0.54464067  1
  F  F51  1  0.81493733  0.40746867  0.54464067  1
  F  F52  1  0.25421433  0.74578567  0.42458767  1
  F  F53  1  0.58754767  0.17509533  0.09125433  1
  F  F54  1  0.82490467  0.41245233  0.09125433  1
  F  F55  1  0.03878867  0.74744733  0.89001333  1
  F  F56  1  0.91921933  0.62467467  0.22334667  1
