# generated using pymatgen
data_BaGe2O5
_symmetry_space_group_name_H-M   'P 1'
_cell_length_a   5.61681000
_cell_length_b   10.01835600
_cell_length_c   14.61231300
_cell_angle_alpha   90.00000000
_cell_angle_beta   90.00000000
_cell_angle_gamma   90.00000000
_symmetry_Int_Tables_number   1
_chemical_formula_structural   BaGe2O5
_chemical_formula_sum   'Ba8 Ge16 O40'
_cell_volume   822.25241891
_cell_formula_units_Z   8
loop_
 _symmetry_equiv_pos_site_id
 _symmetry_equiv_pos_as_xyz
  1  'x, y, z'
loop_
 _atom_site_type_symbol
 _atom_site_label
 _atom_site_symmetry_multiplicity
 _atom_site_fract_x
 _atom_site_fract_y
 _atom_site_fract_z
 _atom_site_occupancy
  Ba  Ba0  1  0.50000000  0.83794300  0.08122900  1
  Ba  Ba1  1  0.00000000  0.66205700  0.91877100  1
  Ba  Ba2  1  0.50000000  0.66205700  0.58122900  1
  Ba  Ba3  1  0.00000000  0.83794300  0.41877100  1
  Ba  Ba4  1  0.00000000  0.33794300  0.08122900  1
  Ba  Ba5  1  0.50000000  0.16205700  0.91877100  1
  Ba  Ba6  1  0.00000000  0.16205700  0.58122900  1
  Ba  Ba7  1  0.50000000  0.33794300  0.41877100  1
  Ge  Ge8  1  0.50000000  0.50524300  0.14152600  1
  Ge  Ge9  1  0.00000000  0.99475700  0.85847400  1
  Ge  Ge10  1  0.50000000  0.99475700  0.64152600  1
  Ge  Ge11  1  0.00000000  0.50524300  0.35847400  1
  Ge  Ge12  1  0.00000000  0.67283200  0.18327100  1
  Ge  Ge13  1  0.50000000  0.82716800  0.81672900  1
  Ge  Ge14  1  0.00000000  0.82716800  0.68327100  1
  Ge  Ge15  1  0.50000000  0.67283200  0.31672900  1
  Ge  Ge16  1  0.00000000  0.00524300  0.14152600  1
  Ge  Ge17  1  0.50000000  0.49475700  0.85847400  1
  Ge  Ge18  1  0.00000000  0.49475700  0.64152600  1
  Ge  Ge19  1  0.50000000  0.00524300  0.35847400  1
  Ge  Ge20  1  0.50000000  0.17283200  0.18327100  1
  Ge  Ge21  1  0.00000000  0.32716800  0.81672900  1
  Ge  Ge22  1  0.50000000  0.32716800  0.68327100  1
  Ge  Ge23  1  0.00000000  0.17283200  0.31672900  1
  O  O24  1  0.74390950  0.90885050  0.90619500  1
  O  O25  1  0.24390950  0.59114950  0.09380500  1
  O  O26  1  0.25609050  0.59114950  0.40619500  1
  O  O27  1  0.75609050  0.90885050  0.59380500  1
  O  O28  1  0.75609050  0.59114950  0.09380500  1
  O  O29  1  0.25609050  0.90885050  0.90619500  1
  O  O30  1  0.24390950  0.90885050  0.59380500  1
  O  O31  1  0.74390950  0.59114950  0.40619500  1
  O  O32  1  0.25000000  0.74833100  0.25000000  1
  O  O33  1  0.75000000  0.75166900  0.75000000  1
  O  O34  1  0.25000000  0.75166900  0.75000000  1
  O  O35  1  0.75000000  0.74833100  0.25000000  1
  O  O36  1  0.50000000  0.50611500  0.26124500  1
  O  O37  1  0.00000000  0.99388500  0.73875500  1
  O  O38  1  0.50000000  0.99388500  0.76124500  1
  O  O39  1  0.00000000  0.50611500  0.23875500  1
  O  O40  1  0.50000000  0.83387700  0.39867500  1
  O  O41  1  0.00000000  0.66612300  0.60132500  1
  O  O42  1  0.50000000  0.66612300  0.89867500  1
  O  O43  1  0.00000000  0.83387700  0.10132500  1
  O  O44  1  0.24390950  0.40885050  0.90619500  1
  O  O45  1  0.74390950  0.09114950  0.09380500  1
  O  O46  1  0.75609050  0.09114950  0.40619500  1
  O  O47  1  0.25609050  0.40885050  0.59380500  1
  O  O48  1  0.25609050  0.09114950  0.09380500  1
  O  O49  1  0.75609050  0.40885050  0.90619500  1
  O  O50  1  0.74390950  0.40885050  0.59380500  1
  O  O51  1  0.24390950  0.09114950  0.40619500  1
  O  O52  1  0.75000000  0.24833100  0.25000000  1
  O  O53  1  0.25000000  0.25166900  0.75000000  1
  O  O54  1  0.75000000  0.25166900  0.75000000  1
  O  O55  1  0.25000000  0.24833100  0.25000000  1
  O  O56  1  0.00000000  0.00611500  0.26124500  1
  O  O57  1  0.50000000  0.49388500  0.73875500  1
  O  O58  1  0.00000000  0.49388500  0.76124500  1
  O  O59  1  0.50000000  0.00611500  0.23875500  1
  O  O60  1  0.00000000  0.33387700  0.39867500  1
  O  O61  1  0.50000000  0.16612300  0.60132500  1
  O  O62  1  0.00000000  0.16612300  0.89867500  1
  O  O63  1  0.50000000  0.33387700  0.10132500  1
