# generated using pymatgen
data_Ti6CCl14
_symmetry_space_group_name_H-M   'P 1'
_cell_length_a   12.89667200
_cell_length_b   13.56425800
_cell_length_c   11.14377900
_cell_angle_alpha   90.00000000
_cell_angle_beta   90.00000000
_cell_angle_gamma   90.00000000
_symmetry_Int_Tables_number   1
_chemical_formula_structural   Ti6CCl14
_chemical_formula_sum   'Ti24 C4 Cl56'
_cell_volume   1949.42345471
_cell_formula_units_Z   4
loop_
 _symmetry_equiv_pos_site_id
 _symmetry_equiv_pos_as_xyz
  1  'x, y, z'
loop_
 _atom_site_type_symbol
 _atom_site_label
 _atom_site_symmetry_multiplicity
 _atom_site_fract_x
 _atom_site_fract_y
 _atom_site_fract_z
 _atom_site_occupancy
  Ti  Ti0  1  0.63476800  0.00000000  0.09773600  1
  Ti  Ti1  1  0.86523200  0.00000000  0.59773600  1
  Ti  Ti2  1  0.13476800  0.00000000  0.40226400  1
  Ti  Ti3  1  0.36523200  0.00000000  0.90226400  1
  Ti  Ti4  1  0.56249250  0.88673150  0.88395900  1
  Ti  Ti5  1  0.43750750  0.61326850  0.38395900  1
  Ti  Ti6  1  0.56249250  0.61326850  0.61604100  1
  Ti  Ti7  1  0.43750750  0.88673150  0.11604100  1
  Ti  Ti8  1  0.43750750  0.11326850  0.11604100  1
  Ti  Ti9  1  0.56249250  0.38673150  0.61604100  1
  Ti  Ti10  1  0.43750750  0.38673150  0.38395900  1
  Ti  Ti11  1  0.56249250  0.11326850  0.88395900  1
  Ti  Ti12  1  0.13476800  0.50000000  0.09773600  1
  Ti  Ti13  1  0.36523200  0.50000000  0.59773600  1
  Ti  Ti14  1  0.63476800  0.50000000  0.40226400  1
  Ti  Ti15  1  0.86523200  0.50000000  0.90226400  1
  Ti  Ti16  1  0.06249250  0.38673150  0.88395900  1
  Ti  Ti17  1  0.93750750  0.11326850  0.38395900  1
  Ti  Ti18  1  0.06249250  0.11326850  0.61604100  1
  Ti  Ti19  1  0.93750750  0.38673150  0.11604100  1
  Ti  Ti20  1  0.93750750  0.61326850  0.11604100  1
  Ti  Ti21  1  0.06249250  0.88673150  0.61604100  1
  Ti  Ti22  1  0.93750750  0.88673150  0.38395900  1
  Ti  Ti23  1  0.06249250  0.61326850  0.88395900  1
  C  C24  1  0.50000000  0.00000000  0.00000000  1
  C  C25  1  0.00000000  0.00000000  0.50000000  1
  C  C26  1  0.00000000  0.50000000  0.00000000  1
  C  C27  1  0.50000000  0.50000000  0.50000000  1
  Cl  Cl28  1  0.36117200  0.25000000  0.25000000  1
  Cl  Cl29  1  0.63882800  0.25000000  0.75000000  1
  Cl  Cl30  1  0.63882800  0.75000000  0.75000000  1
  Cl  Cl31  1  0.36117200  0.75000000  0.25000000  1
  Cl  Cl32  1  0.27406750  0.12197950  0.01202500  1
  Cl  Cl33  1  0.22593250  0.87802050  0.51202500  1
  Cl  Cl34  1  0.77406750  0.87802050  0.48797500  1
  Cl  Cl35  1  0.72593250  0.12197950  0.98797500  1
  Cl  Cl36  1  0.72593250  0.87802050  0.98797500  1
  Cl  Cl37  1  0.77406750  0.12197950  0.48797500  1
  Cl  Cl38  1  0.50000000  0.24747300  0.00000000  1
  Cl  Cl39  1  0.50000000  0.25252700  0.50000000  1
  Cl  Cl40  1  0.50000000  0.75252700  0.00000000  1
  Cl  Cl41  1  0.50000000  0.74747300  0.50000000  1
  Cl  Cl42  1  0.14201000  0.00000000  0.75848200  1
  Cl  Cl43  1  0.35799000  0.00000000  0.25848200  1
  Cl  Cl44  1  0.64201000  0.00000000  0.74151800  1
  Cl  Cl45  1  0.85799000  0.00000000  0.24151800  1
  Cl  Cl46  1  0.58837550  0.37902350  0.25867400  1
  Cl  Cl47  1  0.41162450  0.12097650  0.75867400  1
  Cl  Cl48  1  0.58837550  0.12097650  0.24132600  1
  Cl  Cl49  1  0.41162450  0.37902350  0.74132600  1
  Cl  Cl50  1  0.41162450  0.62097650  0.74132600  1
  Cl  Cl51  1  0.58837550  0.87902350  0.24132600  1
  Cl  Cl52  1  0.41162450  0.87902350  0.75867400  1
  Cl  Cl53  1  0.58837550  0.62097650  0.25867400  1
  Cl  Cl54  1  0.27406750  0.87802050  0.01202500  1
  Cl  Cl55  1  0.22593250  0.12197950  0.51202500  1
  Cl  Cl56  1  0.86117200  0.75000000  0.25000000  1
  Cl  Cl57  1  0.13882800  0.75000000  0.75000000  1
  Cl  Cl58  1  0.13882800  0.25000000  0.75000000  1
  Cl  Cl59  1  0.86117200  0.25000000  0.25000000  1
  Cl  Cl60  1  0.77406750  0.62197950  0.01202500  1
  Cl  Cl61  1  0.72593250  0.37802050  0.51202500  1
  Cl  Cl62  1  0.27406750  0.37802050  0.48797500  1
  Cl  Cl63  1  0.22593250  0.62197950  0.98797500  1
  Cl  Cl64  1  0.22593250  0.37802050  0.98797500  1
  Cl  Cl65  1  0.27406750  0.62197950  0.48797500  1
  Cl  Cl66  1  0.00000000  0.74747300  0.00000000  1
  Cl  Cl67  1  0.00000000  0.75252700  0.50000000  1
  Cl  Cl68  1  0.00000000  0.25252700  0.00000000  1
  Cl  Cl69  1  0.00000000  0.24747300  0.50000000  1
  Cl  Cl70  1  0.64201000  0.50000000  0.75848200  1
  Cl  Cl71  1  0.85799000  0.50000000  0.25848200  1
  Cl  Cl72  1  0.14201000  0.50000000  0.74151800  1
  Cl  Cl73  1  0.35799000  0.50000000  0.24151800  1
  Cl  Cl74  1  0.08837550  0.87902350  0.25867400  1
  Cl  Cl75  1  0.91162450  0.62097650  0.75867400  1
  Cl  Cl76  1  0.08837550  0.62097650  0.24132600  1
  Cl  Cl77  1  0.91162450  0.87902350  0.74132600  1
  Cl  Cl78  1  0.91162450  0.12097650  0.74132600  1
  Cl  Cl79  1  0.08837550  0.37902350  0.24132600  1
  Cl  Cl80  1  0.91162450  0.37902350  0.75867400  1
  Cl  Cl81  1  0.08837550  0.12097650  0.25867400  1
  Cl  Cl82  1  0.77406750  0.37802050  0.01202500  1
  Cl  Cl83  1  0.72593250  0.62197950  0.51202500  1
