# generated using pymatgen
data_H8NF5
_symmetry_space_group_name_H-M   'P 1'
_cell_length_a   6.37459800
_cell_length_b   6.37459800
_cell_length_c   13.75006000
_cell_angle_alpha   90.00000000
_cell_angle_beta   90.00000000
_cell_angle_gamma   90.00000000
_symmetry_Int_Tables_number   1
_chemical_formula_structural   H8NF5
_chemical_formula_sum   'H32 N4 F20'
_cell_volume   558.74055848
_cell_formula_units_Z   4
loop_
 _symmetry_equiv_pos_site_id
 _symmetry_equiv_pos_as_xyz
  1  'x, y, z'
loop_
 _atom_site_type_symbol
 _atom_site_label
 _atom_site_symmetry_multiplicity
 _atom_site_fract_x
 _atom_site_fract_y
 _atom_site_fract_z
 _atom_site_occupancy
  H  H0  1  0.09231850  0.09599350  0.04284250  1
  H  H1  1  0.09599350  0.40768150  0.29284250  1
  H  H2  1  0.90400650  0.59231850  0.29284250  1
  H  H3  1  0.90768150  0.90400650  0.04284250  1
  H  H4  1  0.90768150  0.40400650  0.20715750  1
  H  H5  1  0.40400650  0.59231850  0.45715750  1
  H  H6  1  0.59599350  0.40768150  0.45715750  1
  H  H7  1  0.09231850  0.59599350  0.20715750  1
  H  H8  1  0.64430500  0.62371100  0.06083100  1
  H  H9  1  0.62371100  0.85569500  0.31083100  1
  H  H10  1  0.37628900  0.14430500  0.31083100  1
  H  H11  1  0.35569500  0.37628900  0.06083100  1
  H  H12  1  0.64430500  0.12371100  0.18916900  1
  H  H13  1  0.12371100  0.85569500  0.43916900  1
  H  H14  1  0.87628900  0.14430500  0.43916900  1
  H  H15  1  0.35569500  0.87628900  0.18916900  1
  H  H16  1  0.59231850  0.59599350  0.54284250  1
  H  H17  1  0.59599350  0.90768150  0.79284250  1
  H  H18  1  0.40400650  0.09231850  0.79284250  1
  H  H19  1  0.40768150  0.40400650  0.54284250  1
  H  H20  1  0.40768150  0.90400650  0.70715750  1
  H  H21  1  0.90400650  0.09231850  0.95715750  1
  H  H22  1  0.09599350  0.90768150  0.95715750  1
  H  H23  1  0.59231850  0.09599350  0.70715750  1
  H  H24  1  0.14430500  0.12371100  0.56083100  1
  H  H25  1  0.12371100  0.35569500  0.81083100  1
  H  H26  1  0.87628900  0.64430500  0.81083100  1
  H  H27  1  0.85569500  0.87628900  0.56083100  1
  H  H28  1  0.14430500  0.62371100  0.68916900  1
  H  H29  1  0.62371100  0.35569500  0.93916900  1
  H  H30  1  0.37628900  0.64430500  0.93916900  1
  H  H31  1  0.85569500  0.37628900  0.68916900  1
  N  N32  1  0.00000000  0.00000000  0.00000000  1
  N  N33  1  0.00000000  0.50000000  0.25000000  1
  N  N34  1  0.50000000  0.50000000  0.50000000  1
  N  N35  1  0.50000000  0.00000000  0.75000000  1
  F  F36  1  0.74279950  0.70591050  0.10101750  1
  F  F37  1  0.70591050  0.75720050  0.35101750  1
  F  F38  1  0.29408950  0.24279950  0.35101750  1
  F  F39  1  0.25720050  0.29408950  0.10101750  1
  F  F40  1  0.25720050  0.79408950  0.14898250  1
  F  F41  1  0.79408950  0.24279950  0.39898250  1
  F  F42  1  0.20591050  0.75720050  0.39898250  1
  F  F43  1  0.74279950  0.20591050  0.14898250  1
  F  F44  1  0.50000000  0.50000000  0.00000000  1
  F  F45  1  0.50000000  0.00000000  0.25000000  1
  F  F46  1  0.24279950  0.20591050  0.60101750  1
  F  F47  1  0.20591050  0.25720050  0.85101750  1
  F  F48  1  0.79408950  0.74279950  0.85101750  1
  F  F49  1  0.75720050  0.79408950  0.60101750  1
  F  F50  1  0.75720050  0.29408950  0.64898250  1
  F  F51  1  0.29408950  0.74279950  0.89898250  1
  F  F52  1  0.70591050  0.25720050  0.89898250  1
  F  F53  1  0.24279950  0.70591050  0.64898250  1
  F  F54  1  0.00000000  0.00000000  0.50000000  1
  F  F55  1  0.00000000  0.50000000  0.75000000  1
