# generated using pymatgen
data_LiSb(PO3)4
_symmetry_space_group_name_H-M   'P 1'
_cell_length_a   10.42643200
_cell_length_b   11.95587600
_cell_length_c   17.41370300
_cell_angle_alpha   90.00000000
_cell_angle_beta   90.00000000
_cell_angle_gamma   90.00000000
_symmetry_Int_Tables_number   1
_chemical_formula_structural   LiSb(PO3)4
_chemical_formula_sum   'Li8 Sb8 P32 O96'
_cell_volume   2170.74220582
_cell_formula_units_Z   8
loop_
 _symmetry_equiv_pos_site_id
 _symmetry_equiv_pos_as_xyz
  1  'x, y, z'
loop_
 _atom_site_type_symbol
 _atom_site_label
 _atom_site_symmetry_multiplicity
 _atom_site_fract_x
 _atom_site_fract_y
 _atom_site_fract_z
 _atom_site_occupancy
  Li  Li0  1  0.14183550  0.03635550  0.35642300  1
  Li  Li1  1  0.85816450  0.03635550  0.14357700  1
  Li  Li2  1  0.85816450  0.96364450  0.85642300  1
  Li  Li3  1  0.14183550  0.96364450  0.64357700  1
  Li  Li4  1  0.64183550  0.53635550  0.35642300  1
  Li  Li5  1  0.35816450  0.53635550  0.14357700  1
  Li  Li6  1  0.35816450  0.46364450  0.85642300  1
  Li  Li7  1  0.64183550  0.46364450  0.64357700  1
  Sb  Sb8  1  0.22444000  0.20902300  0.63516700  1
  Sb  Sb9  1  0.77556000  0.20902300  0.86483300  1
  Sb  Sb10  1  0.22444000  0.79097700  0.36483300  1
  Sb  Sb11  1  0.77556000  0.79097700  0.13516700  1
  Sb  Sb12  1  0.72444000  0.70902300  0.63516700  1
  Sb  Sb13  1  0.27556000  0.70902300  0.86483300  1
  Sb  Sb14  1  0.72444000  0.29097700  0.36483300  1
  Sb  Sb15  1  0.27556000  0.29097700  0.13516700  1
  P  P16  1  0.38991750  0.35365350  0.34325800  1
  P  P17  1  0.61008250  0.35365350  0.15674200  1
  P  P18  1  0.45138400  0.23332200  0.48819000  1
  P  P19  1  0.54861600  0.23332200  0.01181000  1
  P  P20  1  0.50000000  0.13870500  0.75000000  1
  P  P21  1  0.69664650  0.01674050  0.31025700  1
  P  P22  1  0.30335350  0.01674050  0.18974300  1
  P  P23  1  0.34794900  0.00000000  0.50000000  1
  P  P24  1  0.65205100  0.00000000  0.00000000  1
  P  P25  1  0.30335350  0.98325950  0.81025700  1
  P  P26  1  0.69664650  0.98325950  0.68974300  1
  P  P27  1  0.50000000  0.86129500  0.25000000  1
  P  P28  1  0.45138400  0.76667800  0.51181000  1
  P  P29  1  0.54861600  0.76667800  0.98819000  1
  P  P30  1  0.38991750  0.64634650  0.65674200  1
  P  P31  1  0.61008250  0.64634650  0.84325800  1
  P  P32  1  0.88991750  0.85365350  0.34325800  1
  P  P33  1  0.11008250  0.85365350  0.15674200  1
  P  P34  1  0.95138400  0.73332200  0.48819000  1
  P  P35  1  0.04861600  0.73332200  0.01181000  1
  P  P36  1  0.00000000  0.63870500  0.75000000  1
  P  P37  1  0.19664650  0.51674050  0.31025700  1
  P  P38  1  0.80335350  0.51674050  0.18974300  1
  P  P39  1  0.84794900  0.50000000  0.50000000  1
  P  P40  1  0.15205100  0.50000000  0.00000000  1
  P  P41  1  0.80335350  0.48325950  0.81025700  1
  P  P42  1  0.19664650  0.48325950  0.68974300  1
  P  P43  1  0.00000000  0.36129500  0.25000000  1
  P  P44  1  0.95138400  0.26667800  0.51181000  1
  P  P45  1  0.04861600  0.26667800  0.98819000  1
  P  P46  1  0.88991750  0.14634650  0.65674200  1
  P  P47  1  0.11008250  0.14634650  0.84325800  1
  O  O48  1  0.51631950  0.41353250  0.35212200  1
  O  O49  1  0.48368050  0.41353250  0.14787800  1
  O  O50  1  0.35240750  0.29387250  0.27165700  1
  O  O51  1  0.64759250  0.29387250  0.22834300  1
  O  O52  1  0.41217400  0.27163300  0.01701100  1
  O  O53  1  0.58782600  0.27163300  0.48298900  1
  O  O54  1  0.62696900  0.27226000  0.94323300  1
  O  O55  1  0.37303100  0.27226000  0.55676700  1
  O  O56  1  0.62811950  0.26349050  0.08795600  1
  O  O57  1  0.37188050  0.26349050  0.41204400  1
  O  O58  1  0.40285200  0.20750500  0.70717800  1
  O  O59  1  0.59714800  0.20750500  0.79282200  1
  O  O60  1  0.33683950  0.12280950  0.14601100  1
  O  O61  1  0.66316050  0.12280950  0.35398900  1
  O  O62  1  0.44958500  0.09836700  0.48493800  1
  O  O63  1  0.55041500  0.09836700  0.01506200  1
  O  O64  1  0.56417900  0.05407500  0.68959600  1
  O  O65  1  0.43582100  0.05407500  0.81040400  1
  O  O66  1  0.21887050  0.05579050  0.86870600  1
  O  O67  1  0.78112950  0.05579050  0.63129400  1
  O  O68  1  0.75513000  0.02605500  0.23287100  1
  O  O69  1  0.24487000  0.02605500  0.26712900  1
  O  O70  1  0.72802950  0.02349950  0.92810600  1
  O  O71  1  0.27197050  0.02349950  0.57189400  1
  O  O72  1  0.27197050  0.97650050  0.42810600  1
  O  O73  1  0.72802950  0.97650050  0.07189400  1
  O  O74  1  0.24487000  0.97394500  0.73287100  1
  O  O75  1  0.75513000  0.97394500  0.76712900  1
  O  O76  1  0.78112950  0.94420950  0.36870600  1
  O  O77  1  0.21887050  0.94420950  0.13129400  1
  O  O78  1  0.43582100  0.94592500  0.18959600  1
  O  O79  1  0.56417900  0.94592500  0.31040400  1
  O  O80  1  0.44958500  0.90163300  0.51506200  1
  O  O81  1  0.55041500  0.90163300  0.98493800  1
  O  O82  1  0.33683950  0.87719050  0.85398900  1
  O  O83  1  0.66316050  0.87719050  0.64601100  1
  O  O84  1  0.59714800  0.79249500  0.20717800  1
  O  O85  1  0.40285200  0.79249500  0.29282200  1
  O  O86  1  0.37188050  0.73650950  0.58795600  1
  O  O87  1  0.62811950  0.73650950  0.91204400  1
  O  O88  1  0.37303100  0.72774000  0.44323300  1
  O  O89  1  0.62696900  0.72774000  0.05676700  1
  O  O90  1  0.41217400  0.72836700  0.98298900  1
  O  O91  1  0.58782600  0.72836700  0.51701100  1
  O  O92  1  0.35240750  0.70612750  0.72834300  1
  O  O93  1  0.64759250  0.70612750  0.77165700  1
  O  O94  1  0.48368050  0.58646750  0.85212200  1
  O  O95  1  0.51631950  0.58646750  0.64787800  1
  O  O96  1  0.01631950  0.91353250  0.35212200  1
  O  O97  1  0.98368050  0.91353250  0.14787800  1
  O  O98  1  0.85240750  0.79387250  0.27165700  1
  O  O99  1  0.14759250  0.79387250  0.22834300  1
  O  O100  1  0.91217400  0.77163300  0.01701100  1
  O  O101  1  0.08782600  0.77163300  0.48298900  1
  O  O102  1  0.12696900  0.77226000  0.94323300  1
  O  O103  1  0.87303100  0.77226000  0.55676700  1
  O  O104  1  0.12811950  0.76349050  0.08795600  1
  O  O105  1  0.87188050  0.76349050  0.41204400  1
  O  O106  1  0.90285200  0.70750500  0.70717800  1
  O  O107  1  0.09714800  0.70750500  0.79282200  1
  O  O108  1  0.83683950  0.62280950  0.14601100  1
  O  O109  1  0.16316050  0.62280950  0.35398900  1
  O  O110  1  0.94958500  0.59836700  0.48493800  1
  O  O111  1  0.05041500  0.59836700  0.01506200  1
  O  O112  1  0.06417900  0.55407500  0.68959600  1
  O  O113  1  0.93582100  0.55407500  0.81040400  1
  O  O114  1  0.71887050  0.55579050  0.86870600  1
  O  O115  1  0.28112950  0.55579050  0.63129400  1
  O  O116  1  0.25513000  0.52605500  0.23287100  1
  O  O117  1  0.74487000  0.52605500  0.26712900  1
  O  O118  1  0.22802950  0.52349950  0.92810600  1
  O  O119  1  0.77197050  0.52349950  0.57189400  1
  O  O120  1  0.77197050  0.47650050  0.42810600  1
  O  O121  1  0.22802950  0.47650050  0.07189400  1
  O  O122  1  0.74487000  0.47394500  0.73287100  1
  O  O123  1  0.25513000  0.47394500  0.76712900  1
  O  O124  1  0.28112950  0.44420950  0.36870600  1
  O  O125  1  0.71887050  0.44420950  0.13129400  1
  O  O126  1  0.93582100  0.44592500  0.18959600  1
  O  O127  1  0.06417900  0.44592500  0.31040400  1
  O  O128  1  0.94958500  0.40163300  0.51506200  1
  O  O129  1  0.05041500  0.40163300  0.98493800  1
  O  O130  1  0.83683950  0.37719050  0.85398900  1
  O  O131  1  0.16316050  0.37719050  0.64601100  1
  O  O132  1  0.09714800  0.29249500  0.20717800  1
  O  O133  1  0.90285200  0.29249500  0.29282200  1
  O  O134  1  0.87188050  0.23650950  0.58795600  1
  O  O135  1  0.12811950  0.23650950  0.91204400  1
  O  O136  1  0.87303100  0.22774000  0.44323300  1
  O  O137  1  0.12696900  0.22774000  0.05676700  1
  O  O138  1  0.91217400  0.22836700  0.98298900  1
  O  O139  1  0.08782600  0.22836700  0.51701100  1
  O  O140  1  0.85240750  0.20612750  0.72834300  1
  O  O141  1  0.14759250  0.20612750  0.77165700  1
  O  O142  1  0.98368050  0.08646750  0.85212200  1
  O  O143  1  0.01631950  0.08646750  0.64787800  1
