# generated using pymatgen
data_LiTiPCO7
_symmetry_space_group_name_H-M   'P 1'
_cell_length_a   5.68612600
_cell_length_b   6.33638500
_cell_length_c   8.59221966
_cell_angle_alpha   90.00000000
_cell_angle_beta   93.11849157
_cell_angle_gamma   90.00000000
_symmetry_Int_Tables_number   1
_chemical_formula_structural   LiTiPCO7
_chemical_formula_sum   'Li2 Ti2 P2 C2 O14'
_cell_volume   309.11480952
_cell_formula_units_Z   2
loop_
 _symmetry_equiv_pos_site_id
 _symmetry_equiv_pos_as_xyz
  1  'x, y, z'
loop_
 _atom_site_type_symbol
 _atom_site_label
 _atom_site_symmetry_multiplicity
 _atom_site_fract_x
 _atom_site_fract_y
 _atom_site_fract_z
 _atom_site_occupancy
  Li  Li0  1  0.24775400  0.10431800  0.83481100  1
  Li  Li1  1  0.75224600  0.60431800  0.16518900  1
  Ti  Ti2  1  0.78629600  0.22566500  0.66195800  1
  Ti  Ti3  1  0.21370400  0.72566500  0.33804200  1
  P  P4  1  0.73563300  0.72396100  0.54372200  1
  P  P5  1  0.26436700  0.22396100  0.45627800  1
  C  C6  1  0.73781500  0.26369800  0.94467800  1
  C  C7  1  0.26218500  0.76369800  0.05532200  1
  O  O8  1  0.20307100  0.42052400  0.35719200  1
  O  O9  1  0.94230400  0.23390900  0.87954000  1
  O  O10  1  0.43687500  0.73195100  0.16400400  1
  O  O11  1  0.56312500  0.23195100  0.83599600  1
  O  O12  1  0.79612600  0.52883200  0.64478300  1
  O  O13  1  0.12317000  0.21772800  0.60579200  1
  O  O14  1  0.20387400  0.02883200  0.35521700  1
  O  O15  1  0.87683000  0.71772800  0.39420800  1
  O  O16  1  0.79692900  0.92052400  0.64280800  1
  O  O17  1  0.47000000  0.72464200  0.49241700  1
  O  O18  1  0.71138700  0.32157100  0.07924800  1
  O  O19  1  0.28861300  0.82157100  0.92075200  1
  O  O20  1  0.53000000  0.22464200  0.50758300  1
  O  O21  1  0.05769600  0.73390900  0.12046000  1
