# generated using pymatgen
data_Mg14Si5O24
_symmetry_space_group_name_H-M   'P 1'
_cell_length_a   5.94114600
_cell_length_b   10.17861400
_cell_length_c   14.34867500
_cell_angle_alpha   90.00000000
_cell_angle_beta   90.00000000
_cell_angle_gamma   90.00000000
_symmetry_Int_Tables_number   1
_chemical_formula_structural   Mg14Si5O24
_chemical_formula_sum   'Mg28 Si10 O48'
_cell_volume   867.70214083
_cell_formula_units_Z   2
loop_
 _symmetry_equiv_pos_site_id
 _symmetry_equiv_pos_as_xyz
  1  'x, y, z'
loop_
 _atom_site_type_symbol
 _atom_site_label
 _atom_site_symmetry_multiplicity
 _atom_site_fract_x
 _atom_site_fract_y
 _atom_site_fract_z
 _atom_site_occupancy
  Mg  Mg0  1  0.75612800  0.41887400  0.66956400  1
  Mg  Mg1  1  0.75612800  0.58112600  0.33043600  1
  Mg  Mg2  1  0.24387200  0.91887400  0.83043600  1
  Mg  Mg3  1  0.24387200  0.08112600  0.16956400  1
  Mg  Mg4  1  0.24387200  0.58112600  0.33043600  1
  Mg  Mg5  1  0.24387200  0.41887400  0.66956400  1
  Mg  Mg6  1  0.75612800  0.08112600  0.16956400  1
  Mg  Mg7  1  0.75612800  0.91887400  0.83043600  1
  Mg  Mg8  1  0.00000000  0.32060800  0.32402900  1
  Mg  Mg9  1  0.00000000  0.67939200  0.67597100  1
  Mg  Mg10  1  0.00000000  0.82060800  0.17597100  1
  Mg  Mg11  1  0.00000000  0.17939200  0.82402900  1
  Mg  Mg12  1  0.75971700  0.24659500  0.50240300  1
  Mg  Mg13  1  0.75971700  0.75340500  0.49759700  1
  Mg  Mg14  1  0.24028300  0.74659500  0.99759700  1
  Mg  Mg15  1  0.24028300  0.25340500  0.00240300  1
  Mg  Mg16  1  0.24028300  0.75340500  0.49759700  1
  Mg  Mg17  1  0.24028300  0.24659500  0.50240300  1
  Mg  Mg18  1  0.75971700  0.25340500  0.00240300  1
  Mg  Mg19  1  0.75971700  0.74659500  0.99759700  1
  Mg  Mg20  1  0.50000000  0.50000000  0.50000000  1
  Mg  Mg21  1  0.50000000  0.00000000  0.00000000  1
  Mg  Mg22  1  0.50000000  0.85450100  0.32542300  1
  Mg  Mg23  1  0.50000000  0.14549900  0.67457700  1
  Mg  Mg24  1  0.50000000  0.35450100  0.17457700  1
  Mg  Mg25  1  0.50000000  0.64549900  0.82542300  1
  Mg  Mg26  1  0.50000000  0.00000000  0.50000000  1
  Mg  Mg27  1  0.50000000  0.50000000  0.00000000  1
  Si  Si28  1  0.00000000  0.49781000  0.12472600  1
  Si  Si29  1  0.00000000  0.50219000  0.87527400  1
  Si  Si30  1  0.00000000  0.99781000  0.37527400  1
  Si  Si31  1  0.00000000  0.00219000  0.62472600  1
  Si  Si32  1  0.50000000  0.67409500  0.18862700  1
  Si  Si33  1  0.50000000  0.32590500  0.81137300  1
  Si  Si34  1  0.50000000  0.17409500  0.31137300  1
  Si  Si35  1  0.50000000  0.82590500  0.68862700  1
  Si  Si36  1  0.00000000  0.50000000  0.50000000  1
  Si  Si37  1  0.00000000  0.00000000  0.00000000  1
  O  O38  1  0.71772900  0.24722000  0.26213000  1
  O  O39  1  0.71772900  0.75278000  0.73787000  1
  O  O40  1  0.28227100  0.74722000  0.23787000  1
  O  O41  1  0.28227100  0.25278000  0.76213000  1
  O  O42  1  0.28227100  0.75278000  0.73787000  1
  O  O43  1  0.28227100  0.24722000  0.26213000  1
  O  O44  1  0.71772900  0.25278000  0.76213000  1
  O  O45  1  0.71772900  0.74722000  0.23787000  1
  O  O46  1  0.78515700  0.07475200  0.92641500  1
  O  O47  1  0.78515700  0.92524800  0.07358500  1
  O  O48  1  0.21484300  0.57475200  0.57358500  1
  O  O49  1  0.21484300  0.42524800  0.42641500  1
  O  O50  1  0.21484300  0.92524800  0.07358500  1
  O  O51  1  0.21484300  0.07475200  0.92641500  1
  O  O52  1  0.78515700  0.42524800  0.42641500  1
  O  O53  1  0.78515700  0.57475200  0.57358500  1
  O  O54  1  0.76560700  0.07877200  0.58744500  1
  O  O55  1  0.76560700  0.92122800  0.41255500  1
  O  O56  1  0.23439300  0.57877200  0.91255500  1
  O  O57  1  0.23439300  0.42122800  0.08744500  1
  O  O58  1  0.23439300  0.92122800  0.41255500  1
  O  O59  1  0.23439300  0.07877200  0.58744500  1
  O  O60  1  0.76560700  0.42122800  0.08744500  1
  O  O61  1  0.76560700  0.57877200  0.91255500  1
  O  O62  1  0.50000000  0.97170400  0.74021100  1
  O  O63  1  0.50000000  0.02829600  0.25978900  1
  O  O64  1  0.50000000  0.47170400  0.75978900  1
  O  O65  1  0.50000000  0.52829600  0.24021100  1
  O  O66  1  0.50000000  0.66953000  0.07502700  1
  O  O67  1  0.50000000  0.33047000  0.92497300  1
  O  O68  1  0.50000000  0.16953000  0.42497300  1
  O  O69  1  0.50000000  0.83047000  0.57502700  1
  O  O70  1  0.50000000  0.67228100  0.41406800  1
  O  O71  1  0.50000000  0.32771900  0.58593200  1
  O  O72  1  0.50000000  0.17228100  0.08593200  1
  O  O73  1  0.50000000  0.82771900  0.91406800  1
  O  O74  1  0.00000000  0.99573800  0.25839600  1
  O  O75  1  0.00000000  0.00426200  0.74160400  1
  O  O76  1  0.00000000  0.65299700  0.08597900  1
  O  O77  1  0.00000000  0.34700300  0.91402100  1
  O  O78  1  0.00000000  0.15299700  0.41402100  1
  O  O79  1  0.00000000  0.84700300  0.58597900  1
  O  O80  1  0.00000000  0.64644700  0.42423700  1
  O  O81  1  0.00000000  0.35355300  0.57576300  1
  O  O82  1  0.00000000  0.14644700  0.07576300  1
  O  O83  1  0.00000000  0.85355300  0.92423700  1
  O  O84  1  0.00000000  0.50426200  0.75839600  1
  O  O85  1  0.00000000  0.49573800  0.24160400  1
