# generated using pymatgen
data_K2TiS3
_symmetry_space_group_name_H-M   'P 1'
_cell_length_a   11.87696000
_cell_length_b   8.41022200
_cell_length_c   6.53845624
_cell_angle_alpha   90.00000000
_cell_angle_beta   91.76019837
_cell_angle_gamma   90.00000000
_symmetry_Int_Tables_number   1
_chemical_formula_structural   K2TiS3
_chemical_formula_sum   'K8 Ti4 S12'
_cell_volume   652.80429071
_cell_formula_units_Z   4
loop_
 _symmetry_equiv_pos_site_id
 _symmetry_equiv_pos_as_xyz
  1  'x, y, z'
loop_
 _atom_site_type_symbol
 _atom_site_label
 _atom_site_symmetry_multiplicity
 _atom_site_fract_x
 _atom_site_fract_y
 _atom_site_fract_z
 _atom_site_occupancy
  K  K0  1  0.65940350  0.83511350  0.73681900  1
  K  K1  1  0.65940350  0.16488650  0.23681900  1
  K  K2  1  0.34059650  0.83511350  0.76318100  1
  K  K3  1  0.34059650  0.16488650  0.26318100  1
  K  K4  1  0.15940350  0.33511350  0.73681900  1
  K  K5  1  0.15940350  0.66488650  0.23681900  1
  K  K6  1  0.84059650  0.33511350  0.76318100  1
  K  K7  1  0.84059650  0.66488650  0.26318100  1
  Ti  Ti8  1  0.50000000  0.41519500  0.75000000  1
  Ti  Ti9  1  0.50000000  0.58480500  0.25000000  1
  Ti  Ti10  1  0.00000000  0.91519500  0.75000000  1
  Ti  Ti11  1  0.00000000  0.08480500  0.25000000  1
  S  S12  1  0.50000000  0.84861000  0.25000000  1
  S  S13  1  0.50000000  0.15139000  0.75000000  1
  S  S14  1  0.13702450  0.00681350  0.00032500  1
  S  S15  1  0.86297550  0.00681350  0.49967500  1
  S  S16  1  0.13702450  0.99318650  0.50032500  1
  S  S17  1  0.86297550  0.99318650  0.99967500  1
  S  S18  1  0.00000000  0.34861000  0.25000000  1
  S  S19  1  0.00000000  0.65139000  0.75000000  1
  S  S20  1  0.63702450  0.50681350  0.00032500  1
  S  S21  1  0.36297550  0.50681350  0.49967500  1
  S  S22  1  0.63702450  0.49318650  0.50032500  1
  S  S23  1  0.36297550  0.49318650  0.99967500  1
