# generated using pymatgen
data_Zr3GeO8
_symmetry_space_group_name_H-M   'P 1'
_cell_length_a   5.07273000
_cell_length_b   5.07273000
_cell_length_c   10.63055800
_cell_angle_alpha   90.00000000
_cell_angle_beta   90.00000000
_cell_angle_gamma   90.00000000
_symmetry_Int_Tables_number   1
_chemical_formula_structural   Zr3GeO8
_chemical_formula_sum   'Zr6 Ge2 O16'
_cell_volume   273.55178680
_cell_formula_units_Z   2
loop_
 _symmetry_equiv_pos_site_id
 _symmetry_equiv_pos_as_xyz
  1  'x, y, z'
loop_
 _atom_site_type_symbol
 _atom_site_label
 _atom_site_symmetry_multiplicity
 _atom_site_fract_x
 _atom_site_fract_y
 _atom_site_fract_z
 _atom_site_occupancy
  Zr  Zr0  1  0.00000000  0.50000000  0.25000000  1
  Zr  Zr1  1  0.50000000  0.00000000  0.25000000  1
  Zr  Zr2  1  0.50000000  0.50000000  0.00000000  1
  Zr  Zr3  1  0.50000000  0.00000000  0.75000000  1
  Zr  Zr4  1  0.00000000  0.50000000  0.75000000  1
  Zr  Zr5  1  0.00000000  0.00000000  0.50000000  1
  Ge  Ge6  1  0.00000000  0.00000000  0.00000000  1
  Ge  Ge7  1  0.50000000  0.50000000  0.50000000  1
  O  O8  1  0.21357250  0.78642750  0.08862550  1
  O  O9  1  0.28642750  0.28642750  0.41137450  1
  O  O10  1  0.71357250  0.71357250  0.41137450  1
  O  O11  1  0.78642750  0.21357250  0.08862550  1
  O  O12  1  0.80421750  0.19578250  0.34013250  1
  O  O13  1  0.69578250  0.69578250  0.15986750  1
  O  O14  1  0.30421750  0.30421750  0.15986750  1
  O  O15  1  0.19578250  0.80421750  0.34013250  1
  O  O16  1  0.71357250  0.28642750  0.58862550  1
  O  O17  1  0.78642750  0.78642750  0.91137450  1
  O  O18  1  0.21357250  0.21357250  0.91137450  1
  O  O19  1  0.28642750  0.71357250  0.58862550  1
  O  O20  1  0.30421750  0.69578250  0.84013250  1
  O  O21  1  0.19578250  0.19578250  0.65986750  1
  O  O22  1  0.80421750  0.80421750  0.65986750  1
  O  O23  1  0.69578250  0.30421750  0.84013250  1
