# generated using pymatgen
data_Na2CaH10C2O11
_symmetry_space_group_name_H-M   'P 1'
_cell_length_a   14.60804400
_cell_length_b   7.71157800
_cell_length_c   11.28662229
_cell_angle_alpha   90.00000000
_cell_angle_beta   127.51170213
_cell_angle_gamma   90.00000000
_symmetry_Int_Tables_number   1
_chemical_formula_structural   Na2CaH10C2O11
_chemical_formula_sum   'Na8 Ca4 H40 C8 O44'
_cell_volume   1008.55106754
_cell_formula_units_Z   4
loop_
 _symmetry_equiv_pos_site_id
 _symmetry_equiv_pos_as_xyz
  1  'x, y, z'
loop_
 _atom_site_type_symbol
 _atom_site_label
 _atom_site_symmetry_multiplicity
 _atom_site_fract_x
 _atom_site_fract_y
 _atom_site_fract_z
 _atom_site_occupancy
  Na  Na0  1  0.58801600  0.30946500  0.48631400  1
  Na  Na1  1  0.41198400  0.30946500  0.01368600  1
  Na  Na2  1  0.41198400  0.69053500  0.51368600  1
  Na  Na3  1  0.58801600  0.69053500  0.98631400  1
  Na  Na4  1  0.08801600  0.80946500  0.48631400  1
  Na  Na5  1  0.91198400  0.80946500  0.01368600  1
  Na  Na6  1  0.91198400  0.19053500  0.51368600  1
  Na  Na7  1  0.08801600  0.19053500  0.98631400  1
  Ca  Ca8  1  0.50000000  0.30687800  0.75000000  1
  Ca  Ca9  1  0.50000000  0.69312200  0.25000000  1
  Ca  Ca10  1  0.00000000  0.80687800  0.75000000  1
  Ca  Ca11  1  0.00000000  0.19312200  0.25000000  1
  H  H12  1  0.67658950  0.08429150  0.75071200  1
  H  H13  1  0.82341050  0.58429150  0.74928800  1
  H  H14  1  0.32341050  0.91570850  0.24928800  1
  H  H15  1  0.17658950  0.41570850  0.25071200  1
  H  H16  1  0.71549050  0.06458350  0.91810600  1
  H  H17  1  0.78450950  0.56458350  0.58189400  1
  H  H18  1  0.11612900  0.60937700  0.04735800  1
  H  H19  1  0.38387100  0.10937700  0.45264200  1
  H  H20  1  0.88387100  0.39062300  0.95264200  1
  H  H21  1  0.61612900  0.89062300  0.54735800  1
  H  H22  1  0.10364750  0.80950850  0.07402000  1
  H  H23  1  0.21549050  0.43541650  0.41810600  1
  H  H24  1  0.89635250  0.19049150  0.92598000  1
  H  H25  1  0.60364750  0.69049150  0.57402000  1
  H  H26  1  0.56070950  0.91046250  0.77017600  1
  H  H27  1  0.43929050  0.91046250  0.72982400  1
  H  H28  1  0.43929050  0.08953750  0.22982400  1
  H  H29  1  0.56070950  0.08953750  0.27017600  1
  H  H30  1  0.28450950  0.93541650  0.08189400  1
  H  H31  1  0.39635250  0.30950850  0.42598000  1
  H  H32  1  0.17658950  0.58429150  0.75071200  1
  H  H33  1  0.32341050  0.08429150  0.74928800  1
  H  H34  1  0.82341050  0.41570850  0.24928800  1
  H  H35  1  0.67658950  0.91570850  0.25071200  1
  H  H36  1  0.21549050  0.56458350  0.91810600  1
  H  H37  1  0.28450950  0.06458350  0.58189400  1
  H  H38  1  0.61612900  0.10937700  0.04735800  1
  H  H39  1  0.88387100  0.60937700  0.45264200  1
  H  H40  1  0.38387100  0.89062300  0.95264200  1
  H  H41  1  0.11612900  0.39062300  0.54735800  1
  H  H42  1  0.60364750  0.30950850  0.07402000  1
  H  H43  1  0.71549050  0.93541650  0.41810600  1
  H  H44  1  0.39635250  0.69049150  0.92598000  1
  H  H45  1  0.10364750  0.19049150  0.57402000  1
  H  H46  1  0.06070950  0.41046250  0.77017600  1
  H  H47  1  0.93929050  0.41046250  0.72982400  1
  H  H48  1  0.93929050  0.58953750  0.22982400  1
  H  H49  1  0.06070950  0.58953750  0.27017600  1
  H  H50  1  0.78450950  0.43541650  0.08189400  1
  H  H51  1  0.89635250  0.80950850  0.42598000  1
  C  C52  1  0.68878100  0.52383800  0.81654600  1
  C  C53  1  0.18878100  0.97616200  0.31654600  1
  C  C54  1  0.81121900  0.02383800  0.68345400  1
  C  C55  1  0.31121900  0.47616200  0.18345400  1
  C  C56  1  0.18878100  0.02383800  0.81654600  1
  C  C57  1  0.68878100  0.47616200  0.31654600  1
  C  C58  1  0.31121900  0.52383800  0.68345400  1
  C  C59  1  0.81121900  0.97616200  0.18345400  1
  O  O60  1  0.60557250  0.50323850  0.67488500  1
  O  O61  1  0.43379850  0.78637950  0.00006300  1
  O  O62  1  0.43379850  0.21362050  0.50006300  1
  O  O63  1  0.56620150  0.21362050  0.99993700  1
  O  O64  1  0.64717100  0.90989000  0.31181700  1
  O  O65  1  0.35282900  0.90989000  0.18818300  1
  O  O66  1  0.35282900  0.09011000  0.68818300  1
  O  O67  1  0.64717100  0.09011000  0.81181700  1
  O  O68  1  0.56620150  0.78637950  0.49993700  1
  O  O69  1  0.89442750  0.00323850  0.82511500  1
  O  O70  1  0.39442750  0.49676150  0.32511500  1
  O  O71  1  0.10557250  0.99676150  0.17488500  1
  O  O72  1  0.79113200  0.57288200  0.86434800  1
  O  O73  1  0.70886800  0.07288200  0.63565200  1
  O  O74  1  0.20886800  0.42711800  0.13565200  1
  O  O75  1  0.29113200  0.92711800  0.36434800  1
  O  O76  1  0.33198950  0.49014150  0.58849100  1
  O  O77  1  0.50000000  0.82808200  0.75000000  1
  O  O78  1  0.33198950  0.50985850  0.08849100  1
  O  O79  1  0.66801050  0.49014150  0.91150900  1
  O  O80  1  0.50000000  0.17191800  0.25000000  1
  O  O81  1  0.66801050  0.50985850  0.41150900  1
  O  O82  1  0.10557250  0.00323850  0.67488500  1
  O  O83  1  0.93379850  0.28637950  0.00006300  1
  O  O84  1  0.93379850  0.71362050  0.50006300  1
  O  O85  1  0.06620150  0.71362050  0.99993700  1
  O  O86  1  0.14717100  0.40989000  0.31181700  1
  O  O87  1  0.85282900  0.40989000  0.18818300  1
  O  O88  1  0.85282900  0.59011000  0.68818300  1
  O  O89  1  0.14717100  0.59011000  0.81181700  1
  O  O90  1  0.06620150  0.28637950  0.49993700  1
  O  O91  1  0.39442750  0.50323850  0.82511500  1
  O  O92  1  0.89442750  0.99676150  0.32511500  1
  O  O93  1  0.60557250  0.49676150  0.17488500  1
  O  O94  1  0.29113200  0.07288200  0.86434800  1
  O  O95  1  0.20886800  0.57288200  0.63565200  1
  O  O96  1  0.70886800  0.92711800  0.13565200  1
  O  O97  1  0.79113200  0.42711800  0.36434800  1
  O  O98  1  0.83198950  0.99014150  0.58849100  1
  O  O99  1  0.00000000  0.32808200  0.75000000  1
  O  O100  1  0.83198950  0.00985850  0.08849100  1
  O  O101  1  0.16801050  0.99014150  0.91150900  1
  O  O102  1  0.00000000  0.67191800  0.25000000  1
  O  O103  1  0.16801050  0.00985850  0.41150900  1
