# generated using pymatgen
data_Sc2GeO5
_symmetry_space_group_name_H-M   'P 1'
_cell_length_a   11.02384800
_cell_length_b   10.59260600
_cell_length_c   10.76477823
_cell_angle_alpha   90.00000000
_cell_angle_beta   93.45248896
_cell_angle_gamma   90.00000000
_symmetry_Int_Tables_number   1
_chemical_formula_structural   Sc2GeO5
_chemical_formula_sum   'Sc24 Ge12 O60'
_cell_volume   1254.73552902
_cell_formula_units_Z   12
loop_
 _symmetry_equiv_pos_site_id
 _symmetry_equiv_pos_as_xyz
  1  'x, y, z'
loop_
 _atom_site_type_symbol
 _atom_site_label
 _atom_site_symmetry_multiplicity
 _atom_site_fract_x
 _atom_site_fract_y
 _atom_site_fract_z
 _atom_site_occupancy
  Sc  Sc0  1  0.34497550  0.64902450  0.06155900  1
  Sc  Sc1  1  0.65502450  0.64902450  0.43844100  1
  Sc  Sc2  1  0.65502450  0.35097550  0.93844100  1
  Sc  Sc3  1  0.34497550  0.35097550  0.56155900  1
  Sc  Sc4  1  0.01086050  0.64086050  0.42942400  1
  Sc  Sc5  1  0.98913950  0.64086050  0.07057600  1
  Sc  Sc6  1  0.98913950  0.35913950  0.57057600  1
  Sc  Sc7  1  0.01086050  0.35913950  0.92942400  1
  Sc  Sc8  1  0.17678200  0.81606800  0.24539400  1
  Sc  Sc9  1  0.82321800  0.81606800  0.25460600  1
  Sc  Sc10  1  0.82321800  0.18393200  0.75460600  1
  Sc  Sc11  1  0.17678200  0.18393200  0.74539400  1
  Sc  Sc12  1  0.84497550  0.14902450  0.06155900  1
  Sc  Sc13  1  0.15502450  0.14902450  0.43844100  1
  Sc  Sc14  1  0.15502450  0.85097550  0.93844100  1
  Sc  Sc15  1  0.84497550  0.85097550  0.56155900  1
  Sc  Sc16  1  0.51086050  0.14086050  0.42942400  1
  Sc  Sc17  1  0.48913950  0.14086050  0.07057600  1
  Sc  Sc18  1  0.48913950  0.85913950  0.57057600  1
  Sc  Sc19  1  0.51086050  0.85913950  0.92942400  1
  Sc  Sc20  1  0.67678200  0.31606800  0.24539400  1
  Sc  Sc21  1  0.32321800  0.31606800  0.25460600  1
  Sc  Sc22  1  0.32321800  0.68393200  0.75460600  1
  Sc  Sc23  1  0.67678200  0.68393200  0.74539400  1
  Ge  Ge24  1  0.00000000  0.35653200  0.25000000  1
  Ge  Ge25  1  0.00000000  0.64346800  0.75000000  1
  Ge  Ge26  1  0.33225250  0.60661350  0.45615800  1
  Ge  Ge27  1  0.66774750  0.60661350  0.04384200  1
  Ge  Ge28  1  0.66774750  0.39338650  0.54384200  1
  Ge  Ge29  1  0.33225250  0.39338650  0.95615800  1
  Ge  Ge30  1  0.50000000  0.85653200  0.25000000  1
  Ge  Ge31  1  0.50000000  0.14346800  0.75000000  1
  Ge  Ge32  1  0.83225250  0.10661350  0.45615800  1
  Ge  Ge33  1  0.16774750  0.10661350  0.04384200  1
  Ge  Ge34  1  0.16774750  0.89338650  0.54384200  1
  Ge  Ge35  1  0.83225250  0.89338650  0.95615800  1
  O  O36  1  0.19660300  0.67824200  0.39589600  1
  O  O37  1  0.80339700  0.67824200  0.10410400  1
  O  O38  1  0.80339700  0.32175800  0.60410400  1
  O  O39  1  0.19660300  0.32175800  0.89589600  1
  O  O40  1  0.67640350  0.45437950  0.38787000  1
  O  O41  1  0.32359650  0.45437950  0.11213000  1
  O  O42  1  0.32359650  0.54562050  0.61213000  1
  O  O43  1  0.67640350  0.54562050  0.88787000  1
  O  O44  1  0.65458750  0.45569850  0.11345700  1
  O  O45  1  0.34541250  0.45569850  0.38654300  1
  O  O46  1  0.34541250  0.54430150  0.88654300  1
  O  O47  1  0.65458750  0.54430150  0.61345700  1
  O  O48  1  0.16641000  0.70313500  0.07539200  1
  O  O49  1  0.83359000  0.70313500  0.42460800  1
  O  O50  1  0.83359000  0.29686500  0.92460800  1
  O  O51  1  0.16641000  0.29686500  0.57539200  1
  O  O52  1  0.86316850  0.26923150  0.21943900  1
  O  O53  1  0.13683150  0.26923150  0.28056100  1
  O  O54  1  0.96846650  0.80659350  0.95390200  1
  O  O55  1  0.03153350  0.80659350  0.54609800  1
  O  O56  1  0.03153350  0.19340650  0.04609800  1
  O  O57  1  0.96846650  0.19340650  0.45390200  1
  O  O58  1  0.00000000  0.26242800  0.75000000  1
  O  O59  1  0.00000000  0.73757200  0.25000000  1
  O  O60  1  0.98791150  0.54777150  0.88551800  1
  O  O61  1  0.01208850  0.54777150  0.61448200  1
  O  O62  1  0.01208850  0.45222850  0.11448200  1
  O  O63  1  0.98791150  0.45222850  0.38551800  1
  O  O64  1  0.86316850  0.73076850  0.71943900  1
  O  O65  1  0.13683150  0.73076850  0.78056100  1
  O  O66  1  0.69660300  0.17824200  0.39589600  1
  O  O67  1  0.30339700  0.17824200  0.10410400  1
  O  O68  1  0.30339700  0.82175800  0.60410400  1
  O  O69  1  0.69660300  0.82175800  0.89589600  1
  O  O70  1  0.17640350  0.95437950  0.38787000  1
  O  O71  1  0.82359650  0.95437950  0.11213000  1
  O  O72  1  0.82359650  0.04562050  0.61213000  1
  O  O73  1  0.17640350  0.04562050  0.88787000  1
  O  O74  1  0.15458750  0.95569850  0.11345700  1
  O  O75  1  0.84541250  0.95569850  0.38654300  1
  O  O76  1  0.84541250  0.04430150  0.88654300  1
  O  O77  1  0.15458750  0.04430150  0.61345700  1
  O  O78  1  0.66641000  0.20313500  0.07539200  1
  O  O79  1  0.33359000  0.20313500  0.42460800  1
  O  O80  1  0.33359000  0.79686500  0.92460800  1
  O  O81  1  0.66641000  0.79686500  0.57539200  1
  O  O82  1  0.36316850  0.76923150  0.21943900  1
  O  O83  1  0.63683150  0.76923150  0.28056100  1
  O  O84  1  0.46846650  0.30659350  0.95390200  1
  O  O85  1  0.53153350  0.30659350  0.54609800  1
  O  O86  1  0.53153350  0.69340650  0.04609800  1
  O  O87  1  0.46846650  0.69340650  0.45390200  1
  O  O88  1  0.50000000  0.76242800  0.75000000  1
  O  O89  1  0.50000000  0.23757200  0.25000000  1
  O  O90  1  0.48791150  0.04777150  0.88551800  1
  O  O91  1  0.51208850  0.04777150  0.61448200  1
  O  O92  1  0.51208850  0.95222850  0.11448200  1
  O  O93  1  0.48791150  0.95222850  0.38551800  1
  O  O94  1  0.36316850  0.23076850  0.71943900  1
  O  O95  1  0.63683150  0.23076850  0.78056100  1
