# generated using pymatgen
data_Rb4YbI6
_symmetry_space_group_name_H-M   'P 1'
_cell_length_a   14.40616231
_cell_length_b   14.40616231
_cell_length_c   17.74539434
_cell_angle_alpha   90.00000000
_cell_angle_beta   90.00000000
_cell_angle_gamma   120.00000000
_symmetry_Int_Tables_number   1
_chemical_formula_structural   Rb4YbI6
_chemical_formula_sum   'Rb24 Yb6 I36'
_cell_volume   3189.42866796
_cell_formula_units_Z   6
loop_
 _symmetry_equiv_pos_site_id
 _symmetry_equiv_pos_as_xyz
  1  'x, y, z'
loop_
 _atom_site_type_symbol
 _atom_site_label
 _atom_site_symmetry_multiplicity
 _atom_site_fract_x
 _atom_site_fract_y
 _atom_site_fract_z
 _atom_site_occupancy
  Rb  Rb0  1  0.33333333  0.66666667  0.91666667  1
  Rb  Rb1  1  0.33333333  0.66666667  0.41666667  1
  Rb  Rb2  1  0.38023400  0.38023400  0.25000000  1
  Rb  Rb3  1  0.00000000  0.61976600  0.25000000  1
  Rb  Rb4  1  0.61976600  0.00000000  0.25000000  1
  Rb  Rb5  1  0.28643267  0.95309933  0.08333333  1
  Rb  Rb6  1  0.66666667  0.71356733  0.08333333  1
  Rb  Rb7  1  0.04690067  0.33333333  0.08333333  1
  Rb  Rb8  1  0.00000000  0.00000000  0.25000000  1
  Rb  Rb9  1  0.00000000  0.00000000  0.75000000  1
  Rb  Rb10  1  0.04690067  0.71356733  0.58333333  1
  Rb  Rb11  1  0.66666667  0.95309933  0.58333333  1
  Rb  Rb12  1  0.28643267  0.33333333  0.58333333  1
  Rb  Rb13  1  0.95309933  0.28643267  0.41666667  1
  Rb  Rb14  1  0.33333333  0.04690067  0.41666667  1
  Rb  Rb15  1  0.71356733  0.66666667  0.41666667  1
  Rb  Rb16  1  0.66666667  0.33333333  0.58333333  1
  Rb  Rb17  1  0.66666667  0.33333333  0.08333333  1
  Rb  Rb18  1  0.71356733  0.04690067  0.91666667  1
  Rb  Rb19  1  0.33333333  0.28643267  0.91666667  1
  Rb  Rb20  1  0.95309933  0.66666667  0.91666667  1
  Rb  Rb21  1  0.61976600  0.61976600  0.75000000  1
  Rb  Rb22  1  0.00000000  0.38023400  0.75000000  1
  Rb  Rb23  1  0.38023400  0.00000000  0.75000000  1
  Yb  Yb24  1  0.00000000  0.00000000  0.00000000  1
  Yb  Yb25  1  0.33333333  0.66666667  0.16666667  1
  Yb  Yb26  1  0.66666667  0.33333333  0.33333333  1
  Yb  Yb27  1  0.00000000  0.00000000  0.50000000  1
  Yb  Yb28  1  0.33333333  0.66666667  0.66666667  1
  Yb  Yb29  1  0.66666667  0.33333333  0.83333333  1
  I  I30  1  0.49296200  0.85923400  0.06424000  1
  I  I31  1  0.47409933  0.17370467  0.23090667  1
  I  I32  1  0.82629533  0.30039467  0.23090667  1
  I  I33  1  0.17370467  0.47409933  0.26909333  1
  I  I34  1  0.69960533  0.52590067  0.23090667  1
  I  I35  1  0.30039467  0.82629533  0.26909333  1
  I  I36  1  0.52590067  0.69960533  0.26909333  1
  I  I37  1  0.36627200  0.50703800  0.06424000  1
  I  I38  1  0.84037133  0.03293867  0.10242667  1
  I  I39  1  0.19256733  0.15962867  0.10242667  1
  I  I40  1  0.96706133  0.80743267  0.10242667  1
  I  I41  1  0.14076600  0.63372800  0.06424000  1
  I  I42  1  0.15962867  0.19256733  0.39757333  1
  I  I43  1  0.14076600  0.50703800  0.56424000  1
  I  I44  1  0.49296200  0.63372800  0.56424000  1
  I  I45  1  0.84037133  0.80743267  0.60242667  1
  I  I46  1  0.36627200  0.85923400  0.56424000  1
  I  I47  1  0.96706133  0.15962867  0.60242667  1
  I  I48  1  0.19256733  0.03293867  0.60242667  1
  I  I49  1  0.03293867  0.84037133  0.39757333  1
  I  I50  1  0.50703800  0.36627200  0.43576000  1
  I  I51  1  0.85923400  0.49296200  0.43576000  1
  I  I52  1  0.63372800  0.14076600  0.43576000  1
  I  I53  1  0.80743267  0.96706133  0.39757333  1
  I  I54  1  0.82629533  0.52590067  0.73090667  1
  I  I55  1  0.80743267  0.84037133  0.89757333  1
  I  I56  1  0.15962867  0.96706133  0.89757333  1
  I  I57  1  0.50703800  0.14076600  0.93576000  1
  I  I58  1  0.03293867  0.19256733  0.89757333  1
  I  I59  1  0.63372800  0.49296200  0.93576000  1
  I  I60  1  0.85923400  0.36627200  0.93576000  1
  I  I61  1  0.69960533  0.17370467  0.73090667  1
  I  I62  1  0.17370467  0.69960533  0.76909333  1
  I  I63  1  0.52590067  0.82629533  0.76909333  1
  I  I64  1  0.30039467  0.47409933  0.76909333  1
  I  I65  1  0.47409933  0.30039467  0.73090667  1
