# generated using pymatgen
data_Ta3Br7
_symmetry_space_group_name_H-M   'P 1'
_cell_length_a   14.21578400
_cell_length_b   14.97347000
_cell_length_c   11.94127100
_cell_angle_alpha   90.00000000
_cell_angle_beta   90.00000000
_cell_angle_gamma   90.00000000
_symmetry_Int_Tables_number   1
_chemical_formula_structural   Ta3Br7
_chemical_formula_sum   'Ta24 Br56'
_cell_volume   2541.81435066
_cell_formula_units_Z   8
loop_
 _symmetry_equiv_pos_site_id
 _symmetry_equiv_pos_as_xyz
  1  'x, y, z'
loop_
 _atom_site_type_symbol
 _atom_site_label
 _atom_site_symmetry_multiplicity
 _atom_site_fract_x
 _atom_site_fract_y
 _atom_site_fract_z
 _atom_site_occupancy
  Ta  Ta0  1  0.50000000  0.88903600  0.92068900  1
  Ta  Ta1  1  0.50000000  0.61096400  0.42068900  1
  Ta  Ta2  1  0.50000000  0.38903600  0.57931100  1
  Ta  Ta3  1  0.50000000  0.11096400  0.07931100  1
  Ta  Ta4  1  0.39458650  0.95070550  0.10867000  1
  Ta  Ta5  1  0.10541350  0.04929450  0.60867000  1
  Ta  Ta6  1  0.10541350  0.95070550  0.39133000  1
  Ta  Ta7  1  0.39458650  0.04929450  0.89133000  1
  Ta  Ta8  1  0.60541350  0.04929450  0.89133000  1
  Ta  Ta9  1  0.89458650  0.95070550  0.39133000  1
  Ta  Ta10  1  0.89458650  0.04929450  0.60867000  1
  Ta  Ta11  1  0.60541350  0.95070550  0.10867000  1
  Ta  Ta12  1  0.00000000  0.38903600  0.92068900  1
  Ta  Ta13  1  0.00000000  0.11096400  0.42068900  1
  Ta  Ta14  1  0.00000000  0.88903600  0.57931100  1
  Ta  Ta15  1  0.00000000  0.61096400  0.07931100  1
  Ta  Ta16  1  0.89458650  0.45070550  0.10867000  1
  Ta  Ta17  1  0.60541350  0.54929450  0.60867000  1
  Ta  Ta18  1  0.60541350  0.45070550  0.39133000  1
  Ta  Ta19  1  0.89458650  0.54929450  0.89133000  1
  Ta  Ta20  1  0.10541350  0.54929450  0.89133000  1
  Ta  Ta21  1  0.39458650  0.45070550  0.39133000  1
  Ta  Ta22  1  0.39458650  0.54929450  0.60867000  1
  Ta  Ta23  1  0.10541350  0.45070550  0.10867000  1
  Br  Br24  1  0.25000000  0.87702000  0.25000000  1
  Br  Br25  1  0.25000000  0.12298000  0.75000000  1
  Br  Br26  1  0.75000000  0.12298000  0.75000000  1
  Br  Br27  1  0.75000000  0.87702000  0.25000000  1
  Br  Br28  1  0.37506550  0.78937150  0.02067200  1
  Br  Br29  1  0.62493450  0.71062850  0.52067200  1
  Br  Br30  1  0.62493450  0.28937150  0.47932800  1
  Br  Br31  1  0.37506550  0.21062850  0.97932800  1
  Br  Br32  1  0.62493450  0.21062850  0.97932800  1
  Br  Br33  1  0.37506550  0.28937150  0.47932800  1
  Br  Br34  1  0.37506550  0.71062850  0.52067200  1
  Br  Br35  1  0.62493450  0.78937150  0.02067200  1
  Br  Br36  1  0.50000000  0.87914900  0.26520300  1
  Br  Br37  1  0.50000000  0.62085100  0.76520300  1
  Br  Br38  1  0.50000000  0.37914900  0.23479700  1
  Br  Br39  1  0.50000000  0.12085100  0.73479700  1
  Br  Br40  1  0.75582000  0.00000000  0.00000000  1
  Br  Br41  1  0.74418000  0.00000000  0.50000000  1
  Br  Br42  1  0.24418000  0.00000000  0.00000000  1
  Br  Br43  1  0.25582000  0.00000000  0.50000000  1
  Br  Br44  1  0.62358100  0.09199200  0.23853200  1
  Br  Br45  1  0.87641900  0.90800800  0.73853200  1
  Br  Br46  1  0.87641900  0.09199200  0.26146800  1
  Br  Br47  1  0.62358100  0.90800800  0.76146800  1
  Br  Br48  1  0.37641900  0.90800800  0.76146800  1
  Br  Br49  1  0.12358100  0.09199200  0.26146800  1
  Br  Br50  1  0.12358100  0.90800800  0.73853200  1
  Br  Br51  1  0.37641900  0.09199200  0.23853200  1
  Br  Br52  1  0.75000000  0.37702000  0.25000000  1
  Br  Br53  1  0.75000000  0.62298000  0.75000000  1
  Br  Br54  1  0.25000000  0.62298000  0.75000000  1
  Br  Br55  1  0.25000000  0.37702000  0.25000000  1
  Br  Br56  1  0.87506550  0.28937150  0.02067200  1
  Br  Br57  1  0.12493450  0.21062850  0.52067200  1
  Br  Br58  1  0.12493450  0.78937150  0.47932800  1
  Br  Br59  1  0.87506550  0.71062850  0.97932800  1
  Br  Br60  1  0.12493450  0.71062850  0.97932800  1
  Br  Br61  1  0.87506550  0.78937150  0.47932800  1
  Br  Br62  1  0.87506550  0.21062850  0.52067200  1
  Br  Br63  1  0.12493450  0.28937150  0.02067200  1
  Br  Br64  1  0.00000000  0.37914900  0.26520300  1
  Br  Br65  1  0.00000000  0.12085100  0.76520300  1
  Br  Br66  1  0.00000000  0.87914900  0.23479700  1
  Br  Br67  1  0.00000000  0.62085100  0.73479700  1
  Br  Br68  1  0.25582000  0.50000000  0.00000000  1
  Br  Br69  1  0.24418000  0.50000000  0.50000000  1
  Br  Br70  1  0.74418000  0.50000000  0.00000000  1
  Br  Br71  1  0.75582000  0.50000000  0.50000000  1
  Br  Br72  1  0.12358100  0.59199200  0.23853200  1
  Br  Br73  1  0.37641900  0.40800800  0.73853200  1
  Br  Br74  1  0.37641900  0.59199200  0.26146800  1
  Br  Br75  1  0.12358100  0.40800800  0.76146800  1
  Br  Br76  1  0.87641900  0.40800800  0.76146800  1
  Br  Br77  1  0.62358100  0.59199200  0.26146800  1
  Br  Br78  1  0.62358100  0.40800800  0.73853200  1
  Br  Br79  1  0.87641900  0.59199200  0.23853200  1
