# generated using pymatgen
data_Si(Bi3O5)4
_symmetry_space_group_name_H-M   'P 1'
_cell_length_a   10.24600400
_cell_length_b   10.24600400
_cell_length_c   10.24600400
_cell_angle_alpha   90.00000000
_cell_angle_beta   90.00000000
_cell_angle_gamma   90.00000000
_symmetry_Int_Tables_number   1
_chemical_formula_structural   Si(Bi3O5)4
_chemical_formula_sum   'Si2 Bi24 O40'
_cell_volume   1075.63162670
_cell_formula_units_Z   2
loop_
 _symmetry_equiv_pos_site_id
 _symmetry_equiv_pos_as_xyz
  1  'x, y, z'
loop_
 _atom_site_type_symbol
 _atom_site_label
 _atom_site_symmetry_multiplicity
 _atom_site_fract_x
 _atom_site_fract_y
 _atom_site_fract_z
 _atom_site_occupancy
  Si  Si0  1  0.00000000  0.00000000  0.00000000  1
  Si  Si1  1  0.50000000  0.50000000  0.50000000  1
  Bi  Bi2  1  0.68242400  0.98496100  0.17651100  1
  Bi  Bi3  1  0.81757600  0.48496100  0.32348900  1
  Bi  Bi4  1  0.18242400  0.51503900  0.32348900  1
  Bi  Bi5  1  0.01503900  0.17651100  0.31757600  1
  Bi  Bi6  1  0.17651100  0.31757600  0.01503900  1
  Bi  Bi7  1  0.17651100  0.68242400  0.98496100  1
  Bi  Bi8  1  0.48496100  0.32348900  0.81757600  1
  Bi  Bi9  1  0.32348900  0.18242400  0.51503900  1
  Bi  Bi10  1  0.98496100  0.17651100  0.68242400  1
  Bi  Bi11  1  0.32348900  0.81757600  0.48496100  1
  Bi  Bi12  1  0.51503900  0.32348900  0.18242400  1
  Bi  Bi13  1  0.31757600  0.01503900  0.17651100  1
  Bi  Bi14  1  0.18242400  0.48496100  0.67651100  1
  Bi  Bi15  1  0.31757600  0.98496100  0.82348900  1
  Bi  Bi16  1  0.68242400  0.01503900  0.82348900  1
  Bi  Bi17  1  0.51503900  0.67651100  0.81757600  1
  Bi  Bi18  1  0.67651100  0.81757600  0.51503900  1
  Bi  Bi19  1  0.67651100  0.18242400  0.48496100  1
  Bi  Bi20  1  0.98496100  0.82348900  0.31757600  1
  Bi  Bi21  1  0.82348900  0.68242400  0.01503900  1
  Bi  Bi22  1  0.48496100  0.67651100  0.18242400  1
  Bi  Bi23  1  0.82348900  0.31757600  0.98496100  1
  Bi  Bi24  1  0.01503900  0.82348900  0.68242400  1
  Bi  Bi25  1  0.81757600  0.51503900  0.67651100  1
  O  O26  1  0.09411500  0.09411500  0.90588500  1
  O  O27  1  0.09411500  0.90588500  0.09411500  1
  O  O28  1  0.90588500  0.09411500  0.09411500  1
  O  O29  1  0.40588500  0.40588500  0.40588500  1
  O  O30  1  0.30279150  0.30279150  0.69720850  1
  O  O31  1  0.30279150  0.69720850  0.30279150  1
  O  O32  1  0.69720850  0.30279150  0.30279150  1
  O  O33  1  0.19720850  0.19720850  0.19720850  1
  O  O34  1  0.24746800  0.01219500  0.63127200  1
  O  O35  1  0.25253200  0.51219500  0.86872800  1
  O  O36  1  0.24746800  0.98780500  0.36872800  1
  O  O37  1  0.48780500  0.13127200  0.25253200  1
  O  O38  1  0.13127200  0.25253200  0.48780500  1
  O  O39  1  0.25253200  0.48780500  0.13127200  1
  O  O40  1  0.98780500  0.36872800  0.24746800  1
  O  O41  1  0.86872800  0.25253200  0.51219500  1
  O  O42  1  0.01219500  0.63127200  0.24746800  1
  O  O43  1  0.36872800  0.24746800  0.98780500  1
  O  O44  1  0.51219500  0.86872800  0.25253200  1
  O  O45  1  0.63127200  0.24746800  0.01219500  1
  O  O46  1  0.59411500  0.59411500  0.40588500  1
  O  O47  1  0.59411500  0.40588500  0.59411500  1
  O  O48  1  0.40588500  0.59411500  0.59411500  1
  O  O49  1  0.90588500  0.90588500  0.90588500  1
  O  O50  1  0.80279150  0.80279150  0.19720850  1
  O  O51  1  0.80279150  0.19720850  0.80279150  1
  O  O52  1  0.19720850  0.80279150  0.80279150  1
  O  O53  1  0.69720850  0.69720850  0.69720850  1
  O  O54  1  0.74746800  0.51219500  0.13127200  1
  O  O55  1  0.75253200  0.01219500  0.36872800  1
  O  O56  1  0.74746800  0.48780500  0.86872800  1
  O  O57  1  0.98780500  0.63127200  0.75253200  1
  O  O58  1  0.63127200  0.75253200  0.98780500  1
  O  O59  1  0.75253200  0.98780500  0.63127200  1
  O  O60  1  0.48780500  0.86872800  0.74746800  1
  O  O61  1  0.36872800  0.75253200  0.01219500  1
  O  O62  1  0.51219500  0.13127200  0.74746800  1
  O  O63  1  0.86872800  0.74746800  0.48780500  1
  O  O64  1  0.01219500  0.36872800  0.75253200  1
  O  O65  1  0.13127200  0.74746800  0.51219500  1
