# generated using pymatgen
data_In2S3
_symmetry_space_group_name_H-M   'P 1'
_cell_length_a   7.76641200
_cell_length_b   7.76641200
_cell_length_c   32.87469800
_cell_angle_alpha   90.00000000
_cell_angle_beta   90.00000000
_cell_angle_gamma   90.00000000
_symmetry_Int_Tables_number   1
_chemical_formula_structural   In2S3
_chemical_formula_sum   'In32 S48'
_cell_volume   1982.90826647
_cell_formula_units_Z   16
loop_
 _symmetry_equiv_pos_site_id
 _symmetry_equiv_pos_as_xyz
  1  'x, y, z'
loop_
 _atom_site_type_symbol
 _atom_site_label
 _atom_site_symmetry_multiplicity
 _atom_site_fract_x
 _atom_site_fract_y
 _atom_site_fract_z
 _atom_site_occupancy
  In  In0  1  0.00000000  0.50000000  0.42022800  1
  In  In1  1  0.00000000  0.00000000  0.17022800  1
  In  In2  1  0.50000000  0.50000000  0.32977200  1
  In  In3  1  0.00000000  0.50000000  0.07977200  1
  In  In4  1  0.73179100  0.50000000  0.20718900  1
  In  In5  1  0.00000000  0.23179100  0.29281100  1
  In  In6  1  0.00000000  0.76820900  0.29281100  1
  In  In7  1  0.73179100  0.00000000  0.04281100  1
  In  In8  1  0.26820900  0.00000000  0.04281100  1
  In  In9  1  0.50000000  0.23179100  0.45718900  1
  In  In10  1  0.50000000  0.76820900  0.45718900  1
  In  In11  1  0.26820900  0.50000000  0.20718900  1
  In  In12  1  0.25000000  0.00000000  0.37500000  1
  In  In13  1  0.50000000  0.25000000  0.12500000  1
  In  In14  1  0.50000000  0.75000000  0.12500000  1
  In  In15  1  0.75000000  0.00000000  0.37500000  1
  In  In16  1  0.50000000  0.00000000  0.92022800  1
  In  In17  1  0.50000000  0.50000000  0.67022800  1
  In  In18  1  0.00000000  0.00000000  0.82977200  1
  In  In19  1  0.50000000  0.00000000  0.57977200  1
  In  In20  1  0.23179100  0.00000000  0.70718900  1
  In  In21  1  0.50000000  0.73179100  0.79281100  1
  In  In22  1  0.50000000  0.26820900  0.79281100  1
  In  In23  1  0.23179100  0.50000000  0.54281100  1
  In  In24  1  0.76820900  0.50000000  0.54281100  1
  In  In25  1  0.00000000  0.73179100  0.95718900  1
  In  In26  1  0.00000000  0.26820900  0.95718900  1
  In  In27  1  0.76820900  0.00000000  0.70718900  1
  In  In28  1  0.75000000  0.50000000  0.87500000  1
  In  In29  1  0.00000000  0.75000000  0.62500000  1
  In  In30  1  0.00000000  0.25000000  0.62500000  1
  In  In31  1  0.25000000  0.50000000  0.87500000  1
  S  S32  1  0.77250100  0.50000000  0.28800400  1
  S  S33  1  0.00000000  0.27250100  0.21199600  1
  S  S34  1  0.00000000  0.72749900  0.21199600  1
  S  S35  1  0.27250100  0.50000000  0.46199600  1
  S  S36  1  0.72749900  0.50000000  0.46199600  1
  S  S37  1  0.00000000  0.77250100  0.03800400  1
  S  S38  1  0.00000000  0.22749900  0.03800400  1
  S  S39  1  0.22749900  0.50000000  0.28800400  1
  S  S40  1  0.26304550  0.00000000  0.45279650  1
  S  S41  1  0.50000000  0.76304550  0.04720350  1
  S  S42  1  0.50000000  0.23695450  0.04720350  1
  S  S43  1  0.76304550  0.00000000  0.29720350  1
  S  S44  1  0.23695450  0.00000000  0.29720350  1
  S  S45  1  0.50000000  0.26304550  0.20279650  1
  S  S46  1  0.50000000  0.73695450  0.20279650  1
  S  S47  1  0.73695450  0.00000000  0.45279650  1
  S  S48  1  0.25765450  0.50000000  0.12568850  1
  S  S49  1  0.50000000  0.75765450  0.37568850  1
  S  S50  1  0.50000000  0.24234550  0.37568850  1
  S  S51  1  0.25765450  0.00000000  0.12431150  1
  S  S52  1  0.74234550  0.00000000  0.12431150  1
  S  S53  1  0.00000000  0.75765450  0.37431150  1
  S  S54  1  0.00000000  0.24234550  0.37431150  1
  S  S55  1  0.74234550  0.50000000  0.12568850  1
  S  S56  1  0.27250100  0.00000000  0.78800400  1
  S  S57  1  0.50000000  0.77250100  0.71199600  1
  S  S58  1  0.50000000  0.22749900  0.71199600  1
  S  S59  1  0.77250100  0.00000000  0.96199600  1
  S  S60  1  0.22749900  0.00000000  0.96199600  1
  S  S61  1  0.50000000  0.27250100  0.53800400  1
  S  S62  1  0.50000000  0.72749900  0.53800400  1
  S  S63  1  0.72749900  0.00000000  0.78800400  1
  S  S64  1  0.76304550  0.50000000  0.95279650  1
  S  S65  1  0.00000000  0.26304550  0.54720350  1
  S  S66  1  0.00000000  0.73695450  0.54720350  1
  S  S67  1  0.26304550  0.50000000  0.79720350  1
  S  S68  1  0.73695450  0.50000000  0.79720350  1
  S  S69  1  0.00000000  0.76304550  0.70279650  1
  S  S70  1  0.00000000  0.23695450  0.70279650  1
  S  S71  1  0.23695450  0.50000000  0.95279650  1
  S  S72  1  0.75765450  0.00000000  0.62568850  1
  S  S73  1  0.00000000  0.25765450  0.87568850  1
  S  S74  1  0.00000000  0.74234550  0.87568850  1
  S  S75  1  0.75765450  0.50000000  0.62431150  1
  S  S76  1  0.24234550  0.50000000  0.62431150  1
  S  S77  1  0.50000000  0.25765450  0.87431150  1
  S  S78  1  0.50000000  0.74234550  0.87431150  1
  S  S79  1  0.24234550  0.00000000  0.62568850  1
