# generated using pymatgen
data_LiYb2Cl5
_symmetry_space_group_name_H-M   'P 1'
_cell_length_a   15.16224000
_cell_length_b   6.48639400
_cell_length_c   7.07439683
_cell_angle_alpha   90.00000000
_cell_angle_beta   95.44528551
_cell_angle_gamma   90.00000000
_symmetry_Int_Tables_number   1
_chemical_formula_structural   LiYb2Cl5
_chemical_formula_sum   'Li4 Yb8 Cl20'
_cell_volume   692.61488535
_cell_formula_units_Z   4
loop_
 _symmetry_equiv_pos_site_id
 _symmetry_equiv_pos_as_xyz
  1  'x, y, z'
loop_
 _atom_site_type_symbol
 _atom_site_label
 _atom_site_symmetry_multiplicity
 _atom_site_fract_x
 _atom_site_fract_y
 _atom_site_fract_z
 _atom_site_occupancy
  Li  Li0  1  0.75000000  0.25000000  0.00000000  1
  Li  Li1  1  0.75000000  0.75000000  0.50000000  1
  Li  Li2  1  0.25000000  0.75000000  0.00000000  1
  Li  Li3  1  0.25000000  0.25000000  0.50000000  1
  Yb  Yb4  1  0.60303450  0.27217950  0.56922600  1
  Yb  Yb5  1  0.60303450  0.72782050  0.06922600  1
  Yb  Yb6  1  0.89696550  0.22782050  0.43077400  1
  Yb  Yb7  1  0.89696550  0.77217950  0.93077400  1
  Yb  Yb8  1  0.10303450  0.77217950  0.56922600  1
  Yb  Yb9  1  0.10303450  0.22782050  0.06922600  1
  Yb  Yb10  1  0.39696550  0.72782050  0.43077400  1
  Yb  Yb11  1  0.39696550  0.27217950  0.93077400  1
  Cl  Cl12  1  0.59059800  0.88242500  0.42346800  1
  Cl  Cl13  1  0.00000000  0.93567400  0.25000000  1
  Cl  Cl14  1  0.00000000  0.06432600  0.75000000  1
  Cl  Cl15  1  0.71874250  0.42683050  0.31767600  1
  Cl  Cl16  1  0.78125750  0.07316950  0.68232400  1
  Cl  Cl17  1  0.71874250  0.57316950  0.81767600  1
  Cl  Cl18  1  0.78125750  0.92683050  0.18232400  1
  Cl  Cl19  1  0.90940200  0.61757500  0.57653200  1
  Cl  Cl20  1  0.59059800  0.11757500  0.92346800  1
  Cl  Cl21  1  0.90940200  0.38242500  0.07653200  1
  Cl  Cl22  1  0.09059800  0.38242500  0.42346800  1
  Cl  Cl23  1  0.50000000  0.43567400  0.25000000  1
  Cl  Cl24  1  0.50000000  0.56432600  0.75000000  1
  Cl  Cl25  1  0.21874250  0.92683050  0.31767600  1
  Cl  Cl26  1  0.28125750  0.57316950  0.68232400  1
  Cl  Cl27  1  0.21874250  0.07316950  0.81767600  1
  Cl  Cl28  1  0.28125750  0.42683050  0.18232400  1
  Cl  Cl29  1  0.40940200  0.11757500  0.57653200  1
  Cl  Cl30  1  0.09059800  0.61757500  0.92346800  1
  Cl  Cl31  1  0.40940200  0.88242500  0.07653200  1
