# generated using pymatgen
data_Rb3H(SeO4)2
_symmetry_space_group_name_H-M   'P 1'
_cell_length_a   15.88437600
_cell_length_b   6.23516000
_cell_length_c   10.68957198
_cell_angle_alpha   90.00000000
_cell_angle_beta   102.93732730
_cell_angle_gamma   90.00000000
_symmetry_Int_Tables_number   1
_chemical_formula_structural   Rb3H(SeO4)2
_chemical_formula_sum   'Rb12 H4 Se8 O32'
_cell_volume   1031.83774449
_cell_formula_units_Z   4
loop_
 _symmetry_equiv_pos_site_id
 _symmetry_equiv_pos_as_xyz
  1  'x, y, z'
loop_
 _atom_site_type_symbol
 _atom_site_label
 _atom_site_symmetry_multiplicity
 _atom_site_fract_x
 _atom_site_fract_y
 _atom_site_fract_z
 _atom_site_occupancy
  Rb  Rb0  1  0.80794650  0.72924350  0.84780500  1
  Rb  Rb1  1  0.69205350  0.22924350  0.65219500  1
  Rb  Rb2  1  0.69205350  0.77075650  0.15219500  1
  Rb  Rb3  1  0.80794650  0.27075650  0.34780500  1
  Rb  Rb4  1  0.00000000  0.75336300  0.25000000  1
  Rb  Rb5  1  0.00000000  0.24663700  0.75000000  1
  Rb  Rb6  1  0.30794650  0.22924350  0.84780500  1
  Rb  Rb7  1  0.19205350  0.72924350  0.65219500  1
  Rb  Rb8  1  0.19205350  0.27075650  0.15219500  1
  Rb  Rb9  1  0.30794650  0.77075650  0.34780500  1
  Rb  Rb10  1  0.50000000  0.25336300  0.25000000  1
  Rb  Rb11  1  0.50000000  0.74663700  0.75000000  1
  H  H12  1  0.00000000  0.00000000  0.50000000  1
  H  H13  1  0.00000000  0.00000000  0.00000000  1
  H  H14  1  0.50000000  0.50000000  0.50000000  1
  H  H15  1  0.50000000  0.50000000  0.00000000  1
  Se  Se16  1  0.88387250  0.22200950  0.03666400  1
  Se  Se17  1  0.61612750  0.72200950  0.46333600  1
  Se  Se18  1  0.61612750  0.27799050  0.96333600  1
  Se  Se19  1  0.88387250  0.77799050  0.53666400  1
  Se  Se20  1  0.38387250  0.72200950  0.03666400  1
  Se  Se21  1  0.11612750  0.22200950  0.46333600  1
  Se  Se22  1  0.11612750  0.77799050  0.96333600  1
  Se  Se23  1  0.38387250  0.27799050  0.53666400  1
  O  O24  1  0.87459300  0.44945900  0.11302800  1
  O  O25  1  0.62540700  0.94945900  0.38697200  1
  O  O26  1  0.62540700  0.05054100  0.88697200  1
  O  O27  1  0.87459300  0.55054100  0.61302800  1
  O  O28  1  0.84498750  0.24091650  0.87876300  1
  O  O29  1  0.65501250  0.74091650  0.62123700  1
  O  O30  1  0.65501250  0.25908350  0.12123700  1
  O  O31  1  0.84498750  0.75908350  0.37876300  1
  O  O32  1  0.84282450  0.98718950  0.59951400  1
  O  O33  1  0.65717550  0.48718950  0.90048600  1
  O  O34  1  0.65717550  0.51281050  0.40048600  1
  O  O35  1  0.84282450  0.01281050  0.09951400  1
  O  O36  1  0.99353300  0.83182400  0.55623700  1
  O  O37  1  0.50646700  0.33182400  0.94376300  1
  O  O38  1  0.50646700  0.66817600  0.44376300  1
  O  O39  1  0.99353300  0.16817600  0.05623700  1
  O  O40  1  0.37459300  0.94945900  0.11302800  1
  O  O41  1  0.12540700  0.44945900  0.38697200  1
  O  O42  1  0.12540700  0.55054100  0.88697200  1
  O  O43  1  0.37459300  0.05054100  0.61302800  1
  O  O44  1  0.34498750  0.74091650  0.87876300  1
  O  O45  1  0.15501250  0.24091650  0.62123700  1
  O  O46  1  0.15501250  0.75908350  0.12123700  1
  O  O47  1  0.34498750  0.25908350  0.37876300  1
  O  O48  1  0.34282450  0.48718950  0.59951400  1
  O  O49  1  0.15717550  0.98718950  0.90048600  1
  O  O50  1  0.15717550  0.01281050  0.40048600  1
  O  O51  1  0.34282450  0.51281050  0.09951400  1
  O  O52  1  0.49353300  0.33182400  0.55623700  1
  O  O53  1  0.00646700  0.83182400  0.94376300  1
  O  O54  1  0.00646700  0.16817600  0.44376300  1
  O  O55  1  0.49353300  0.66817600  0.05623700  1
