# generated using pymatgen
data_Mg(H2N)2
_symmetry_space_group_name_H-M   'P 1'
_cell_length_a   10.50319400
_cell_length_b   10.50319400
_cell_length_c   20.71868800
_cell_angle_alpha   90.00000000
_cell_angle_beta   90.00000000
_cell_angle_gamma   90.00000000
_symmetry_Int_Tables_number   1
_chemical_formula_structural   Mg(H2N)2
_chemical_formula_sum   'Mg32 H128 N64'
_cell_volume   2285.62524864
_cell_formula_units_Z   32
loop_
 _symmetry_equiv_pos_site_id
 _symmetry_equiv_pos_as_xyz
  1  'x, y, z'
loop_
 _atom_site_type_symbol
 _atom_site_label
 _atom_site_symmetry_multiplicity
 _atom_site_fract_x
 _atom_site_fract_y
 _atom_site_fract_z
 _atom_site_occupancy
  Mg  Mg0  1  0.87167250  0.10848850  0.06073950  1
  Mg  Mg1  1  0.10848850  0.87167250  0.43926050  1
  Mg  Mg2  1  0.89151150  0.12832750  0.43926050  1
  Mg  Mg3  1  0.37167250  0.89151150  0.18926050  1
  Mg  Mg4  1  0.62832750  0.10848850  0.18926050  1
  Mg  Mg5  1  0.89151150  0.37167250  0.31073950  1
  Mg  Mg6  1  0.10848850  0.62832750  0.31073950  1
  Mg  Mg7  1  0.12832750  0.89151150  0.06073950  1
  Mg  Mg8  1  0.12832750  0.39151150  0.18926050  1
  Mg  Mg9  1  0.39151150  0.12832750  0.31073950  1
  Mg  Mg10  1  0.60848850  0.87167250  0.31073950  1
  Mg  Mg11  1  0.62832750  0.60848850  0.06073950  1
  Mg  Mg12  1  0.37167250  0.39151150  0.06073950  1
  Mg  Mg13  1  0.60848850  0.62832750  0.43926050  1
  Mg  Mg14  1  0.39151150  0.37167250  0.43926050  1
  Mg  Mg15  1  0.87167250  0.60848850  0.18926050  1
  Mg  Mg16  1  0.37167250  0.60848850  0.56073950  1
  Mg  Mg17  1  0.60848850  0.37167250  0.93926050  1
  Mg  Mg18  1  0.39151150  0.62832750  0.93926050  1
  Mg  Mg19  1  0.87167250  0.39151150  0.68926050  1
  Mg  Mg20  1  0.12832750  0.60848850  0.68926050  1
  Mg  Mg21  1  0.39151150  0.87167250  0.81073950  1
  Mg  Mg22  1  0.60848850  0.12832750  0.81073950  1
  Mg  Mg23  1  0.62832750  0.39151150  0.56073950  1
  Mg  Mg24  1  0.62832750  0.89151150  0.68926050  1
  Mg  Mg25  1  0.89151150  0.62832750  0.81073950  1
  Mg  Mg26  1  0.10848850  0.37167250  0.81073950  1
  Mg  Mg27  1  0.12832750  0.10848850  0.56073950  1
  Mg  Mg28  1  0.87167250  0.89151150  0.56073950  1
  Mg  Mg29  1  0.10848850  0.12832750  0.93926050  1
  Mg  Mg30  1  0.89151150  0.87167250  0.93926050  1
  Mg  Mg31  1  0.37167250  0.10848850  0.68926050  1
  H  H32  1  0.20651800  0.53272600  0.47289900  1
  H  H33  1  0.53272600  0.20651800  0.02710100  1
  H  H34  1  0.46727400  0.79348200  0.02710100  1
  H  H35  1  0.20651800  0.96727400  0.27710100  1
  H  H36  1  0.79348200  0.03272600  0.27710100  1
  H  H37  1  0.96727400  0.20651800  0.22289900  1
  H  H38  1  0.03272600  0.79348200  0.22289900  1
  H  H39  1  0.79348200  0.46727400  0.47289900  1
  H  H40  1  0.29348200  0.46727400  0.27710100  1
  H  H41  1  0.46727400  0.29348200  0.22289900  1
  H  H42  1  0.53272600  0.70651800  0.22289900  1
  H  H43  1  0.29348200  0.03272600  0.47289900  1
  H  H44  1  0.70651800  0.96727400  0.47289900  1
  H  H45  1  0.03272600  0.29348200  0.02710100  1
  H  H46  1  0.96727400  0.70651800  0.02710100  1
  H  H47  1  0.70651800  0.53272600  0.27710100  1
  H  H48  1  0.71714750  0.92375250  0.02685750  1
  H  H49  1  0.92375250  0.71714750  0.47314250  1
  H  H50  1  0.07624750  0.28285250  0.47314250  1
  H  H51  1  0.21714750  0.07624750  0.22314250  1
  H  H52  1  0.78285250  0.92375250  0.22314250  1
  H  H53  1  0.07624750  0.21714750  0.27685750  1
  H  H54  1  0.92375250  0.78285250  0.27685750  1
  H  H55  1  0.28285250  0.07624750  0.02685750  1
  H  H56  1  0.28285250  0.57624750  0.22314250  1
  H  H57  1  0.57624750  0.28285250  0.27685750  1
  H  H58  1  0.42375250  0.71714750  0.27685750  1
  H  H59  1  0.23074950  0.30731450  0.34931150  1
  H  H60  1  0.78285250  0.42375250  0.02685750  1
  H  H61  1  0.42375250  0.78285250  0.47314250  1
  H  H62  1  0.57624750  0.21714750  0.47314250  1
  H  H63  1  0.71714750  0.42375250  0.22314250  1
  H  H64  1  0.05785950  0.45005350  0.39594650  1
  H  H65  1  0.45005350  0.05785950  0.10405350  1
  H  H66  1  0.54994650  0.94214050  0.10405350  1
  H  H67  1  0.05785950  0.04994650  0.35405350  1
  H  H68  1  0.94214050  0.95005350  0.35405350  1
  H  H69  1  0.04994650  0.05785950  0.14594650  1
  H  H70  1  0.95005350  0.94214050  0.14594650  1
  H  H71  1  0.94214050  0.54994650  0.39594650  1
  H  H72  1  0.44214050  0.54994650  0.35405350  1
  H  H73  1  0.54994650  0.44214050  0.14594650  1
  H  H74  1  0.45005350  0.55785950  0.14594650  1
  H  H75  1  0.44214050  0.95005350  0.39594650  1
  H  H76  1  0.55785950  0.04994650  0.39594650  1
  H  H77  1  0.95005350  0.44214050  0.10405350  1
  H  H78  1  0.04994650  0.55785950  0.10405350  1
  H  H79  1  0.55785950  0.45005350  0.35405350  1
  H  H80  1  0.73074950  0.30731450  0.40068850  1
  H  H81  1  0.19268550  0.73074950  0.15068850  1
  H  H82  1  0.80731450  0.26925050  0.15068850  1
  H  H83  1  0.73074950  0.19268550  0.34931150  1
  H  H84  1  0.26925050  0.80731450  0.34931150  1
  H  H85  1  0.30731450  0.73074950  0.09931150  1
  H  H86  1  0.69268550  0.26925050  0.09931150  1
  H  H87  1  0.26925050  0.69268550  0.40068850  1
  H  H88  1  0.76925050  0.69268550  0.34931150  1
  H  H89  1  0.80731450  0.76925050  0.09931150  1
  H  H90  1  0.19268550  0.23074950  0.09931150  1
  H  H91  1  0.76925050  0.80731450  0.40068850  1
  H  H92  1  0.23074950  0.19268550  0.40068850  1
  H  H93  1  0.69268550  0.76925050  0.15068850  1
  H  H94  1  0.30731450  0.23074950  0.15068850  1
  H  H95  1  0.21714750  0.57624750  0.02685750  1
  H  H96  1  0.70651800  0.03272600  0.97289900  1
  H  H97  1  0.03272600  0.70651800  0.52710100  1
  H  H98  1  0.96727400  0.29348200  0.52710100  1
  H  H99  1  0.70651800  0.46727400  0.77710100  1
  H  H100  1  0.29348200  0.53272600  0.77710100  1
  H  H101  1  0.46727400  0.70651800  0.72289900  1
  H  H102  1  0.53272600  0.29348200  0.72289900  1
  H  H103  1  0.29348200  0.96727400  0.97289900  1
  H  H104  1  0.79348200  0.96727400  0.77710100  1
  H  H105  1  0.96727400  0.79348200  0.72289900  1
  H  H106  1  0.03272600  0.20651800  0.72289900  1
  H  H107  1  0.79348200  0.53272600  0.97289900  1
  H  H108  1  0.20651800  0.46727400  0.97289900  1
  H  H109  1  0.53272600  0.79348200  0.52710100  1
  H  H110  1  0.46727400  0.20651800  0.52710100  1
  H  H111  1  0.20651800  0.03272600  0.77710100  1
  H  H112  1  0.21714750  0.42375250  0.52685750  1
  H  H113  1  0.42375250  0.21714750  0.97314250  1
  H  H114  1  0.57624750  0.78285250  0.97314250  1
  H  H115  1  0.71714750  0.57624750  0.72314250  1
  H  H116  1  0.28285250  0.42375250  0.72314250  1
  H  H117  1  0.57624750  0.71714750  0.77685750  1
  H  H118  1  0.42375250  0.28285250  0.77685750  1
  H  H119  1  0.78285250  0.57624750  0.52685750  1
  H  H120  1  0.78285250  0.07624750  0.72314250  1
  H  H121  1  0.07624750  0.78285250  0.77685750  1
  H  H122  1  0.92375250  0.21714750  0.77685750  1
  H  H123  1  0.73074950  0.80731450  0.84931150  1
  H  H124  1  0.28285250  0.92375250  0.52685750  1
  H  H125  1  0.92375250  0.28285250  0.97314250  1
  H  H126  1  0.07624750  0.71714750  0.97314250  1
  H  H127  1  0.21714750  0.92375250  0.72314250  1
  H  H128  1  0.55785950  0.95005350  0.89594650  1
  H  H129  1  0.95005350  0.55785950  0.60405350  1
  H  H130  1  0.04994650  0.44214050  0.60405350  1
  H  H131  1  0.55785950  0.54994650  0.85405350  1
  H  H132  1  0.44214050  0.45005350  0.85405350  1
  H  H133  1  0.54994650  0.55785950  0.64594650  1
  H  H134  1  0.45005350  0.44214050  0.64594650  1
  H  H135  1  0.44214050  0.04994650  0.89594650  1
  H  H136  1  0.94214050  0.04994650  0.85405350  1
  H  H137  1  0.04994650  0.94214050  0.64594650  1
  H  H138  1  0.95005350  0.05785950  0.64594650  1
  H  H139  1  0.94214050  0.45005350  0.89594650  1
  H  H140  1  0.05785950  0.54994650  0.89594650  1
  H  H141  1  0.45005350  0.94214050  0.60405350  1
  H  H142  1  0.54994650  0.05785950  0.60405350  1
  H  H143  1  0.05785950  0.95005350  0.85405350  1
  H  H144  1  0.23074950  0.80731450  0.90068850  1
  H  H145  1  0.69268550  0.23074950  0.65068850  1
  H  H146  1  0.30731450  0.76925050  0.65068850  1
  H  H147  1  0.23074950  0.69268550  0.84931150  1
  H  H148  1  0.76925050  0.30731450  0.84931150  1
  H  H149  1  0.80731450  0.23074950  0.59931150  1
  H  H150  1  0.19268550  0.76925050  0.59931150  1
  H  H151  1  0.76925050  0.19268550  0.90068850  1
  H  H152  1  0.26925050  0.19268550  0.84931150  1
  H  H153  1  0.30731450  0.26925050  0.59931150  1
  H  H154  1  0.69268550  0.73074950  0.59931150  1
  H  H155  1  0.26925050  0.30731450  0.90068850  1
  H  H156  1  0.73074950  0.69268550  0.90068850  1
  H  H157  1  0.19268550  0.26925050  0.65068850  1
  H  H158  1  0.80731450  0.73074950  0.65068850  1
  H  H159  1  0.71714750  0.07624750  0.52685750  1
  N  N160  1  0.01703550  0.27271250  0.24925950  1
  N  N161  1  0.27271250  0.01703550  0.25074050  1
  N  N162  1  0.72728750  0.98296450  0.25074050  1
  N  N163  1  0.51703550  0.72728750  0.00074050  1
  N  N164  1  0.48296450  0.27271250  0.00074050  1
  N  N165  1  0.72728750  0.51703550  0.49925950  1
  N  N166  1  0.27271250  0.48296450  0.49925950  1
  N  N167  1  0.98296450  0.72728750  0.24925950  1
  N  N168  1  0.98296450  0.22728750  0.00074050  1
  N  N169  1  0.22728750  0.98296450  0.49925950  1
  N  N170  1  0.77271250  0.01703550  0.49925950  1
  N  N171  1  0.48296450  0.77271250  0.24925950  1
  N  N172  1  0.51703550  0.22728750  0.24925950  1
  N  N173  1  0.77271250  0.48296450  0.25074050  1
  N  N174  1  0.22728750  0.51703550  0.25074050  1
  N  N175  1  0.01703550  0.77271250  0.00074050  1
  N  N176  1  0.50000000  0.00000000  0.13490650  1
  N  N177  1  0.00000000  0.00000000  0.38490650  1
  N  N178  1  0.00000000  0.00000000  0.11509350  1
  N  N179  1  0.00000000  0.50000000  0.36509350  1
  N  N180  1  0.50000000  0.50000000  0.11509350  1
  N  N181  1  0.50000000  0.00000000  0.36509350  1
  N  N182  1  0.00000000  0.50000000  0.13490650  1
  N  N183  1  0.50000000  0.50000000  0.38490650  1
  N  N184  1  0.29167050  0.25000000  0.37500000  1
  N  N185  1  0.25000000  0.29167050  0.12500000  1
  N  N186  1  0.75000000  0.70832950  0.12500000  1
  N  N187  1  0.70832950  0.75000000  0.37500000  1
  N  N188  1  0.20832950  0.75000000  0.37500000  1
  N  N189  1  0.75000000  0.20832950  0.12500000  1
  N  N190  1  0.25000000  0.79167050  0.12500000  1
  N  N191  1  0.79167050  0.25000000  0.37500000  1
  N  N192  1  0.51703550  0.77271250  0.74925950  1
  N  N193  1  0.77271250  0.51703550  0.75074050  1
  N  N194  1  0.22728750  0.48296450  0.75074050  1
  N  N195  1  0.01703550  0.22728750  0.50074050  1
  N  N196  1  0.98296450  0.77271250  0.50074050  1
  N  N197  1  0.22728750  0.01703550  0.99925950  1
  N  N198  1  0.77271250  0.98296450  0.99925950  1
  N  N199  1  0.48296450  0.22728750  0.74925950  1
  N  N200  1  0.48296450  0.72728750  0.50074050  1
  N  N201  1  0.72728750  0.48296450  0.99925950  1
  N  N202  1  0.27271250  0.51703550  0.99925950  1
  N  N203  1  0.98296450  0.27271250  0.74925950  1
  N  N204  1  0.01703550  0.72728750  0.74925950  1
  N  N205  1  0.27271250  0.98296450  0.75074050  1
  N  N206  1  0.72728750  0.01703550  0.75074050  1
  N  N207  1  0.51703550  0.27271250  0.50074050  1
  N  N208  1  0.00000000  0.50000000  0.63490650  1
  N  N209  1  0.50000000  0.50000000  0.88490650  1
  N  N210  1  0.50000000  0.50000000  0.61509350  1
  N  N211  1  0.50000000  0.00000000  0.86509350  1
  N  N212  1  0.00000000  0.00000000  0.61509350  1
  N  N213  1  0.00000000  0.50000000  0.86509350  1
  N  N214  1  0.50000000  0.00000000  0.63490650  1
  N  N215  1  0.00000000  0.00000000  0.88490650  1
  N  N216  1  0.79167050  0.75000000  0.87500000  1
  N  N217  1  0.75000000  0.79167050  0.62500000  1
  N  N218  1  0.25000000  0.20832950  0.62500000  1
  N  N219  1  0.20832950  0.25000000  0.87500000  1
  N  N220  1  0.70832950  0.25000000  0.87500000  1
  N  N221  1  0.25000000  0.70832950  0.62500000  1
  N  N222  1  0.75000000  0.29167050  0.62500000  1
  N  N223  1  0.29167050  0.75000000  0.87500000  1
