# generated using pymatgen
data_In7Br9
_symmetry_space_group_name_H-M   'P 1'
_cell_length_a   12.92131100
_cell_length_b   12.92131100
_cell_length_c   12.92131100
_cell_angle_alpha   90.00000000
_cell_angle_beta   90.00000000
_cell_angle_gamma   90.00000000
_symmetry_Int_Tables_number   1
_chemical_formula_structural   In7Br9
_chemical_formula_sum   'In28 Br36'
_cell_volume   2157.34567615
_cell_formula_units_Z   4
loop_
 _symmetry_equiv_pos_site_id
 _symmetry_equiv_pos_as_xyz
  1  'x, y, z'
loop_
 _atom_site_type_symbol
 _atom_site_label
 _atom_site_symmetry_multiplicity
 _atom_site_fract_x
 _atom_site_fract_y
 _atom_site_fract_z
 _atom_site_occupancy
  In  In0  1  0.81766700  0.43311000  0.32849300  1
  In  In1  1  0.31766700  0.06689000  0.67150700  1
  In  In2  1  0.18233300  0.93311000  0.17150700  1
  In  In3  1  0.06689000  0.67150700  0.31766700  1
  In  In4  1  0.17150700  0.18233300  0.93311000  1
  In  In5  1  0.67150700  0.31766700  0.06689000  1
  In  In6  1  0.43311000  0.32849300  0.81766700  1
  In  In7  1  0.32849300  0.81766700  0.43311000  1
  In  In8  1  0.93311000  0.17150700  0.18233300  1
  In  In9  1  0.56689000  0.82849300  0.68233300  1
  In  In10  1  0.82849300  0.68233300  0.56689000  1
  In  In11  1  0.68233300  0.56689000  0.82849300  1
  In  In12  1  0.18233300  0.56689000  0.67150700  1
  In  In13  1  0.68233300  0.93311000  0.32849300  1
  In  In14  1  0.81766700  0.06689000  0.82849300  1
  In  In15  1  0.93311000  0.32849300  0.68233300  1
  In  In16  1  0.82849300  0.81766700  0.06689000  1
  In  In17  1  0.32849300  0.68233300  0.93311000  1
  In  In18  1  0.56689000  0.67150700  0.18233300  1
  In  In19  1  0.67150700  0.18233300  0.56689000  1
  In  In20  1  0.06689000  0.82849300  0.81766700  1
  In  In21  1  0.43311000  0.17150700  0.31766700  1
  In  In22  1  0.17150700  0.31766700  0.43311000  1
  In  In23  1  0.31766700  0.43311000  0.17150700  1
  In  In24  1  0.50000000  0.50000000  0.50000000  1
  In  In25  1  0.50000000  0.00000000  0.00000000  1
  In  In26  1  0.00000000  0.00000000  0.50000000  1
  In  In27  1  0.00000000  0.50000000  0.00000000  1
  Br  Br28  1  0.94765000  0.19994300  0.45482800  1
  Br  Br29  1  0.44765000  0.30005700  0.54517200  1
  Br  Br30  1  0.05235000  0.69994300  0.04517200  1
  Br  Br31  1  0.30005700  0.54517200  0.44765000  1
  Br  Br32  1  0.04517200  0.05235000  0.69994300  1
  Br  Br33  1  0.54517200  0.44765000  0.30005700  1
  Br  Br34  1  0.19994300  0.45482800  0.94765000  1
  Br  Br35  1  0.45482800  0.94765000  0.19994300  1
  Br  Br36  1  0.69994300  0.04517200  0.05235000  1
  Br  Br37  1  0.80005700  0.95482800  0.55235000  1
  Br  Br38  1  0.95482800  0.55235000  0.80005700  1
  Br  Br39  1  0.55235000  0.80005700  0.95482800  1
  Br  Br40  1  0.05235000  0.80005700  0.54517200  1
  Br  Br41  1  0.55235000  0.69994300  0.45482800  1
  Br  Br42  1  0.94765000  0.30005700  0.95482800  1
  Br  Br43  1  0.82904000  0.67096000  0.32904000  1
  Br  Br44  1  0.69994300  0.45482800  0.55235000  1
  Br  Br45  1  0.45482800  0.55235000  0.69994300  1
  Br  Br46  1  0.80005700  0.54517200  0.05235000  1
  Br  Br47  1  0.54517200  0.05235000  0.80005700  1
  Br  Br48  1  0.30005700  0.95482800  0.94765000  1
  Br  Br49  1  0.19994300  0.04517200  0.44765000  1
  Br  Br50  1  0.04517200  0.44765000  0.19994300  1
  Br  Br51  1  0.44765000  0.19994300  0.04517200  1
  Br  Br52  1  0.17096000  0.32904000  0.67096000  1
  Br  Br53  1  0.32904000  0.67096000  0.17096000  1
  Br  Br54  1  0.67096000  0.17096000  0.32904000  1
  Br  Br55  1  0.82904000  0.82904000  0.82904000  1
  Br  Br56  1  0.00000000  0.00000000  0.00000000  1
  Br  Br57  1  0.50000000  0.00000000  0.50000000  1
  Br  Br58  1  0.50000000  0.50000000  0.00000000  1
  Br  Br59  1  0.00000000  0.50000000  0.50000000  1
  Br  Br60  1  0.17096000  0.17096000  0.17096000  1
  Br  Br61  1  0.32904000  0.82904000  0.67096000  1
  Br  Br62  1  0.67096000  0.32904000  0.82904000  1
  Br  Br63  1  0.95482800  0.94765000  0.30005700  1
