# generated using pymatgen
data_Te6Br2O11
_symmetry_space_group_name_H-M   'P 1'
_cell_length_a   6.99850600
_cell_length_b   12.05260800
_cell_length_c   15.93843600
_cell_angle_alpha   90.00000000
_cell_angle_beta   90.00000000
_cell_angle_gamma   90.00000000
_symmetry_Int_Tables_number   1
_chemical_formula_structural   Te6Br2O11
_chemical_formula_sum   'Te24 Br8 O44'
_cell_volume   1344.41105170
_cell_formula_units_Z   4
loop_
 _symmetry_equiv_pos_site_id
 _symmetry_equiv_pos_as_xyz
  1  'x, y, z'
loop_
 _atom_site_type_symbol
 _atom_site_label
 _atom_site_symmetry_multiplicity
 _atom_site_fract_x
 _atom_site_fract_y
 _atom_site_fract_z
 _atom_site_occupancy
  Te  Te0  1  0.06877700  0.00000000  0.85781200  1
  Te  Te1  1  0.93122300  0.00000000  0.35781200  1
  Te  Te2  1  0.06877700  0.00000000  0.64218800  1
  Te  Te3  1  0.93122300  0.00000000  0.14218800  1
  Te  Te4  1  0.37051900  0.84562300  0.08473100  1
  Te  Te5  1  0.62948100  0.15437700  0.58473100  1
  Te  Te6  1  0.37051900  0.15437700  0.41526900  1
  Te  Te7  1  0.62948100  0.84562300  0.91526900  1
  Te  Te8  1  0.62948100  0.15437700  0.91526900  1
  Te  Te9  1  0.37051900  0.84562300  0.41526900  1
  Te  Te10  1  0.62948100  0.84562300  0.58473100  1
  Te  Te11  1  0.37051900  0.15437700  0.08473100  1
  Te  Te12  1  0.56877700  0.50000000  0.85781200  1
  Te  Te13  1  0.43122300  0.50000000  0.35781200  1
  Te  Te14  1  0.56877700  0.50000000  0.64218800  1
  Te  Te15  1  0.43122300  0.50000000  0.14218800  1
  Te  Te16  1  0.87051900  0.34562300  0.08473100  1
  Te  Te17  1  0.12948100  0.65437700  0.58473100  1
  Te  Te18  1  0.87051900  0.65437700  0.41526900  1
  Te  Te19  1  0.12948100  0.34562300  0.91526900  1
  Te  Te20  1  0.12948100  0.65437700  0.91526900  1
  Te  Te21  1  0.87051900  0.34562300  0.41526900  1
  Te  Te22  1  0.12948100  0.34562300  0.58473100  1
  Te  Te23  1  0.87051900  0.65437700  0.08473100  1
  Br  Br24  1  0.30528150  0.83309850  0.75000000  1
  Br  Br25  1  0.69471850  0.16690150  0.25000000  1
  Br  Br26  1  0.30528150  0.16690150  0.75000000  1
  Br  Br27  1  0.69471850  0.83309850  0.25000000  1
  Br  Br28  1  0.80528150  0.33309850  0.75000000  1
  Br  Br29  1  0.19471850  0.66690150  0.25000000  1
  Br  Br30  1  0.80528150  0.66690150  0.75000000  1
  Br  Br31  1  0.19471850  0.33309850  0.25000000  1
  O  O32  1  0.92729600  0.00000000  0.75000000  1
  O  O33  1  0.07270400  0.00000000  0.25000000  1
  O  O34  1  0.58202650  0.38021550  0.09627100  1
  O  O35  1  0.41797350  0.61978450  0.59627100  1
  O  O36  1  0.58202650  0.61978450  0.40372900  1
  O  O37  1  0.41797350  0.38021550  0.90372900  1
  O  O38  1  0.41797350  0.61978450  0.90372900  1
  O  O39  1  0.58202650  0.38021550  0.40372900  1
  O  O40  1  0.41797350  0.38021550  0.59627100  1
  O  O41  1  0.58202650  0.61978450  0.09627100  1
  O  O42  1  0.66537500  0.14954900  0.03539000  1
  O  O43  1  0.33462500  0.85045100  0.53539000  1
  O  O44  1  0.66537500  0.85045100  0.46461000  1
  O  O45  1  0.33462500  0.14954900  0.96461000  1
  O  O46  1  0.33462500  0.85045100  0.96461000  1
  O  O47  1  0.66537500  0.14954900  0.46461000  1
  O  O48  1  0.42524900  0.00000000  0.11337200  1
  O  O49  1  0.57475100  0.00000000  0.61337200  1
  O  O50  1  0.42524900  0.00000000  0.38662800  1
  O  O51  1  0.57475100  0.00000000  0.88662800  1
  O  O52  1  0.66537500  0.85045100  0.03539000  1
  O  O53  1  0.33462500  0.14954900  0.53539000  1
  O  O54  1  0.42729600  0.50000000  0.75000000  1
  O  O55  1  0.57270400  0.50000000  0.25000000  1
  O  O56  1  0.08202650  0.88021550  0.09627100  1
  O  O57  1  0.91797350  0.11978450  0.59627100  1
  O  O58  1  0.08202650  0.11978450  0.40372900  1
  O  O59  1  0.91797350  0.88021550  0.90372900  1
  O  O60  1  0.91797350  0.11978450  0.90372900  1
  O  O61  1  0.08202650  0.88021550  0.40372900  1
  O  O62  1  0.91797350  0.88021550  0.59627100  1
  O  O63  1  0.08202650  0.11978450  0.09627100  1
  O  O64  1  0.16537500  0.64954900  0.03539000  1
  O  O65  1  0.83462500  0.35045100  0.53539000  1
  O  O66  1  0.16537500  0.35045100  0.46461000  1
  O  O67  1  0.83462500  0.64954900  0.96461000  1
  O  O68  1  0.83462500  0.35045100  0.96461000  1
  O  O69  1  0.16537500  0.64954900  0.46461000  1
  O  O70  1  0.92524900  0.50000000  0.11337200  1
  O  O71  1  0.07475100  0.50000000  0.61337200  1
  O  O72  1  0.92524900  0.50000000  0.38662800  1
  O  O73  1  0.07475100  0.50000000  0.88662800  1
  O  O74  1  0.16537500  0.35045100  0.03539000  1
  O  O75  1  0.83462500  0.64954900  0.53539000  1
