# generated using pymatgen
data_PH2F3
_symmetry_space_group_name_H-M   'P 1'
_cell_length_a   6.01437800
_cell_length_b   8.21301000
_cell_length_c   6.27863800
_cell_angle_alpha   90.00000000
_cell_angle_beta   90.00000000
_cell_angle_gamma   90.00000000
_symmetry_Int_Tables_number   1
_chemical_formula_structural   PH2F3
_chemical_formula_sum   'P4 H8 F12'
_cell_volume   310.14052346
_cell_formula_units_Z   4
loop_
 _symmetry_equiv_pos_site_id
 _symmetry_equiv_pos_as_xyz
  1  'x, y, z'
loop_
 _atom_site_type_symbol
 _atom_site_label
 _atom_site_symmetry_multiplicity
 _atom_site_fract_x
 _atom_site_fract_y
 _atom_site_fract_z
 _atom_site_occupancy
  P  P0  1  0.50000000  0.81181900  0.24948700  1
  P  P1  1  0.50000000  0.18818100  0.74948700  1
  P  P2  1  0.00000000  0.31181900  0.24948700  1
  P  P3  1  0.00000000  0.68818100  0.74948700  1
  H  H4  1  0.70796800  0.88629300  0.26706500  1
  H  H5  1  0.29203200  0.11370700  0.76706500  1
  H  H6  1  0.29203200  0.88629300  0.26706500  1
  H  H7  1  0.70796800  0.11370700  0.76706500  1
  H  H8  1  0.20796800  0.38629300  0.26706500  1
  H  H9  1  0.79203200  0.61370700  0.76706500  1
  H  H10  1  0.79203200  0.38629300  0.26706500  1
  H  H11  1  0.20796800  0.61370700  0.76706500  1
  F  F12  1  0.50000000  0.85081200  0.98896400  1
  F  F13  1  0.50000000  0.77483000  0.50920100  1
  F  F14  1  0.50000000  0.37729200  0.70121800  1
  F  F15  1  0.50000000  0.62270800  0.20121800  1
  F  F16  1  0.50000000  0.22517000  0.00920100  1
  F  F17  1  0.50000000  0.14918800  0.48896400  1
  F  F18  1  0.00000000  0.35081200  0.98896400  1
  F  F19  1  0.00000000  0.27483000  0.50920100  1
  F  F20  1  0.00000000  0.87729200  0.70121800  1
  F  F21  1  0.00000000  0.12270800  0.20121800  1
  F  F22  1  0.00000000  0.72517000  0.00920100  1
  F  F23  1  0.00000000  0.64918800  0.48896400  1
