# generated using pymatgen
data_Pb7(BrF6)2
_symmetry_space_group_name_H-M   'P 1'
_cell_length_a   10.50597008
_cell_length_b   10.50597008
_cell_length_c   4.05551000
_cell_angle_alpha   90.00000000
_cell_angle_beta   90.00000000
_cell_angle_gamma   120.00000000
_symmetry_Int_Tables_number   1
_chemical_formula_structural   Pb7(BrF6)2
_chemical_formula_sum   'Pb7 Br2 F12'
_cell_volume   387.65771123
_cell_formula_units_Z   1
loop_
 _symmetry_equiv_pos_site_id
 _symmetry_equiv_pos_as_xyz
  1  'x, y, z'
loop_
 _atom_site_type_symbol
 _atom_site_label
 _atom_site_symmetry_multiplicity
 _atom_site_fract_x
 _atom_site_fract_y
 _atom_site_fract_z
 _atom_site_occupancy
  Pb  Pb0  1  0.58853767  0.68824833  0.00000000  1
  Pb  Pb1  1  0.71352267  0.10646933  0.50000000  1
  Pb  Pb2  1  0.89353067  0.60705333  0.50000000  1
  Pb  Pb3  1  0.39294667  0.28647733  0.50000000  1
  Pb  Pb4  1  0.09971067  0.41146233  0.00000000  1
  Pb  Pb5  1  0.31175167  0.90028933  0.00000000  1
  Pb  Pb6  1  0.00000000  0.00000000  0.00000000  1
  Br  Br7  1  0.66666667  0.33333333  0.00000000  1
  Br  Br8  1  0.33333333  0.66666667  0.50000000  1
  F  F9  1  0.42567267  0.03949633  0.50000000  1
  F  F10  1  0.61382367  0.57432733  0.50000000  1
  F  F11  1  0.96050367  0.38617633  0.50000000  1
  F  F12  1  0.12893067  0.20639533  0.50000000  1
  F  F13  1  0.07746467  0.87106933  0.50000000  1
  F  F14  1  0.79360467  0.92253533  0.50000000  1
  F  F15  1  0.56774367  0.95084333  0.00000000  1
  F  F16  1  0.04915667  0.61690033  0.00000000  1
  F  F17  1  0.38309967  0.43225633  0.00000000  1
  F  F18  1  0.27490167  0.11430733  0.00000000  1
  F  F19  1  0.83940567  0.72509833  0.00000000  1
  F  F20  1  0.88569267  0.16059433  0.00000000  1
