# generated using pymatgen
data_RbGa2P2H5O11
_symmetry_space_group_name_H-M   'P 1'
_cell_length_a   9.76488300
_cell_length_b   9.74515900
_cell_length_c   12.28874212
_cell_angle_alpha   90.00000000
_cell_angle_beta   128.50464208
_cell_angle_gamma   90.00000000
_symmetry_Int_Tables_number   1
_chemical_formula_structural   RbGa2P2H5O11
_chemical_formula_sum   'Rb4 Ga8 P8 H20 O44'
_cell_volume   915.12365915
_cell_formula_units_Z   4
loop_
 _symmetry_equiv_pos_site_id
 _symmetry_equiv_pos_as_xyz
  1  'x, y, z'
loop_
 _atom_site_type_symbol
 _atom_site_label
 _atom_site_symmetry_multiplicity
 _atom_site_fract_x
 _atom_site_fract_y
 _atom_site_fract_z
 _atom_site_occupancy
  Rb  Rb0  1  0.38257400  0.30596500  0.39932900  1
  Rb  Rb1  1  0.61742600  0.80596500  0.10067100  1
  Rb  Rb2  1  0.61742600  0.69403500  0.60067100  1
  Rb  Rb3  1  0.38257400  0.19403500  0.89932900  1
  Ga  Ga4  1  0.71766100  0.27203300  0.81510500  1
  Ga  Ga5  1  0.28233900  0.77203300  0.68489500  1
  Ga  Ga6  1  0.28233900  0.72796700  0.18489500  1
  Ga  Ga7  1  0.71766100  0.22796700  0.31510500  1
  Ga  Ga8  1  0.98231600  0.54499200  0.37090100  1
  Ga  Ga9  1  0.01768400  0.04499200  0.12909900  1
  Ga  Ga10  1  0.01768400  0.45500800  0.62909900  1
  Ga  Ga11  1  0.98231600  0.95500800  0.87090100  1
  P  P12  1  0.35440500  0.47287900  0.64991000  1
  P  P13  1  0.64559500  0.97287900  0.85009000  1
  P  P14  1  0.64559500  0.52712100  0.35009000  1
  P  P15  1  0.35440500  0.02712100  0.14991000  1
  P  P16  1  0.84199200  0.31710300  0.13214500  1
  P  P17  1  0.15800800  0.81710300  0.36785500  1
  P  P18  1  0.15800800  0.68289700  0.86785500  1
  P  P19  1  0.84199200  0.18289700  0.63214500  1
  H  H20  1  0.80055900  0.58241200  0.03212700  1
  H  H21  1  0.19944100  0.08241200  0.46787300  1
  H  H22  1  0.19944100  0.41758800  0.96787300  1
  H  H23  1  0.80055900  0.91758800  0.53212700  1
  H  H24  1  0.64768100  0.63537100  0.87911600  1
  H  H25  1  0.35231900  0.13537100  0.62088400  1
  H  H26  1  0.35231900  0.36462900  0.12088400  1
  H  H27  1  0.64768100  0.86462900  0.37911600  1
  H  H28  1  0.93016100  0.47322300  0.82338100  1
  H  H29  1  0.06983900  0.97322300  0.67661900  1
  H  H30  1  0.06983900  0.52677700  0.17661900  1
  H  H31  1  0.93016100  0.02677700  0.32338100  1
  H  H32  1  0.84004500  0.52379700  0.89477600  1
  H  H33  1  0.15995500  0.02379700  0.60522400  1
  H  H34  1  0.15995500  0.47620300  0.10522400  1
  H  H35  1  0.84004500  0.97620300  0.39477600  1
  H  H36  1  0.04815700  0.29628200  0.47809100  1
  H  H37  1  0.95184300  0.79628200  0.02190900  1
  H  H38  1  0.95184300  0.70371800  0.52190900  1
  H  H39  1  0.04815700  0.20371800  0.97809100  1
  O  O40  1  0.77617100  0.64023100  0.95609600  1
  O  O41  1  0.22382900  0.14023100  0.54390400  1
  O  O42  1  0.22382900  0.35976900  0.04390400  1
  O  O43  1  0.77617100  0.85976900  0.45609600  1
  O  O44  1  0.85498600  0.44633100  0.84880000  1
  O  O45  1  0.14501400  0.94633100  0.65120000  1
  O  O46  1  0.14501400  0.55366900  0.15120000  1
  O  O47  1  0.85498600  0.05366900  0.34880000  1
  O  O48  1  0.94656500  0.35636300  0.44269600  1
  O  O49  1  0.05343500  0.85636300  0.05730400  1
  O  O50  1  0.05343500  0.64363700  0.55730400  1
  O  O51  1  0.94656500  0.14363700  0.94269600  1
  O  O52  1  0.22790500  0.49111800  0.48817200  1
  O  O53  1  0.77209500  0.99111800  0.01182800  1
  O  O54  1  0.77209500  0.50888200  0.51182800  1
  O  O55  1  0.22790500  0.00888200  0.98817200  1
  O  O56  1  0.56711600  0.11596300  0.77973700  1
  O  O57  1  0.43288400  0.61596300  0.72026300  1
  O  O58  1  0.43288400  0.88403700  0.22026300  1
  O  O59  1  0.56711600  0.38403700  0.27973700  1
  O  O60  1  0.74345000  0.58790900  0.29858400  1
  O  O61  1  0.25655000  0.08790900  0.20141600  1
  O  O62  1  0.25655000  0.41209100  0.70141600  1
  O  O63  1  0.74345000  0.91209100  0.79858400  1
  O  O64  1  0.50207900  0.37964100  0.68377400  1
  O  O65  1  0.49792100  0.87964100  0.81622600  1
  O  O66  1  0.49792100  0.62035900  0.31622600  1
  O  O67  1  0.50207900  0.12035900  0.18377400  1
  O  O68  1  0.92024700  0.46327800  0.19771600  1
  O  O69  1  0.07975300  0.96327800  0.30228400  1
  O  O70  1  0.07975300  0.53672200  0.80228400  1
  O  O71  1  0.92024700  0.03672200  0.69771600  1
  O  O72  1  0.99996100  0.71917100  0.30349900  1
  O  O73  1  0.00003900  0.21917100  0.19650100  1
  O  O74  1  0.00003900  0.28082900  0.69650100  1
  O  O75  1  0.99996100  0.78082900  0.80349900  1
  O  O76  1  0.71608600  0.22883500  0.66057900  1
  O  O77  1  0.28391400  0.72883500  0.83942100  1
  O  O78  1  0.28391400  0.77116500  0.33942100  1
  O  O79  1  0.71608600  0.27116500  0.16057900  1
  O  O80  1  0.73300100  0.33221500  0.97353700  1
  O  O81  1  0.26699900  0.83221500  0.52646300  1
  O  O82  1  0.26699900  0.66778500  0.02646300  1
  O  O83  1  0.73300100  0.16778500  0.47353700  1
