# generated using pymatgen
data_Pb5(SI3)2
_symmetry_space_group_name_H-M   'P 1'
_cell_length_a   15.06665000
_cell_length_b   4.51710800
_cell_length_c   15.01029181
_cell_angle_alpha   90.00000000
_cell_angle_beta   98.48018822
_cell_angle_gamma   90.00000000
_symmetry_Int_Tables_number   1
_chemical_formula_structural   Pb5(SI3)2
_chemical_formula_sum   'Pb10 S4 I12'
_cell_volume   1010.39684975
_cell_formula_units_Z   2
loop_
 _symmetry_equiv_pos_site_id
 _symmetry_equiv_pos_as_xyz
  1  'x, y, z'
loop_
 _atom_site_type_symbol
 _atom_site_label
 _atom_site_symmetry_multiplicity
 _atom_site_fract_x
 _atom_site_fract_y
 _atom_site_fract_z
 _atom_site_occupancy
  Pb  Pb0  1  0.72391400  0.50000000  0.75765800  1
  Pb  Pb1  1  0.63146200  0.50000000  0.47156400  1
  Pb  Pb2  1  0.86853800  0.00000000  0.52843600  1
  Pb  Pb3  1  0.77608600  0.00000000  0.24234200  1
  Pb  Pb4  1  0.00000000  0.00000000  0.00000000  1
  Pb  Pb5  1  0.22391400  0.00000000  0.75765800  1
  Pb  Pb6  1  0.13146200  0.00000000  0.47156400  1
  Pb  Pb7  1  0.36853800  0.50000000  0.52843600  1
  Pb  Pb8  1  0.27608600  0.50000000  0.24234200  1
  Pb  Pb9  1  0.50000000  0.50000000  0.00000000  1
  S  S10  1  0.78474800  0.50000000  0.59420700  1
  S  S11  1  0.71525200  0.00000000  0.40579300  1
  S  S12  1  0.28474800  0.00000000  0.59420700  1
  S  S13  1  0.21525200  0.50000000  0.40579300  1
  I  I14  1  0.62993700  0.00000000  0.93395100  1
  I  I15  1  0.91819100  0.50000000  0.35707600  1
  I  I16  1  0.87846800  0.00000000  0.79762100  1
  I  I17  1  0.87006300  0.50000000  0.06604900  1
  I  I18  1  0.58180900  0.00000000  0.64292400  1
  I  I19  1  0.62153200  0.50000000  0.20237900  1
  I  I20  1  0.12993700  0.50000000  0.93395100  1
  I  I21  1  0.41819100  0.00000000  0.35707600  1
  I  I22  1  0.37846800  0.50000000  0.79762100  1
  I  I23  1  0.37006300  0.00000000  0.06604900  1
  I  I24  1  0.08180900  0.50000000  0.64292400  1
  I  I25  1  0.12153200  0.00000000  0.20237900  1
