# generated using pymatgen
data_KTlCl4
_symmetry_space_group_name_H-M   'P 1'
_cell_length_a   7.09270400
_cell_length_b   7.09270400
_cell_length_c   15.82174400
_cell_angle_alpha   90.00000000
_cell_angle_beta   90.00000000
_cell_angle_gamma   90.00000000
_symmetry_Int_Tables_number   1
_chemical_formula_structural   KTlCl4
_chemical_formula_sum   'K4 Tl4 Cl16'
_cell_volume   795.93577395
_cell_formula_units_Z   4
loop_
 _symmetry_equiv_pos_site_id
 _symmetry_equiv_pos_as_xyz
  1  'x, y, z'
loop_
 _atom_site_type_symbol
 _atom_site_label
 _atom_site_symmetry_multiplicity
 _atom_site_fract_x
 _atom_site_fract_y
 _atom_site_fract_z
 _atom_site_occupancy
  K  K0  1  0.50000000  0.00000000  0.25000000  1
  K  K1  1  0.50000000  0.50000000  0.00000000  1
  K  K2  1  0.00000000  0.50000000  0.75000000  1
  K  K3  1  0.00000000  0.00000000  0.50000000  1
  Tl  Tl4  1  0.00000000  0.00000000  0.00000000  1
  Tl  Tl5  1  0.00000000  0.50000000  0.25000000  1
  Tl  Tl6  1  0.50000000  0.50000000  0.50000000  1
  Tl  Tl7  1  0.50000000  0.00000000  0.75000000  1
  Cl  Cl8  1  0.24707400  0.16144000  0.08452900  1
  Cl  Cl9  1  0.83856000  0.74707400  0.33452900  1
  Cl  Cl10  1  0.75292600  0.33856000  0.16547100  1
  Cl  Cl11  1  0.33856000  0.74707400  0.41547100  1
  Cl  Cl12  1  0.16144000  0.25292600  0.33452900  1
  Cl  Cl13  1  0.24707400  0.66144000  0.16547100  1
  Cl  Cl14  1  0.66144000  0.25292600  0.41547100  1
  Cl  Cl15  1  0.75292600  0.83856000  0.08452900  1
  Cl  Cl16  1  0.74707400  0.66144000  0.58452900  1
  Cl  Cl17  1  0.33856000  0.24707400  0.83452900  1
  Cl  Cl18  1  0.25292600  0.83856000  0.66547100  1
  Cl  Cl19  1  0.83856000  0.24707400  0.91547100  1
  Cl  Cl20  1  0.66144000  0.75292600  0.83452900  1
  Cl  Cl21  1  0.74707400  0.16144000  0.66547100  1
  Cl  Cl22  1  0.16144000  0.75292600  0.91547100  1
  Cl  Cl23  1  0.25292600  0.33856000  0.58452900  1
