# generated using pymatgen
data_Na3NbO4
_symmetry_space_group_name_H-M   'P 1'
_cell_length_a   11.26740200
_cell_length_b   13.18284600
_cell_length_c   5.81892797
_cell_angle_alpha   90.00000000
_cell_angle_beta   109.35452607
_cell_angle_gamma   90.00000000
_symmetry_Int_Tables_number   1
_chemical_formula_structural   Na3NbO4
_chemical_formula_sum   'Na24 Nb8 O32'
_cell_volume   815.47641267
_cell_formula_units_Z   8
loop_
 _symmetry_equiv_pos_site_id
 _symmetry_equiv_pos_as_xyz
  1  'x, y, z'
loop_
 _atom_site_type_symbol
 _atom_site_label
 _atom_site_symmetry_multiplicity
 _atom_site_fract_x
 _atom_site_fract_y
 _atom_site_fract_z
 _atom_site_occupancy
  Na  Na0  1  0.25000000  0.75000000  0.00000000  1
  Na  Na1  1  0.50000000  0.24092600  0.50000000  1
  Na  Na2  1  0.50000000  0.75907400  0.50000000  1
  Na  Na3  1  0.00000000  0.00000000  0.50000000  1
  Na  Na4  1  0.24450250  0.87403950  0.52100400  1
  Na  Na5  1  0.75549750  0.87403950  0.47899600  1
  Na  Na6  1  0.75549750  0.12596050  0.47899600  1
  Na  Na7  1  0.24450250  0.12596050  0.52100400  1
  Na  Na8  1  0.50000000  0.87610500  0.00000000  1
  Na  Na9  1  0.25000000  0.25000000  0.00000000  1
  Na  Na10  1  0.50000000  0.12389500  0.00000000  1
  Na  Na11  1  0.50000000  0.00000000  0.50000000  1
  Na  Na12  1  0.75000000  0.25000000  0.00000000  1
  Na  Na13  1  0.00000000  0.74092600  0.50000000  1
  Na  Na14  1  0.00000000  0.25907400  0.50000000  1
  Na  Na15  1  0.50000000  0.50000000  0.50000000  1
  Na  Na16  1  0.74450250  0.37403950  0.52100400  1
  Na  Na17  1  0.25549750  0.37403950  0.47899600  1
  Na  Na18  1  0.25549750  0.62596050  0.47899600  1
  Na  Na19  1  0.74450250  0.62596050  0.52100400  1
  Na  Na20  1  0.00000000  0.37610500  0.00000000  1
  Na  Na21  1  0.75000000  0.75000000  0.00000000  1
  Na  Na22  1  0.00000000  0.62389500  0.00000000  1
  Na  Na23  1  0.00000000  0.50000000  0.50000000  1
  Nb  Nb24  1  0.73926100  0.00000000  0.96725300  1
  Nb  Nb25  1  0.26073900  0.00000000  0.03274700  1
  Nb  Nb26  1  0.50000000  0.36634400  0.00000000  1
  Nb  Nb27  1  0.50000000  0.63365600  0.00000000  1
  Nb  Nb28  1  0.23926100  0.50000000  0.96725300  1
  Nb  Nb29  1  0.76073900  0.50000000  0.03274700  1
  Nb  Nb30  1  0.00000000  0.86634400  0.00000000  1
  Nb  Nb31  1  0.00000000  0.13365600  0.00000000  1
  O  O32  1  0.64560750  0.10815550  0.76599800  1
  O  O33  1  0.35439250  0.10815550  0.23400200  1
  O  O34  1  0.35439250  0.89184450  0.23400200  1
  O  O35  1  0.64560750  0.89184450  0.76599800  1
  O  O36  1  0.12006750  0.88823550  0.81035000  1
  O  O37  1  0.87993250  0.88823550  0.18965000  1
  O  O38  1  0.87993250  0.11176450  0.18965000  1
  O  O39  1  0.12006750  0.11176450  0.81035000  1
  O  O40  1  0.34431300  0.00000000  0.79465100  1
  O  O41  1  0.65568700  0.00000000  0.20534900  1
  O  O42  1  0.60364050  0.27121850  0.22683600  1
  O  O43  1  0.39635950  0.27121850  0.77316400  1
  O  O44  1  0.39635950  0.72878150  0.77316400  1
  O  O45  1  0.11276900  0.00000000  0.19854900  1
  O  O46  1  0.88723100  0.00000000  0.80145100  1
  O  O47  1  0.60364050  0.72878150  0.22683600  1
  O  O48  1  0.14560750  0.60815550  0.76599800  1
  O  O49  1  0.85439250  0.60815550  0.23400200  1
  O  O50  1  0.85439250  0.39184450  0.23400200  1
  O  O51  1  0.14560750  0.39184450  0.76599800  1
  O  O52  1  0.62006750  0.38823550  0.81035000  1
  O  O53  1  0.37993250  0.38823550  0.18965000  1
  O  O54  1  0.37993250  0.61176450  0.18965000  1
  O  O55  1  0.62006750  0.61176450  0.81035000  1
  O  O56  1  0.84431300  0.50000000  0.79465100  1
  O  O57  1  0.15568700  0.50000000  0.20534900  1
  O  O58  1  0.10364050  0.77121850  0.22683600  1
  O  O59  1  0.89635950  0.77121850  0.77316400  1
  O  O60  1  0.89635950  0.22878150  0.77316400  1
  O  O61  1  0.61276900  0.50000000  0.19854900  1
  O  O62  1  0.38723100  0.50000000  0.80145100  1
  O  O63  1  0.10364050  0.22878150  0.22683600  1
