# generated using pymatgen
data_Zr6Ag7F31
_symmetry_space_group_name_H-M   'P 1'
_cell_length_a   14.20997967
_cell_length_b   14.20997967
_cell_length_c   9.98187533
_cell_angle_alpha   90.00000000
_cell_angle_beta   90.00000000
_cell_angle_gamma   120.00000000
_symmetry_Int_Tables_number   1
_chemical_formula_structural   Zr6Ag7F31
_chemical_formula_sum   'Zr18 Ag21 F93'
_cell_volume   1745.53952193
_cell_formula_units_Z   3
loop_
 _symmetry_equiv_pos_site_id
 _symmetry_equiv_pos_as_xyz
  1  'x, y, z'
loop_
 _atom_site_type_symbol
 _atom_site_label
 _atom_site_symmetry_multiplicity
 _atom_site_fract_x
 _atom_site_fract_y
 _atom_site_fract_z
 _atom_site_occupancy
  Zr  Zr0  1  0.86690300  0.05438000  0.16912600  1
  Zr  Zr1  1  0.94562000  0.81252300  0.16912600  1
  Zr  Zr2  1  0.18747700  0.13309700  0.16912600  1
  Zr  Zr3  1  0.13309700  0.94562000  0.83087400  1
  Zr  Zr4  1  0.05438000  0.18747700  0.83087400  1
  Zr  Zr5  1  0.81252300  0.86690300  0.83087400  1
  Zr  Zr6  1  0.53356967  0.38771333  0.50245933  1
  Zr  Zr7  1  0.61228667  0.14585633  0.50245933  1
  Zr  Zr8  1  0.85414367  0.46643033  0.50245933  1
  Zr  Zr9  1  0.79976367  0.27895333  0.16420733  1
  Zr  Zr10  1  0.72104667  0.52081033  0.16420733  1
  Zr  Zr11  1  0.47918967  0.20023633  0.16420733  1
  Zr  Zr12  1  0.20023633  0.72104667  0.83579267  1
  Zr  Zr13  1  0.27895333  0.47918967  0.83579267  1
  Zr  Zr14  1  0.52081033  0.79976367  0.83579267  1
  Zr  Zr15  1  0.46643033  0.61228667  0.49754067  1
  Zr  Zr16  1  0.38771333  0.85414367  0.49754067  1
  Zr  Zr17  1  0.14585633  0.53356967  0.49754067  1
  Ag  Ag18  1  0.00000000  0.00000000  0.50000000  1
  Ag  Ag19  1  0.77913800  0.69809900  0.51044600  1
  Ag  Ag20  1  0.30190100  0.08103900  0.51044600  1
  Ag  Ag21  1  0.91896100  0.22086200  0.51044600  1
  Ag  Ag22  1  0.22086200  0.30190100  0.48955400  1
  Ag  Ag23  1  0.69809900  0.91896100  0.48955400  1
  Ag  Ag24  1  0.08103900  0.77913800  0.48955400  1
  Ag  Ag25  1  0.66666667  0.33333333  0.83333333  1
  Ag  Ag26  1  0.44580467  0.03143233  0.84377933  1
  Ag  Ag27  1  0.96856767  0.41437233  0.84377933  1
  Ag  Ag28  1  0.58562767  0.55419533  0.84377933  1
  Ag  Ag29  1  0.88752867  0.63523433  0.82288733  1
  Ag  Ag30  1  0.36476567  0.25229433  0.82288733  1
  Ag  Ag31  1  0.74770567  0.11247133  0.82288733  1
  Ag  Ag32  1  0.33333333  0.66666667  0.16666667  1
  Ag  Ag33  1  0.11247133  0.36476567  0.17711267  1
  Ag  Ag34  1  0.63523433  0.74770567  0.17711267  1
  Ag  Ag35  1  0.25229433  0.88752867  0.17711267  1
  Ag  Ag36  1  0.55419533  0.96856767  0.15622067  1
  Ag  Ag37  1  0.03143233  0.58562767  0.15622067  1
  Ag  Ag38  1  0.41437233  0.44580467  0.15622067  1
  F  F39  1  0.00000000  0.00000000  0.00000000  1
  F  F40  1  0.03612833  0.12468767  0.21522167  1
  F  F41  1  0.87531233  0.91144067  0.21522167  1
  F  F42  1  0.08855933  0.96387167  0.21522167  1
  F  F43  1  0.96387167  0.87531233  0.78477833  1
  F  F44  1  0.12468767  0.08855933  0.78477833  1
  F  F45  1  0.91144067  0.03612833  0.78477833  1
  F  F46  1  0.45735367  0.28592133  0.33098433  1
  F  F47  1  0.71407867  0.17143233  0.33098433  1
  F  F48  1  0.82856767  0.54264633  0.33098433  1
  F  F49  1  0.54264633  0.71407867  0.66901567  1
  F  F50  1  0.28592133  0.82856767  0.66901567  1
  F  F51  1  0.17143233  0.45735367  0.66901567  1
  F  F52  1  0.68948233  0.90830867  0.76087867  1
  F  F53  1  0.21882633  0.31051767  0.76087867  1
  F  F54  1  0.09169133  0.78117367  0.76087867  1
  F  F55  1  0.31051767  0.09169133  0.23912133  1
  F  F56  1  0.78117367  0.68948233  0.23912133  1
  F  F57  1  0.90830867  0.21882633  0.23912133  1
  F  F58  1  0.82118667  0.87638033  0.62055433  1
  F  F59  1  0.05519367  0.17881333  0.62055433  1
  F  F60  1  0.12361967  0.94480633  0.62055433  1
  F  F61  1  0.17881333  0.12361967  0.37944567  1
  F  F62  1  0.94480633  0.82118667  0.37944567  1
  F  F63  1  0.87638033  0.05519367  0.37944567  1
  F  F64  1  0.09743733  0.37614867  0.43182867  1
  F  F65  1  0.27871133  0.90256267  0.43182867  1
  F  F66  1  0.62385133  0.72128867  0.43182867  1
  F  F67  1  0.90256267  0.62385133  0.56817133  1
  F  F68  1  0.72128867  0.09743733  0.56817133  1
  F  F69  1  0.37614867  0.27871133  0.56817133  1
  F  F70  1  0.66666667  0.33333333  0.33333333  1
  F  F71  1  0.70279500  0.45802100  0.54855500  1
  F  F72  1  0.54197900  0.24477400  0.54855500  1
  F  F73  1  0.75522600  0.29720500  0.54855500  1
  F  F74  1  0.63053833  0.20864567  0.11811167  1
  F  F75  1  0.79135433  0.42189267  0.11811167  1
  F  F76  1  0.57810733  0.36946167  0.11811167  1
  F  F77  1  0.12402033  0.61925467  0.66431767  1
  F  F78  1  0.38074533  0.50476567  0.66431767  1
  F  F79  1  0.49523433  0.87597967  0.66431767  1
  F  F80  1  0.20931300  0.04741200  0.00234900  1
  F  F81  1  0.95258800  0.16190100  0.00234900  1
  F  F82  1  0.83809900  0.79068700  0.00234900  1
  F  F83  1  0.35614900  0.24164200  0.09421200  1
  F  F84  1  0.88549300  0.64385100  0.09421200  1
  F  F85  1  0.75835800  0.11450700  0.09421200  1
  F  F86  1  0.97718433  0.42502467  0.57245467  1
  F  F87  1  0.44784033  0.02281567  0.57245467  1
  F  F88  1  0.57497533  0.55215967  0.57245467  1
  F  F89  1  0.48785333  0.20971367  0.95388767  1
  F  F90  1  0.72186033  0.51214667  0.95388767  1
  F  F91  1  0.79028633  0.27813967  0.95388767  1
  F  F92  1  0.84548000  0.45695300  0.71277900  1
  F  F93  1  0.61147300  0.15452000  0.71277900  1
  F  F94  1  0.54304700  0.38852700  0.71277900  1
  F  F95  1  0.76410400  0.70948200  0.76516200  1
  F  F96  1  0.94537800  0.23589600  0.76516200  1
  F  F97  1  0.29051800  0.05462200  0.76516200  1
  F  F98  1  0.56922933  0.95718467  0.90150467  1
  F  F99  1  0.38795533  0.43077067  0.90150467  1
  F  F100  1  0.04281533  0.61204467  0.90150467  1
  F  F101  1  0.33333333  0.66666667  0.66666667  1
  F  F102  1  0.36946167  0.79135433  0.88188833  1
  F  F103  1  0.20864567  0.57810733  0.88188833  1
  F  F104  1  0.42189267  0.63053833  0.88188833  1
  F  F105  1  0.29720500  0.54197900  0.45144500  1
  F  F106  1  0.45802100  0.75522600  0.45144500  1
  F  F107  1  0.24477400  0.70279500  0.45144500  1
  F  F108  1  0.79068700  0.95258800  0.99765100  1
  F  F109  1  0.04741200  0.83809900  0.99765100  1
  F  F110  1  0.16190100  0.20931300  0.99765100  1
  F  F111  1  0.87597967  0.38074533  0.33568233  1
  F  F112  1  0.61925467  0.49523433  0.33568233  1
  F  F113  1  0.50476567  0.12402033  0.33568233  1
  F  F114  1  0.02281567  0.57497533  0.42754533  1
  F  F115  1  0.55215967  0.97718433  0.42754533  1
  F  F116  1  0.42502467  0.44784033  0.42754533  1
  F  F117  1  0.64385100  0.75835800  0.90578800  1
  F  F118  1  0.11450700  0.35614900  0.90578800  1
  F  F119  1  0.24164200  0.88549300  0.90578800  1
  F  F120  1  0.15452000  0.54304700  0.28722100  1
  F  F121  1  0.38852700  0.84548000  0.28722100  1
  F  F122  1  0.45695300  0.61147300  0.28722100  1
  F  F123  1  0.51214667  0.79028633  0.04611233  1
  F  F124  1  0.27813967  0.48785333  0.04611233  1
  F  F125  1  0.20971367  0.72186033  0.04611233  1
  F  F126  1  0.43077067  0.04281533  0.09849533  1
  F  F127  1  0.61204467  0.56922933  0.09849533  1
  F  F128  1  0.95718467  0.38795533  0.09849533  1
  F  F129  1  0.23589600  0.29051800  0.23483800  1
  F  F130  1  0.05462200  0.76410400  0.23483800  1
  F  F131  1  0.70948200  0.94537800  0.23483800  1
