# generated using pymatgen
data_Na6PbO4
_symmetry_space_group_name_H-M   'P 1'
_cell_length_a   11.29951800
_cell_length_b   11.29951800
_cell_length_c   11.29951800
_cell_angle_alpha   90.00000000
_cell_angle_beta   90.00000000
_cell_angle_gamma   90.00000000
_symmetry_Int_Tables_number   1
_chemical_formula_structural   Na6PbO4
_chemical_formula_sum   'Na48 Pb8 O32'
_cell_volume   1442.71236814
_cell_formula_units_Z   8
loop_
 _symmetry_equiv_pos_site_id
 _symmetry_equiv_pos_as_xyz
  1  'x, y, z'
loop_
 _atom_site_type_symbol
 _atom_site_label
 _atom_site_symmetry_multiplicity
 _atom_site_fract_x
 _atom_site_fract_y
 _atom_site_fract_z
 _atom_site_occupancy
  Na  Na0  1  0.37137900  0.09614000  0.37137900  1
  Na  Na1  1  0.12862100  0.12862100  0.59614000  1
  Na  Na2  1  0.33665400  0.11692000  0.11692000  1
  Na  Na3  1  0.59614000  0.12862100  0.12862100  1
  Na  Na4  1  0.88308000  0.66334600  0.11692000  1
  Na  Na5  1  0.87137900  0.40386000  0.12862100  1
  Na  Na6  1  0.11692000  0.11692000  0.33665400  1
  Na  Na7  1  0.83665400  0.38308000  0.38308000  1
  Na  Na8  1  0.11692000  0.66334600  0.88308000  1
  Na  Na9  1  0.11692000  0.33665400  0.11692000  1
  Na  Na10  1  0.12862100  0.59614000  0.12862100  1
  Na  Na11  1  0.66334600  0.88308000  0.11692000  1
  Na  Na12  1  0.09614000  0.37137900  0.37137900  1
  Na  Na13  1  0.37137900  0.37137900  0.09614000  1
  Na  Na14  1  0.40386000  0.12862100  0.87137900  1
  Na  Na15  1  0.87137900  0.12862100  0.40386000  1
  Na  Na16  1  0.12862100  0.87137900  0.40386000  1
  Na  Na17  1  0.11692000  0.88308000  0.66334600  1
  Na  Na18  1  0.38308000  0.83665400  0.38308000  1
  Na  Na19  1  0.12862100  0.40386000  0.87137900  1
  Na  Na20  1  0.38308000  0.38308000  0.83665400  1
  Na  Na21  1  0.66334600  0.11692000  0.88308000  1
  Na  Na22  1  0.88308000  0.11692000  0.66334600  1
  Na  Na23  1  0.40386000  0.87137900  0.12862100  1
  Na  Na24  1  0.87137900  0.59614000  0.87137900  1
  Na  Na25  1  0.62862100  0.62862100  0.09614000  1
  Na  Na26  1  0.83665400  0.61692000  0.61692000  1
  Na  Na27  1  0.09614000  0.62862100  0.62862100  1
  Na  Na28  1  0.38308000  0.16334600  0.61692000  1
  Na  Na29  1  0.37137900  0.90386000  0.62862100  1
  Na  Na30  1  0.61692000  0.61692000  0.83665400  1
  Na  Na31  1  0.33665400  0.88308000  0.88308000  1
  Na  Na32  1  0.61692000  0.16334600  0.38308000  1
  Na  Na33  1  0.61692000  0.83665400  0.61692000  1
  Na  Na34  1  0.62862100  0.09614000  0.62862100  1
  Na  Na35  1  0.16334600  0.38308000  0.61692000  1
  Na  Na36  1  0.59614000  0.87137900  0.87137900  1
  Na  Na37  1  0.87137900  0.87137900  0.59614000  1
  Na  Na38  1  0.90386000  0.62862100  0.37137900  1
  Na  Na39  1  0.37137900  0.62862100  0.90386000  1
  Na  Na40  1  0.62862100  0.37137900  0.90386000  1
  Na  Na41  1  0.61692000  0.38308000  0.16334600  1
  Na  Na42  1  0.88308000  0.33665400  0.88308000  1
  Na  Na43  1  0.62862100  0.90386000  0.37137900  1
  Na  Na44  1  0.88308000  0.88308000  0.33665400  1
  Na  Na45  1  0.16334600  0.61692000  0.38308000  1
  Na  Na46  1  0.38308000  0.61692000  0.16334600  1
  Na  Na47  1  0.90386000  0.37137900  0.62862100  1
  Pb  Pb48  1  0.12696450  0.12696450  0.87303550  1
  Pb  Pb49  1  0.12696450  0.87303550  0.12696450  1
  Pb  Pb50  1  0.37303550  0.37303550  0.37303550  1
  Pb  Pb51  1  0.87303550  0.12696450  0.12696450  1
  Pb  Pb52  1  0.62696450  0.62696450  0.37303550  1
  Pb  Pb53  1  0.62696450  0.37303550  0.62696450  1
  Pb  Pb54  1  0.87303550  0.87303550  0.87303550  1
  Pb  Pb55  1  0.37303550  0.62696450  0.62696450  1
  O  O56  1  0.52765500  0.75881400  0.24118600  1
  O  O57  1  0.00000000  0.00000000  0.50000000  1
  O  O58  1  0.52765500  0.24118600  0.75881400  1
  O  O59  1  0.25881400  0.25881400  0.97234500  1
  O  O60  1  0.24118600  0.24118600  0.47234500  1
  O  O61  1  0.75881400  0.24118600  0.52765500  1
  O  O62  1  0.75881400  0.52765500  0.24118600  1
  O  O63  1  0.25881400  0.97234500  0.25881400  1
  O  O64  1  0.50000000  0.00000000  0.00000000  1
  O  O65  1  0.97234500  0.25881400  0.25881400  1
  O  O66  1  0.47234500  0.24118600  0.24118600  1
  O  O67  1  0.24118600  0.75881400  0.52765500  1
  O  O68  1  0.24118600  0.52765500  0.75881400  1
  O  O69  1  0.00000000  0.00000000  0.00000000  1
  O  O70  1  0.24118600  0.47234500  0.24118600  1
  O  O71  1  0.00000000  0.50000000  0.00000000  1
  O  O72  1  0.02765500  0.25881400  0.74118600  1
  O  O73  1  0.50000000  0.50000000  0.00000000  1
  O  O74  1  0.02765500  0.74118600  0.25881400  1
  O  O75  1  0.75881400  0.75881400  0.47234500  1
  O  O76  1  0.74118600  0.74118600  0.97234500  1
  O  O77  1  0.25881400  0.74118600  0.02765500  1
  O  O78  1  0.25881400  0.02765500  0.74118600  1
  O  O79  1  0.75881400  0.47234500  0.75881400  1
  O  O80  1  0.00000000  0.50000000  0.50000000  1
  O  O81  1  0.47234500  0.75881400  0.75881400  1
  O  O82  1  0.97234500  0.74118600  0.74118600  1
  O  O83  1  0.74118600  0.25881400  0.02765500  1
  O  O84  1  0.74118600  0.02765500  0.25881400  1
  O  O85  1  0.50000000  0.50000000  0.50000000  1
  O  O86  1  0.74118600  0.97234500  0.74118600  1
  O  O87  1  0.50000000  0.00000000  0.50000000  1
