# generated using pymatgen
data_As2S2F3
_symmetry_space_group_name_H-M   'P 1'
_cell_length_a   6.15822500
_cell_length_b   9.96248500
_cell_length_c   20.20034000
_cell_angle_alpha   90.00000000
_cell_angle_beta   90.00000000
_cell_angle_gamma   90.00000000
_symmetry_Int_Tables_number   1
_chemical_formula_structural   As2S2F3
_chemical_formula_sum   'As16 S16 F24'
_cell_volume   1239.31558804
_cell_formula_units_Z   8
loop_
 _symmetry_equiv_pos_site_id
 _symmetry_equiv_pos_as_xyz
  1  'x, y, z'
loop_
 _atom_site_type_symbol
 _atom_site_label
 _atom_site_symmetry_multiplicity
 _atom_site_fract_x
 _atom_site_fract_y
 _atom_site_fract_z
 _atom_site_occupancy
  As  As0  1  0.00158000  0.37687300  0.67445200  1
  As  As1  1  0.00158000  0.62312700  0.82554800  1
  As  As2  1  0.99842000  0.87687300  0.32554800  1
  As  As3  1  0.99842000  0.12312700  0.17445200  1
  As  As4  1  0.99842000  0.62312700  0.32554800  1
  As  As5  1  0.99842000  0.37687300  0.17445200  1
  As  As6  1  0.00158000  0.12312700  0.67445200  1
  As  As7  1  0.00158000  0.87687300  0.82554800  1
  As  As8  1  0.94488700  0.75000000  0.49110100  1
  As  As9  1  0.94488700  0.25000000  0.00889900  1
  As  As10  1  0.05511300  0.25000000  0.50889900  1
  As  As11  1  0.05511300  0.75000000  0.99110100  1
  As  As12  1  0.48723200  0.75000000  0.16362900  1
  As  As13  1  0.48723200  0.25000000  0.33637100  1
  As  As14  1  0.51276800  0.25000000  0.83637100  1
  As  As15  1  0.51276800  0.75000000  0.66362900  1
  S  S16  1  0.69099100  0.75000000  0.86327900  1
  S  S17  1  0.69099100  0.25000000  0.63672100  1
  S  S18  1  0.30900900  0.25000000  0.13672100  1
  S  S19  1  0.30900900  0.75000000  0.36327900  1
  S  S20  1  0.69103800  0.75000000  0.96294100  1
  S  S21  1  0.69103800  0.25000000  0.53705900  1
  S  S22  1  0.30896200  0.25000000  0.03705900  1
  S  S23  1  0.30896200  0.75000000  0.46294100  1
  S  S24  1  0.14198600  0.57659300  0.92320700  1
  S  S25  1  0.85801400  0.92340700  0.42320700  1
  S  S26  1  0.85801400  0.07659300  0.07679300  1
  S  S27  1  0.85801400  0.42340700  0.07679300  1
  S  S28  1  0.14198600  0.07659300  0.57679300  1
  S  S29  1  0.14198600  0.92340700  0.92320700  1
  S  S30  1  0.85801400  0.57659300  0.42320700  1
  S  S31  1  0.14198600  0.42340700  0.57679300  1
  F  F32  1  0.25047100  0.75000000  0.21589500  1
  F  F33  1  0.25047100  0.25000000  0.28410500  1
  F  F34  1  0.74952900  0.25000000  0.78410500  1
  F  F35  1  0.74952900  0.75000000  0.71589500  1
  F  F36  1  0.72123100  0.75000000  0.11197900  1
  F  F37  1  0.72123100  0.25000000  0.38802100  1
  F  F38  1  0.27876900  0.25000000  0.88802100  1
  F  F39  1  0.27876900  0.75000000  0.61197900  1
  F  F40  1  0.39417700  0.37555100  0.78567200  1
  F  F41  1  0.39417700  0.62444900  0.71432800  1
  F  F42  1  0.60582300  0.87555100  0.21432800  1
  F  F43  1  0.60582300  0.12444900  0.28567200  1
  F  F44  1  0.60582300  0.62444900  0.21432800  1
  F  F45  1  0.60582300  0.37555100  0.28567200  1
  F  F46  1  0.39417700  0.12444900  0.78567200  1
  F  F47  1  0.39417700  0.87555100  0.71432800  1
  F  F48  1  0.36601800  0.87603900  0.11381200  1
  F  F49  1  0.36601800  0.12396100  0.38618800  1
  F  F50  1  0.36601800  0.62396100  0.11381200  1
  F  F51  1  0.63398200  0.62396100  0.61381200  1
  F  F52  1  0.36601800  0.37603900  0.38618800  1
  F  F53  1  0.63398200  0.12396100  0.88618800  1
  F  F54  1  0.63398200  0.87603900  0.61381200  1
  F  F55  1  0.63398200  0.37603900  0.88618800  1
