# generated using pymatgen
data_SnF2
_symmetry_space_group_name_H-M   'P 1'
_cell_length_a   13.39297800
_cell_length_b   5.13521200
_cell_length_c   14.20044991
_cell_angle_alpha   90.00000000
_cell_angle_beta   108.14714920
_cell_angle_gamma   90.00000000
_symmetry_Int_Tables_number   1
_chemical_formula_structural   SnF2
_chemical_formula_sum   'Sn16 F32'
_cell_volume   928.06837141
_cell_formula_units_Z   16
loop_
 _symmetry_equiv_pos_site_id
 _symmetry_equiv_pos_as_xyz
  1  'x, y, z'
loop_
 _atom_site_type_symbol
 _atom_site_label
 _atom_site_symmetry_multiplicity
 _atom_site_fract_x
 _atom_site_fract_y
 _atom_site_fract_z
 _atom_site_occupancy
  Sn  Sn0  1  0.87975350  0.50459050  0.31411200  1
  Sn  Sn1  1  0.62024650  0.00459050  0.18588800  1
  Sn  Sn2  1  0.12024650  0.49540950  0.68588800  1
  Sn  Sn3  1  0.37975350  0.99540950  0.81411200  1
  Sn  Sn4  1  0.12751250  0.02300050  0.44320200  1
  Sn  Sn5  1  0.87248750  0.02300050  0.05679800  1
  Sn  Sn6  1  0.87248750  0.97699950  0.55679800  1
  Sn  Sn7  1  0.12751250  0.97699950  0.94320200  1
  Sn  Sn8  1  0.37975350  0.00459050  0.31411200  1
  Sn  Sn9  1  0.12024650  0.50459050  0.18588800  1
  Sn  Sn10  1  0.62024650  0.99540950  0.68588800  1
  Sn  Sn11  1  0.87975350  0.49540950  0.81411200  1
  Sn  Sn12  1  0.62751250  0.52300050  0.44320200  1
  Sn  Sn13  1  0.37248750  0.52300050  0.05679800  1
  Sn  Sn14  1  0.37248750  0.47699950  0.55679800  1
  Sn  Sn15  1  0.62751250  0.47699950  0.94320200  1
  F  F16  1  0.03591050  0.15744950  0.08570500  1
  F  F17  1  0.96408950  0.15744950  0.41429500  1
  F  F18  1  0.96408950  0.84255050  0.91429500  1
  F  F19  1  0.03591050  0.84255050  0.58570500  1
  F  F20  1  0.82662100  0.64777800  0.46169900  1
  F  F21  1  0.67337900  0.14777800  0.03830100  1
  F  F22  1  0.17337900  0.35222200  0.53830100  1
  F  F23  1  0.32662100  0.85222200  0.96169900  1
  F  F24  1  0.25032600  0.73411500  0.69615600  1
  F  F25  1  0.24967400  0.23411500  0.80384400  1
  F  F26  1  0.74967400  0.26588500  0.30384400  1
  F  F27  1  0.75032600  0.76588500  0.19615600  1
  F  F28  1  0.11413000  0.71400300  0.82140900  1
  F  F29  1  0.88587000  0.71400300  0.67859100  1
  F  F30  1  0.88587000  0.28599700  0.17859100  1
  F  F31  1  0.11413000  0.28599700  0.32140900  1
  F  F32  1  0.53591050  0.65744950  0.08570500  1
  F  F33  1  0.46408950  0.65744950  0.41429500  1
  F  F34  1  0.46408950  0.34255050  0.91429500  1
  F  F35  1  0.53591050  0.34255050  0.58570500  1
  F  F36  1  0.32662100  0.14777800  0.46169900  1
  F  F37  1  0.17337900  0.64777800  0.03830100  1
  F  F38  1  0.67337900  0.85222200  0.53830100  1
  F  F39  1  0.82662100  0.35222200  0.96169900  1
  F  F40  1  0.75032600  0.23411500  0.69615600  1
  F  F41  1  0.74967400  0.73411500  0.80384400  1
  F  F42  1  0.24967400  0.76588500  0.30384400  1
  F  F43  1  0.25032600  0.26588500  0.19615600  1
  F  F44  1  0.61413000  0.21400300  0.82140900  1
  F  F45  1  0.38587000  0.21400300  0.67859100  1
  F  F46  1  0.38587000  0.78599700  0.17859100  1
  F  F47  1  0.61413000  0.78599700  0.32140900  1
