# generated using pymatgen
data_TlCu7S4
_symmetry_space_group_name_H-M   'P 1'
_cell_length_a   10.21747300
_cell_length_b   10.21747300
_cell_length_c   7.57818000
_cell_angle_alpha   90.00000000
_cell_angle_beta   90.00000000
_cell_angle_gamma   90.00000000
_symmetry_Int_Tables_number   1
_chemical_formula_structural   TlCu7S4
_chemical_formula_sum   'Tl4 Cu28 S16'
_cell_volume   791.13739706
_cell_formula_units_Z   4
loop_
 _symmetry_equiv_pos_site_id
 _symmetry_equiv_pos_as_xyz
  1  'x, y, z'
loop_
 _atom_site_type_symbol
 _atom_site_label
 _atom_site_symmetry_multiplicity
 _atom_site_fract_x
 _atom_site_fract_y
 _atom_site_fract_z
 _atom_site_occupancy
  Tl  Tl0  1  0.50000000  0.00000000  0.37819800  1
  Tl  Tl1  1  0.00000000  0.50000000  0.62180200  1
  Tl  Tl2  1  0.50000000  0.00000000  0.88334100  1
  Tl  Tl3  1  0.00000000  0.50000000  0.11665900  1
  Cu  Cu4  1  0.25000000  0.75000000  0.00000000  1
  Cu  Cu5  1  0.75000000  0.75000000  0.00000000  1
  Cu  Cu6  1  0.25000000  0.25000000  0.00000000  1
  Cu  Cu7  1  0.75000000  0.25000000  0.00000000  1
  Cu  Cu8  1  0.72647500  0.69736900  0.34474300  1
  Cu  Cu9  1  0.80263100  0.22647500  0.34474300  1
  Cu  Cu10  1  0.19736900  0.77352500  0.34474300  1
  Cu  Cu11  1  0.27352500  0.30263100  0.34474300  1
  Cu  Cu12  1  0.77352500  0.80263100  0.65525700  1
  Cu  Cu13  1  0.69736900  0.27352500  0.65525700  1
  Cu  Cu14  1  0.30263100  0.72647500  0.65525700  1
  Cu  Cu15  1  0.22647500  0.19736900  0.65525700  1
  Cu  Cu16  1  0.97867400  0.13246200  0.11941600  1
  Cu  Cu17  1  0.36753800  0.47867400  0.11941600  1
  Cu  Cu18  1  0.63246200  0.52132600  0.11941600  1
  Cu  Cu19  1  0.02132600  0.86753800  0.11941600  1
  Cu  Cu20  1  0.52132600  0.36753800  0.88058400  1
  Cu  Cu21  1  0.13246200  0.02132600  0.88058400  1
  Cu  Cu22  1  0.86753800  0.97867400  0.88058400  1
  Cu  Cu23  1  0.47867400  0.63246200  0.88058400  1
  Cu  Cu24  1  0.53246300  0.35993600  0.38706500  1
  Cu  Cu25  1  0.14006400  0.03246300  0.38706500  1
  Cu  Cu26  1  0.85993600  0.96753700  0.38706500  1
  Cu  Cu27  1  0.46753700  0.64006400  0.38706500  1
  Cu  Cu28  1  0.96753700  0.14006400  0.61293500  1
  Cu  Cu29  1  0.35993600  0.46753700  0.61293500  1
  Cu  Cu30  1  0.64006400  0.53246300  0.61293500  1
  Cu  Cu31  1  0.03246300  0.85993600  0.61293500  1
  S  S32  1  0.23928000  0.93989800  0.13323100  1
  S  S33  1  0.56010200  0.73928000  0.13323100  1
  S  S34  1  0.43989800  0.26072000  0.13323100  1
  S  S35  1  0.76072000  0.06010200  0.13323100  1
  S  S36  1  0.26072000  0.56010200  0.86676900  1
  S  S37  1  0.93989800  0.76072000  0.86676900  1
  S  S38  1  0.06010200  0.23928000  0.86676900  1
  S  S39  1  0.73928000  0.43989800  0.86676900  1
  S  S40  1  0.25969800  0.56186100  0.36889400  1
  S  S41  1  0.93813900  0.75969800  0.36889400  1
  S  S42  1  0.06186100  0.24030200  0.36889400  1
  S  S43  1  0.74030200  0.43813900  0.36889400  1
  S  S44  1  0.24030200  0.93813900  0.63110600  1
  S  S45  1  0.56186100  0.74030200  0.63110600  1
  S  S46  1  0.43813900  0.25969800  0.63110600  1
  S  S47  1  0.75969800  0.06186100  0.63110600  1
