# generated using pymatgen
data_Ca10P6O25
_symmetry_space_group_name_H-M   'P 1'
_cell_length_a   9.59496077
_cell_length_b   9.59496077
_cell_length_c   6.90069700
_cell_angle_alpha   90.00000000
_cell_angle_beta   90.00000000
_cell_angle_gamma   120.00000000
_symmetry_Int_Tables_number   1
_chemical_formula_structural   Ca10P6O25
_chemical_formula_sum   'Ca10 P6 O25'
_cell_volume   550.18658545
_cell_formula_units_Z   1
loop_
 _symmetry_equiv_pos_site_id
 _symmetry_equiv_pos_as_xyz
  1  'x, y, z'
loop_
 _atom_site_type_symbol
 _atom_site_label
 _atom_site_symmetry_multiplicity
 _atom_site_fract_x
 _atom_site_fract_y
 _atom_site_fract_z
 _atom_site_occupancy
  Ca  Ca0  1  0.33333333  0.66666667  0.74646300  1
  Ca  Ca1  1  0.66666667  0.33333333  0.74380600  1
  Ca  Ca2  1  0.33333333  0.66666667  0.25353700  1
  Ca  Ca3  1  0.27532400  0.99563700  0.00000000  1
  Ca  Ca4  1  0.72031300  0.72467600  0.00000000  1
  Ca  Ca5  1  0.00436300  0.27968700  0.00000000  1
  Ca  Ca6  1  0.76993900  0.99187100  0.50000000  1
  Ca  Ca7  1  0.22193200  0.23006100  0.50000000  1
  Ca  Ca8  1  0.00812900  0.77806800  0.50000000  1
  Ca  Ca9  1  0.66666667  0.33333333  0.25619400  1
  P  P10  1  0.97073400  0.61567500  0.00000000  1
  P  P11  1  0.64494100  0.02926600  0.00000000  1
  P  P12  1  0.58759800  0.61832400  0.50000000  1
  P  P13  1  0.03072600  0.41240200  0.50000000  1
  P  P14  1  0.38167600  0.96927400  0.50000000  1
  P  P15  1  0.38432500  0.35505900  0.00000000  1
  O  O16  1  0.32481600  0.47895900  0.00000000  1
  O  O17  1  0.15414300  0.67518400  0.00000000  1
  O  O18  1  0.52104100  0.84585700  0.00000000  1
  O  O19  1  0.65540700  0.50210200  0.50000000  1
  O  O20  1  0.84669500  0.34459300  0.50000000  1
  O  O21  1  0.49789800  0.15330500  0.50000000  1
  O  O22  1  0.57361900  0.44755300  0.00000000  1
  O  O23  1  0.87393400  0.42638100  0.00000000  1
  O  O24  1  0.55244700  0.12606600  0.00000000  1
  O  O25  1  0.40019100  0.52626700  0.50000000  1
  O  O26  1  0.12607600  0.59980900  0.50000000  1
  O  O27  1  0.47373300  0.87392400  0.50000000  1
  O  O28  1  0.32418200  0.24191300  0.82137500  1
  O  O29  1  0.91773100  0.67581800  0.17862500  1
  O  O30  1  0.75808700  0.08226900  0.17862500  1
  O  O31  1  0.75808700  0.08226900  0.82137500  1
  O  O32  1  0.91773100  0.67581800  0.82137500  1
  O  O33  1  0.32418200  0.24191300  0.17862500  1
  O  O34  1  0.64355200  0.72758000  0.68290900  1
  O  O35  1  0.08402800  0.35644800  0.31709100  1
  O  O36  1  0.27242000  0.91597200  0.31709100  1
  O  O37  1  0.27242000  0.91597200  0.68290900  1
  O  O38  1  0.08402800  0.35644800  0.68290900  1
  O  O39  1  0.64355200  0.72758000  0.31709100  1
  O  O40  1  0.00000000  0.00000000  0.50000000  1
