# generated using pymatgen
data_VInO4
_symmetry_space_group_name_H-M   'P 1'
_cell_length_a   5.84724600
_cell_length_b   8.64736800
_cell_length_c   6.76519200
_cell_angle_alpha   90.00000000
_cell_angle_beta   90.00000000
_cell_angle_gamma   90.00000000
_symmetry_Int_Tables_number   1
_chemical_formula_structural   VInO4
_chemical_formula_sum   'V4 In4 O16'
_cell_volume   342.07035112
_cell_formula_units_Z   4
loop_
 _symmetry_equiv_pos_site_id
 _symmetry_equiv_pos_as_xyz
  1  'x, y, z'
loop_
 _atom_site_type_symbol
 _atom_site_label
 _atom_site_symmetry_multiplicity
 _atom_site_fract_x
 _atom_site_fract_y
 _atom_site_fract_z
 _atom_site_occupancy
  V  V0  1  0.50000000  0.86069900  0.75000000  1
  V  V1  1  0.50000000  0.13930100  0.25000000  1
  V  V2  1  0.00000000  0.36069900  0.75000000  1
  V  V3  1  0.00000000  0.63930100  0.25000000  1
  In  In4  1  0.00000000  0.00000000  0.00000000  1
  In  In5  1  0.00000000  0.00000000  0.50000000  1
  In  In6  1  0.50000000  0.50000000  0.00000000  1
  In  In7  1  0.50000000  0.50000000  0.50000000  1
  O  O8  1  0.24145600  0.97553000  0.75000000  1
  O  O9  1  0.24145600  0.02447000  0.25000000  1
  O  O10  1  0.75854400  0.02447000  0.25000000  1
  O  O11  1  0.75854400  0.97553000  0.75000000  1
  O  O12  1  0.50000000  0.25256500  0.04557200  1
  O  O13  1  0.50000000  0.74743500  0.95442800  1
  O  O14  1  0.50000000  0.25256500  0.45442800  1
  O  O15  1  0.50000000  0.74743500  0.54557200  1
  O  O16  1  0.74145600  0.47553000  0.75000000  1
  O  O17  1  0.74145600  0.52447000  0.25000000  1
  O  O18  1  0.25854400  0.52447000  0.25000000  1
  O  O19  1  0.25854400  0.47553000  0.75000000  1
  O  O20  1  0.00000000  0.75256500  0.04557200  1
  O  O21  1  0.00000000  0.24743500  0.95442800  1
  O  O22  1  0.00000000  0.75256500  0.45442800  1
  O  O23  1  0.00000000  0.24743500  0.54557200  1
