# generated using pymatgen
data_ZrCl2
_symmetry_space_group_name_H-M   'P 1'
_cell_length_a   3.41678578
_cell_length_b   3.41678578
_cell_length_c   20.71731526
_cell_angle_alpha   90.00000000
_cell_angle_beta   90.00000000
_cell_angle_gamma   120.00000000
_symmetry_Int_Tables_number   1
_chemical_formula_structural   ZrCl2
_chemical_formula_sum   'Zr3 Cl6'
_cell_volume   209.45928062
_cell_formula_units_Z   3
loop_
 _symmetry_equiv_pos_site_id
 _symmetry_equiv_pos_as_xyz
  1  'x, y, z'
loop_
 _atom_site_type_symbol
 _atom_site_label
 _atom_site_symmetry_multiplicity
 _atom_site_fract_x
 _atom_site_fract_y
 _atom_site_fract_z
 _atom_site_occupancy
  Zr  Zr0  1  0.66666667  0.33333333  0.33325633  1
  Zr  Zr1  1  0.33333333  0.66666667  0.66658967  1
  Zr  Zr2  1  0.00000000  0.00000000  0.99992300  1
  Cl  Cl3  1  0.33333333  0.66666667  0.25021067  1
  Cl  Cl4  1  0.66666667  0.33333333  0.08296633  1
  Cl  Cl5  1  0.00000000  0.00000000  0.58354400  1
  Cl  Cl6  1  0.33333333  0.66666667  0.41629967  1
  Cl  Cl7  1  0.66666667  0.33333333  0.91687733  1
  Cl  Cl8  1  0.00000000  0.00000000  0.74963300  1
