# generated using pymatgen
data_LiLa2HO3
_symmetry_space_group_name_H-M   'P 1'
_cell_length_a   3.58169600
_cell_length_b   3.79839400
_cell_length_c   12.93057600
_cell_angle_alpha   90.00000000
_cell_angle_beta   90.00000000
_cell_angle_gamma   90.00000000
_symmetry_Int_Tables_number   1
_chemical_formula_structural   LiLa2HO3
_chemical_formula_sum   'Li2 La4 H2 O6'
_cell_volume   175.91651157
_cell_formula_units_Z   2
loop_
 _symmetry_equiv_pos_site_id
 _symmetry_equiv_pos_as_xyz
  1  'x, y, z'
loop_
 _atom_site_type_symbol
 _atom_site_label
 _atom_site_symmetry_multiplicity
 _atom_site_fract_x
 _atom_site_fract_y
 _atom_site_fract_z
 _atom_site_occupancy
  Li  Li0  1  0.00000000  0.00000000  0.00000000  1
  Li  Li1  1  0.50000000  0.50000000  0.50000000  1
  La  La2  1  0.50000000  0.50000000  0.86344600  1
  La  La3  1  0.00000000  0.00000000  0.63655400  1
  La  La4  1  0.00000000  0.00000000  0.36344600  1
  La  La5  1  0.50000000  0.50000000  0.13655400  1
  H  H6  1  0.50000000  0.00000000  0.00000000  1
  H  H7  1  0.00000000  0.50000000  0.50000000  1
  O  O8  1  0.00000000  0.50000000  0.00000000  1
  O  O9  1  0.00000000  0.00000000  0.82277400  1
  O  O10  1  0.50000000  0.50000000  0.67722600  1
  O  O11  1  0.50000000  0.00000000  0.50000000  1
  O  O12  1  0.50000000  0.50000000  0.32277400  1
  O  O13  1  0.00000000  0.00000000  0.17722600  1
