# generated using pymatgen
data_Sr3Zr2O7
_symmetry_space_group_name_H-M   'P 1'
_cell_length_a   4.19130200
_cell_length_b   4.19130200
_cell_length_c   21.14639400
_cell_angle_alpha   90.00000000
_cell_angle_beta   90.00000000
_cell_angle_gamma   90.00000000
_symmetry_Int_Tables_number   1
_chemical_formula_structural   Sr3Zr2O7
_chemical_formula_sum   'Sr6 Zr4 O14'
_cell_volume   371.47896678
_cell_formula_units_Z   2
loop_
 _symmetry_equiv_pos_site_id
 _symmetry_equiv_pos_as_xyz
  1  'x, y, z'
loop_
 _atom_site_type_symbol
 _atom_site_label
 _atom_site_symmetry_multiplicity
 _atom_site_fract_x
 _atom_site_fract_y
 _atom_site_fract_z
 _atom_site_occupancy
  Sr  Sr0  1  0.50000000  0.50000000  0.00000000  1
  Sr  Sr1  1  0.50000000  0.50000000  0.18640300  1
  Sr  Sr2  1  0.00000000  0.00000000  0.31359700  1
  Sr  Sr3  1  0.00000000  0.00000000  0.50000000  1
  Sr  Sr4  1  0.00000000  0.00000000  0.68640300  1
  Sr  Sr5  1  0.50000000  0.50000000  0.81359700  1
  Zr  Zr6  1  0.50000000  0.50000000  0.39959800  1
  Zr  Zr7  1  0.00000000  0.00000000  0.10040200  1
  Zr  Zr8  1  0.00000000  0.00000000  0.89959800  1
  Zr  Zr9  1  0.50000000  0.50000000  0.60040200  1
  O  O10  1  0.50000000  0.00000000  0.40156900  1
  O  O11  1  0.00000000  0.50000000  0.09843100  1
  O  O12  1  0.00000000  0.50000000  0.40156900  1
  O  O13  1  0.50000000  0.00000000  0.09843100  1
  O  O14  1  0.50000000  0.50000000  0.30016300  1
  O  O15  1  0.00000000  0.00000000  0.19983700  1
  O  O16  1  0.00000000  0.00000000  0.00000000  1
  O  O17  1  0.00000000  0.50000000  0.90156900  1
  O  O18  1  0.50000000  0.00000000  0.59843100  1
  O  O19  1  0.50000000  0.00000000  0.90156900  1
  O  O20  1  0.00000000  0.50000000  0.59843100  1
  O  O21  1  0.00000000  0.00000000  0.80016300  1
  O  O22  1  0.50000000  0.50000000  0.69983700  1
  O  O23  1  0.50000000  0.50000000  0.50000000  1
