# generated using pymatgen
data_BeCl2
_symmetry_space_group_name_H-M   'P 1'
_cell_length_a   5.24706200
_cell_length_b   5.73791200
_cell_length_c   10.63197600
_cell_angle_alpha   90.00000000
_cell_angle_beta   90.00000000
_cell_angle_gamma   90.00000000
_symmetry_Int_Tables_number   1
_chemical_formula_structural   BeCl2
_chemical_formula_sum   'Be4 Cl8'
_cell_volume   320.09881534
_cell_formula_units_Z   4
loop_
 _symmetry_equiv_pos_site_id
 _symmetry_equiv_pos_as_xyz
  1  'x, y, z'
loop_
 _atom_site_type_symbol
 _atom_site_label
 _atom_site_symmetry_multiplicity
 _atom_site_fract_x
 _atom_site_fract_y
 _atom_site_fract_z
 _atom_site_occupancy
  Be  Be0  1  0.25000000  0.00000000  0.00000000  1
  Be  Be1  1  0.75000000  0.00000000  0.00000000  1
  Be  Be2  1  0.75000000  0.50000000  0.50000000  1
  Be  Be3  1  0.25000000  0.50000000  0.50000000  1
  Cl  Cl4  1  0.00000000  0.69194000  0.39651800  1
  Cl  Cl5  1  0.50000000  0.80806000  0.10348200  1
  Cl  Cl6  1  0.50000000  0.30806000  0.39651800  1
  Cl  Cl7  1  0.00000000  0.19194000  0.10348200  1
  Cl  Cl8  1  0.50000000  0.19194000  0.89651800  1
  Cl  Cl9  1  0.00000000  0.30806000  0.60348200  1
  Cl  Cl10  1  0.00000000  0.80806000  0.89651800  1
  Cl  Cl11  1  0.50000000  0.69194000  0.60348200  1
