# generated using pymatgen
data_K(BH)3
_symmetry_space_group_name_H-M   'P 1'
_cell_length_a   8.89985200
_cell_length_b   8.89985200
_cell_length_c   8.89985200
_cell_angle_alpha   90.00000000
_cell_angle_beta   90.00000000
_cell_angle_gamma   90.00000000
_symmetry_Int_Tables_number   1
_chemical_formula_structural   K(BH)3
_chemical_formula_sum   'K8 B24 H24'
_cell_volume   704.93383134
_cell_formula_units_Z   8
loop_
 _symmetry_equiv_pos_site_id
 _symmetry_equiv_pos_as_xyz
  1  'x, y, z'
loop_
 _atom_site_type_symbol
 _atom_site_label
 _atom_site_symmetry_multiplicity
 _atom_site_fract_x
 _atom_site_fract_y
 _atom_site_fract_z
 _atom_site_occupancy
  K  K0  1  0.25000000  0.75000000  0.75000000  1
  K  K1  1  0.25000000  0.25000000  0.75000000  1
  K  K2  1  0.25000000  0.25000000  0.25000000  1
  K  K3  1  0.25000000  0.75000000  0.25000000  1
  K  K4  1  0.75000000  0.75000000  0.25000000  1
  K  K5  1  0.75000000  0.25000000  0.25000000  1
  K  K6  1  0.75000000  0.25000000  0.75000000  1
  K  K7  1  0.75000000  0.75000000  0.75000000  1
  B  B8  1  0.50000000  0.36255800  0.00000000  1
  B  B9  1  0.00000000  0.00000000  0.86255800  1
  B  B10  1  0.86255800  0.00000000  0.00000000  1
  B  B11  1  0.50000000  0.00000000  0.63744200  1
  B  B12  1  0.50000000  0.63744200  0.00000000  1
  B  B13  1  0.13744200  0.00000000  0.00000000  1
  B  B14  1  0.50000000  0.86255800  0.50000000  1
  B  B15  1  0.00000000  0.50000000  0.36255800  1
  B  B16  1  0.86255800  0.50000000  0.50000000  1
  B  B17  1  0.50000000  0.50000000  0.13744200  1
  B  B18  1  0.50000000  0.13744200  0.50000000  1
  B  B19  1  0.13744200  0.50000000  0.50000000  1
  B  B20  1  0.00000000  0.36255800  0.50000000  1
  B  B21  1  0.50000000  0.00000000  0.36255800  1
  B  B22  1  0.36255800  0.00000000  0.50000000  1
  B  B23  1  0.00000000  0.00000000  0.13744200  1
  B  B24  1  0.00000000  0.63744200  0.50000000  1
  B  B25  1  0.63744200  0.00000000  0.50000000  1
  B  B26  1  0.00000000  0.86255800  0.00000000  1
  B  B27  1  0.50000000  0.50000000  0.86255800  1
  B  B28  1  0.36255800  0.50000000  0.00000000  1
  B  B29  1  0.00000000  0.50000000  0.63744200  1
  B  B30  1  0.00000000  0.13744200  0.00000000  1
  B  B31  1  0.63744200  0.50000000  0.00000000  1
  H  H32  1  0.00000000  0.00000000  0.72686300  1
  H  H33  1  0.50000000  0.22686300  0.00000000  1
  H  H34  1  0.72686300  0.00000000  0.00000000  1
  H  H35  1  0.50000000  0.00000000  0.77313700  1
  H  H36  1  0.50000000  0.77313700  0.00000000  1
  H  H37  1  0.27313700  0.00000000  0.00000000  1
  H  H38  1  0.00000000  0.50000000  0.22686300  1
  H  H39  1  0.50000000  0.72686300  0.50000000  1
  H  H40  1  0.72686300  0.50000000  0.50000000  1
  H  H41  1  0.50000000  0.50000000  0.27313700  1
  H  H42  1  0.50000000  0.27313700  0.50000000  1
  H  H43  1  0.27313700  0.50000000  0.50000000  1
  H  H44  1  0.50000000  0.00000000  0.22686300  1
  H  H45  1  0.00000000  0.22686300  0.50000000  1
  H  H46  1  0.22686300  0.00000000  0.50000000  1
  H  H47  1  0.00000000  0.00000000  0.27313700  1
  H  H48  1  0.00000000  0.77313700  0.50000000  1
  H  H49  1  0.77313700  0.00000000  0.50000000  1
  H  H50  1  0.50000000  0.50000000  0.72686300  1
  H  H51  1  0.00000000  0.72686300  0.00000000  1
  H  H52  1  0.22686300  0.50000000  0.00000000  1
  H  H53  1  0.00000000  0.50000000  0.77313700  1
  H  H54  1  0.00000000  0.27313700  0.00000000  1
  H  H55  1  0.77313700  0.50000000  0.00000000  1
