# generated using pymatgen
data_Rb3Cu2Cl7
_symmetry_space_group_name_H-M   'P 1'
_cell_length_a   7.32583400
_cell_length_b   25.08352400
_cell_length_c   7.32366200
_cell_angle_alpha   90.00000000
_cell_angle_beta   90.00000000
_cell_angle_gamma   90.00000000
_symmetry_Int_Tables_number   1
_chemical_formula_structural   Rb3Cu2Cl7
_chemical_formula_sum   'Rb12 Cu8 Cl28'
_cell_volume   1345.77952608
_cell_formula_units_Z   4
loop_
 _symmetry_equiv_pos_site_id
 _symmetry_equiv_pos_as_xyz
  1  'x, y, z'
loop_
 _atom_site_type_symbol
 _atom_site_label
 _atom_site_symmetry_multiplicity
 _atom_site_fract_x
 _atom_site_fract_y
 _atom_site_fract_z
 _atom_site_occupancy
  Rb  Rb0  1  0.00000000  0.17905700  0.50000000  1
  Rb  Rb1  1  0.50000000  0.32094300  0.50000000  1
  Rb  Rb2  1  0.00000000  0.32094300  0.00000000  1
  Rb  Rb3  1  0.50000000  0.17905700  0.00000000  1
  Rb  Rb4  1  0.00000000  0.00000000  0.50000000  1
  Rb  Rb5  1  0.50000000  0.00000000  0.00000000  1
  Rb  Rb6  1  0.50000000  0.67905700  0.50000000  1
  Rb  Rb7  1  0.00000000  0.82094300  0.50000000  1
  Rb  Rb8  1  0.50000000  0.82094300  0.00000000  1
  Rb  Rb9  1  0.00000000  0.67905700  0.00000000  1
  Rb  Rb10  1  0.50000000  0.50000000  0.50000000  1
  Rb  Rb11  1  0.00000000  0.50000000  0.00000000  1
  Cu  Cu12  1  0.00000000  0.40488600  0.50000000  1
  Cu  Cu13  1  0.50000000  0.09511400  0.50000000  1
  Cu  Cu14  1  0.00000000  0.09511400  0.00000000  1
  Cu  Cu15  1  0.50000000  0.40488600  0.00000000  1
  Cu  Cu16  1  0.50000000  0.90488600  0.50000000  1
  Cu  Cu17  1  0.00000000  0.59511400  0.50000000  1
  Cu  Cu18  1  0.50000000  0.59511400  0.00000000  1
  Cu  Cu19  1  0.00000000  0.90488600  0.00000000  1
  Cl  Cl20  1  0.71557600  0.40800700  0.78441800  1
  Cl  Cl21  1  0.21557600  0.09199300  0.21558200  1
  Cl  Cl22  1  0.78442400  0.09199300  0.78441800  1
  Cl  Cl23  1  0.28442400  0.40800700  0.21558200  1
  Cl  Cl24  1  0.28442400  0.09199300  0.71558200  1
  Cl  Cl25  1  0.78442400  0.40800700  0.28441800  1
  Cl  Cl26  1  0.21557600  0.40800700  0.71558200  1
  Cl  Cl27  1  0.71557600  0.09199300  0.28441800  1
  Cl  Cl28  1  0.00000000  0.31039000  0.50000000  1
  Cl  Cl29  1  0.50000000  0.18961000  0.50000000  1
  Cl  Cl30  1  0.50000000  0.00000000  0.50000000  1
  Cl  Cl31  1  0.00000000  0.00000000  0.00000000  1
  Cl  Cl32  1  0.50000000  0.31039000  0.00000000  1
  Cl  Cl33  1  0.00000000  0.18961000  0.00000000  1
  Cl  Cl34  1  0.21557600  0.90800700  0.78441800  1
  Cl  Cl35  1  0.71557600  0.59199300  0.21558200  1
  Cl  Cl36  1  0.28442400  0.59199300  0.78441800  1
  Cl  Cl37  1  0.78442400  0.90800700  0.21558200  1
  Cl  Cl38  1  0.78442400  0.59199300  0.71558200  1
  Cl  Cl39  1  0.28442400  0.90800700  0.28441800  1
  Cl  Cl40  1  0.71557600  0.90800700  0.71558200  1
  Cl  Cl41  1  0.21557600  0.59199300  0.28441800  1
  Cl  Cl42  1  0.50000000  0.81039000  0.50000000  1
  Cl  Cl43  1  0.00000000  0.68961000  0.50000000  1
  Cl  Cl44  1  0.00000000  0.50000000  0.50000000  1
  Cl  Cl45  1  0.50000000  0.50000000  0.00000000  1
  Cl  Cl46  1  0.00000000  0.81039000  0.00000000  1
  Cl  Cl47  1  0.50000000  0.68961000  0.00000000  1
