# generated using pymatgen
data_K2Os(Cl2O)2
_symmetry_space_group_name_H-M   'P 1'
_cell_length_a   7.22629400
_cell_length_b   7.22629400
_cell_length_c   8.78826200
_cell_angle_alpha   90.00000000
_cell_angle_beta   90.00000000
_cell_angle_gamma   90.00000000
_symmetry_Int_Tables_number   1
_chemical_formula_structural   K2Os(Cl2O)2
_chemical_formula_sum   'K4 Os2 Cl8 O4'
_cell_volume   458.91710934
_cell_formula_units_Z   2
loop_
 _symmetry_equiv_pos_site_id
 _symmetry_equiv_pos_as_xyz
  1  'x, y, z'
loop_
 _atom_site_type_symbol
 _atom_site_label
 _atom_site_symmetry_multiplicity
 _atom_site_fract_x
 _atom_site_fract_y
 _atom_site_fract_z
 _atom_site_occupancy
  K  K0  1  0.00000000  0.50000000  0.25000000  1
  K  K1  1  0.50000000  0.00000000  0.25000000  1
  K  K2  1  0.50000000  0.00000000  0.75000000  1
  K  K3  1  0.00000000  0.50000000  0.75000000  1
  Os  Os4  1  0.00000000  0.00000000  0.00000000  1
  Os  Os5  1  0.50000000  0.50000000  0.50000000  1
  Cl  Cl6  1  0.26351150  0.26351150  0.50000000  1
  Cl  Cl7  1  0.23648850  0.23648850  0.00000000  1
  Cl  Cl8  1  0.26351150  0.73648850  0.50000000  1
  Cl  Cl9  1  0.73648850  0.26351150  0.50000000  1
  Cl  Cl10  1  0.76351150  0.76351150  0.00000000  1
  Cl  Cl11  1  0.73648850  0.73648850  0.50000000  1
  Cl  Cl12  1  0.76351150  0.23648850  0.00000000  1
  Cl  Cl13  1  0.23648850  0.76351150  0.00000000  1
  O  O14  1  0.00000000  0.00000000  0.80015100  1
  O  O15  1  0.00000000  0.00000000  0.19984900  1
  O  O16  1  0.50000000  0.50000000  0.30015100  1
  O  O17  1  0.50000000  0.50000000  0.69984900  1
