# generated using pymatgen
data_LaP2
_symmetry_space_group_name_H-M   'P 1'
_cell_length_a   12.55274600
_cell_length_b   14.00768000
_cell_length_c   8.84827626
_cell_angle_alpha   90.00000000
_cell_angle_beta   134.62902535
_cell_angle_gamma   90.00000000
_symmetry_Int_Tables_number   1
_chemical_formula_structural   LaP2
_chemical_formula_sum   'La16 P32'
_cell_volume   1107.24171563
_cell_formula_units_Z   16
loop_
 _symmetry_equiv_pos_site_id
 _symmetry_equiv_pos_as_xyz
  1  'x, y, z'
loop_
 _atom_site_type_symbol
 _atom_site_label
 _atom_site_symmetry_multiplicity
 _atom_site_fract_x
 _atom_site_fract_y
 _atom_site_fract_z
 _atom_site_occupancy
  La  La0  1  0.36969150  0.03838450  0.44233800  1
  La  La1  1  0.86969150  0.46161550  0.94233800  1
  La  La2  1  0.25130650  0.30776350  0.50160300  1
  La  La3  1  0.75130650  0.19223650  0.00160300  1
  La  La4  1  0.47372650  0.45706850  0.35276800  1
  La  La5  1  0.97372650  0.04293150  0.85276800  1
  La  La6  1  0.04729150  0.27292850  0.69655500  1
  La  La7  1  0.54729150  0.22707150  0.19655500  1
  La  La8  1  0.86969150  0.53838450  0.44233800  1
  La  La9  1  0.36969150  0.96161550  0.94233800  1
  La  La10  1  0.75130650  0.80776350  0.50160300  1
  La  La11  1  0.25130650  0.69223650  0.00160300  1
  La  La12  1  0.97372650  0.95706850  0.35276800  1
  La  La13  1  0.47372650  0.54293150  0.85276800  1
  La  La14  1  0.54729150  0.77292850  0.69655500  1
  La  La15  1  0.04729150  0.72707150  0.19655500  1
  P  P16  1  0.33669850  0.38453750  0.90506600  1
  P  P17  1  0.83669850  0.11546250  0.40506600  1
  P  P18  1  0.18307000  0.46633600  0.89616600  1
  P  P19  1  0.68307000  0.03366400  0.39616600  1
  P  P20  1  0.66348400  0.12885800  0.58991800  1
  P  P21  1  0.16348400  0.37114200  0.08991800  1
  P  P22  1  0.33376950  0.25493150  0.25169600  1
  P  P23  1  0.83376950  0.24506850  0.75169600  1
  P  P24  1  0.43589950  0.13275950  0.80059200  1
  P  P25  1  0.93589950  0.36724050  0.30059200  1
  P  P26  1  0.19152250  0.12728150  0.59979200  1
  P  P27  1  0.69152250  0.37271850  0.09979200  1
  P  P28  1  0.57429650  0.37857850  0.75992100  1
  P  P29  1  0.07429650  0.12142150  0.25992100  1
  P  P30  1  0.76564400  0.36977800  0.54528700  1
  P  P31  1  0.26564400  0.13022200  0.04528700  1
  P  P32  1  0.83669850  0.88453750  0.90506600  1
  P  P33  1  0.33669850  0.61546250  0.40506600  1
  P  P34  1  0.68307000  0.96633600  0.89616600  1
  P  P35  1  0.18307000  0.53366400  0.39616600  1
  P  P36  1  0.16348400  0.62885800  0.58991800  1
  P  P37  1  0.66348400  0.87114200  0.08991800  1
  P  P38  1  0.83376950  0.75493150  0.25169600  1
  P  P39  1  0.33376950  0.74506850  0.75169600  1
  P  P40  1  0.93589950  0.63275950  0.80059200  1
  P  P41  1  0.43589950  0.86724050  0.30059200  1
  P  P42  1  0.69152250  0.62728150  0.59979200  1
  P  P43  1  0.19152250  0.87271850  0.09979200  1
  P  P44  1  0.07429650  0.87857850  0.75992100  1
  P  P45  1  0.57429650  0.62142150  0.25992100  1
  P  P46  1  0.26564400  0.86977800  0.54528700  1
  P  P47  1  0.76564400  0.63022200  0.04528700  1
