# generated using pymatgen
data_BiTe
_symmetry_space_group_name_H-M   'P 1'
_cell_length_a   4.48094954
_cell_length_b   4.48094954
_cell_length_c   24.95750000
_cell_angle_alpha   90.00000000
_cell_angle_beta   90.00000000
_cell_angle_gamma   120.00000000
_symmetry_Int_Tables_number   1
_chemical_formula_structural   BiTe
_chemical_formula_sum   'Bi6 Te6'
_cell_volume   433.98210086
_cell_formula_units_Z   6
loop_
 _symmetry_equiv_pos_site_id
 _symmetry_equiv_pos_as_xyz
  1  'x, y, z'
loop_
 _atom_site_type_symbol
 _atom_site_label
 _atom_site_symmetry_multiplicity
 _atom_site_fract_x
 _atom_site_fract_y
 _atom_site_fract_z
 _atom_site_occupancy
  Bi  Bi0  1  0.33333333  0.66666667  0.29099900  1
  Bi  Bi1  1  0.66666667  0.33333333  0.70900100  1
  Bi  Bi2  1  0.00000000  0.00000000  0.87132300  1
  Bi  Bi3  1  0.00000000  0.00000000  0.12867700  1
  Bi  Bi4  1  0.66666667  0.33333333  0.46637100  1
  Bi  Bi5  1  0.33333333  0.66666667  0.53362900  1
  Te  Te6  1  0.33333333  0.66666667  0.06066600  1
  Te  Te7  1  0.66666667  0.33333333  0.93933400  1
  Te  Te8  1  0.00000000  0.00000000  0.63988900  1
  Te  Te9  1  0.00000000  0.00000000  0.36011100  1
  Te  Te10  1  0.66666667  0.33333333  0.21033000  1
  Te  Te11  1  0.33333333  0.66666667  0.78967000  1
