# generated using pymatgen
data_Tl4SiSe4
_symmetry_space_group_name_H-M   'P 1'
_cell_length_a   12.17976800
_cell_length_b   7.49273800
_cell_length_c   25.28451897
_cell_angle_alpha   90.00000000
_cell_angle_beta   99.76291574
_cell_angle_gamma   90.00000000
_symmetry_Int_Tables_number   1
_chemical_formula_structural   Tl4SiSe4
_chemical_formula_sum   'Tl32 Si8 Se32'
_cell_volume   2274.04344329
_cell_formula_units_Z   8
loop_
 _symmetry_equiv_pos_site_id
 _symmetry_equiv_pos_as_xyz
  1  'x, y, z'
loop_
 _atom_site_type_symbol
 _atom_site_label
 _atom_site_symmetry_multiplicity
 _atom_site_fract_x
 _atom_site_fract_y
 _atom_site_fract_z
 _atom_site_occupancy
  Tl  Tl0  1  0.00000000  0.82488400  0.25000000  1
  Tl  Tl1  1  0.50000000  0.67511600  0.75000000  1
  Tl  Tl2  1  0.00000000  0.00000000  0.00000000  1
  Tl  Tl3  1  0.00000000  0.00000000  0.50000000  1
  Tl  Tl4  1  0.19519450  0.14280050  0.16357900  1
  Tl  Tl5  1  0.30480550  0.64280050  0.33642100  1
  Tl  Tl6  1  0.30480550  0.35719950  0.83642100  1
  Tl  Tl7  1  0.19519450  0.85719950  0.66357900  1
  Tl  Tl8  1  0.61537600  0.70954300  0.32503600  1
  Tl  Tl9  1  0.38462400  0.70954300  0.17496400  1
  Tl  Tl10  1  0.88462400  0.79045700  0.67496400  1
  Tl  Tl11  1  0.11537600  0.79045700  0.82503600  1
  Tl  Tl12  1  0.31472250  0.03591850  0.00010200  1
  Tl  Tl13  1  0.68527750  0.03591850  0.49989800  1
  Tl  Tl14  1  0.18527750  0.46408150  0.99989800  1
  Tl  Tl15  1  0.81472250  0.46408150  0.50010200  1
  Tl  Tl16  1  0.50000000  0.32488400  0.25000000  1
  Tl  Tl17  1  0.00000000  0.17511600  0.75000000  1
  Tl  Tl18  1  0.50000000  0.50000000  0.00000000  1
  Tl  Tl19  1  0.50000000  0.50000000  0.50000000  1
  Tl  Tl20  1  0.69519450  0.64280050  0.16357900  1
  Tl  Tl21  1  0.80480550  0.14280050  0.33642100  1
  Tl  Tl22  1  0.80480550  0.85719950  0.83642100  1
  Tl  Tl23  1  0.69519450  0.35719950  0.66357900  1
  Tl  Tl24  1  0.11537600  0.20954300  0.32503600  1
  Tl  Tl25  1  0.88462400  0.20954300  0.17496400  1
  Tl  Tl26  1  0.38462400  0.29045700  0.67496400  1
  Tl  Tl27  1  0.61537600  0.29045700  0.82503600  1
  Tl  Tl28  1  0.81472250  0.53591850  0.00010200  1
  Tl  Tl29  1  0.18527750  0.53591850  0.49989800  1
  Tl  Tl30  1  0.68527750  0.96408150  0.99989800  1
  Tl  Tl31  1  0.31472250  0.96408150  0.50010200  1
  Si  Si32  1  0.06346200  0.62302500  0.12352100  1
  Si  Si33  1  0.06346200  0.37697500  0.62352100  1
  Si  Si34  1  0.43653800  0.87697500  0.87647900  1
  Si  Si35  1  0.43653800  0.12302500  0.37647900  1
  Si  Si36  1  0.56346200  0.12302500  0.12352100  1
  Si  Si37  1  0.56346200  0.87697500  0.62352100  1
  Si  Si38  1  0.93653800  0.37697500  0.87647900  1
  Si  Si39  1  0.93653800  0.62302500  0.37647900  1
  Se  Se40  1  0.64785400  0.04664900  0.20866400  1
  Se  Se41  1  0.40681450  0.70205250  0.61830500  1
  Se  Se42  1  0.90681450  0.79794750  0.11830500  1
  Se  Se43  1  0.09318550  0.79794750  0.38169500  1
  Se  Se44  1  0.98273650  0.64245250  0.92231000  1
  Se  Se45  1  0.59318550  0.70205250  0.88169500  1
  Se  Se46  1  0.51726350  0.85754750  0.07769000  1
  Se  Se47  1  0.48273650  0.85754750  0.42231000  1
  Se  Se48  1  0.19010850  0.22232850  0.58270000  1
  Se  Se49  1  0.30989150  0.72232850  0.91730000  1
  Se  Se50  1  0.30989150  0.27767150  0.41730000  1
  Se  Se51  1  0.19010850  0.77767150  0.08270000  1
  Se  Se52  1  0.35214600  0.04664900  0.29133600  1
  Se  Se53  1  0.85214600  0.45335100  0.79133600  1
  Se  Se54  1  0.14785400  0.45335100  0.70866400  1
  Se  Se55  1  0.01726350  0.64245250  0.57769000  1
  Se  Se56  1  0.14785400  0.54664900  0.20866400  1
  Se  Se57  1  0.90681450  0.20205250  0.61830500  1
  Se  Se58  1  0.40681450  0.29794750  0.11830500  1
  Se  Se59  1  0.59318550  0.29794750  0.38169500  1
  Se  Se60  1  0.48273650  0.14245250  0.92231000  1
  Se  Se61  1  0.09318550  0.20205250  0.88169500  1
  Se  Se62  1  0.01726350  0.35754750  0.07769000  1
  Se  Se63  1  0.98273650  0.35754750  0.42231000  1
  Se  Se64  1  0.69010850  0.72232850  0.58270000  1
  Se  Se65  1  0.80989150  0.22232850  0.91730000  1
  Se  Se66  1  0.80989150  0.77767150  0.41730000  1
  Se  Se67  1  0.69010850  0.27767150  0.08270000  1
  Se  Se68  1  0.85214600  0.54664900  0.29133600  1
  Se  Se69  1  0.35214600  0.95335100  0.79133600  1
  Se  Se70  1  0.64785400  0.95335100  0.70866400  1
  Se  Se71  1  0.51726350  0.14245250  0.57769000  1
