# generated using pymatgen
data_Sr5U3O14
_symmetry_space_group_name_H-M   'P 1'
_cell_length_a   11.21530500
_cell_length_b   11.33356500
_cell_length_c   11.33454100
_cell_angle_alpha   90.00000000
_cell_angle_beta   90.00000000
_cell_angle_gamma   90.00000000
_symmetry_Int_Tables_number   1
_chemical_formula_structural   Sr5U3O14
_chemical_formula_sum   'Sr20 U12 O56'
_cell_volume   1440.72657218
_cell_formula_units_Z   4
loop_
 _symmetry_equiv_pos_site_id
 _symmetry_equiv_pos_as_xyz
  1  'x, y, z'
loop_
 _atom_site_type_symbol
 _atom_site_label
 _atom_site_symmetry_multiplicity
 _atom_site_fract_x
 _atom_site_fract_y
 _atom_site_fract_z
 _atom_site_occupancy
  Sr  Sr0  1  0.50000000  0.00000000  0.00000000  1
  Sr  Sr1  1  0.00000000  0.50000000  0.00000000  1
  Sr  Sr2  1  0.50000000  0.50000000  0.50000000  1
  Sr  Sr3  1  0.00000000  0.00000000  0.50000000  1
  Sr  Sr4  1  0.25713500  0.26153700  0.01978400  1
  Sr  Sr5  1  0.75713500  0.23846300  0.98021600  1
  Sr  Sr6  1  0.74286500  0.76153700  0.48021600  1
  Sr  Sr7  1  0.24286500  0.73846300  0.51978400  1
  Sr  Sr8  1  0.74286500  0.73846300  0.98021600  1
  Sr  Sr9  1  0.24286500  0.76153700  0.01978400  1
  Sr  Sr10  1  0.25713500  0.23846300  0.51978400  1
  Sr  Sr11  1  0.75713500  0.26153700  0.48021600  1
  Sr  Sr12  1  0.27607000  0.50419900  0.25065100  1
  Sr  Sr13  1  0.77607000  0.99580100  0.74934900  1
  Sr  Sr14  1  0.72393000  0.00419900  0.24934900  1
  Sr  Sr15  1  0.22393000  0.49580100  0.75065100  1
  Sr  Sr16  1  0.72393000  0.49580100  0.74934900  1
  Sr  Sr17  1  0.22393000  0.00419900  0.25065100  1
  Sr  Sr18  1  0.27607000  0.99580100  0.75065100  1
  Sr  Sr19  1  0.77607000  0.50419900  0.24934900  1
  U  U20  1  0.00000000  0.00000000  0.00000000  1
  U  U21  1  0.50000000  0.50000000  0.00000000  1
  U  U22  1  0.00000000  0.50000000  0.50000000  1
  U  U23  1  0.50000000  0.00000000  0.50000000  1
  U  U24  1  0.00110600  0.25162000  0.24396300  1
  U  U25  1  0.50110600  0.24838000  0.75603700  1
  U  U26  1  0.99889400  0.75162000  0.25603700  1
  U  U27  1  0.49889400  0.74838000  0.74396300  1
  U  U28  1  0.99889400  0.74838000  0.75603700  1
  U  U29  1  0.49889400  0.75162000  0.24396300  1
  U  U30  1  0.00110600  0.24838000  0.74396300  1
  U  U31  1  0.50110600  0.25162000  0.25603700  1
  O  O32  1  0.15960000  0.97501000  0.93298500  1
  O  O33  1  0.65960000  0.52499000  0.06701500  1
  O  O34  1  0.84040000  0.47501000  0.56701500  1
  O  O35  1  0.34040000  0.02499000  0.43298500  1
  O  O36  1  0.84040000  0.02499000  0.06701500  1
  O  O37  1  0.34040000  0.47501000  0.93298500  1
  O  O38  1  0.15960000  0.52499000  0.43298500  1
  O  O39  1  0.65960000  0.97501000  0.56701500  1
  O  O40  1  0.08207600  0.13067700  0.11164800  1
  O  O41  1  0.58207600  0.36932300  0.88835200  1
  O  O42  1  0.91792400  0.63067700  0.38835200  1
  O  O43  1  0.41792400  0.86932300  0.61164800  1
  O  O44  1  0.91792400  0.86932300  0.88835200  1
  O  O45  1  0.41792400  0.63067700  0.11164800  1
  O  O46  1  0.08207600  0.36932300  0.61164800  1
  O  O47  1  0.58207600  0.13067700  0.38835200  1
  O  O48  1  0.06732500  0.62167800  0.62868100  1
  O  O49  1  0.56732500  0.87832200  0.37131900  1
  O  O50  1  0.93267500  0.12167800  0.87131900  1
  O  O51  1  0.43267500  0.37832200  0.12868100  1
  O  O52  1  0.93267500  0.37832200  0.37131900  1
  O  O53  1  0.43267500  0.12167800  0.62868100  1
  O  O54  1  0.06732500  0.87832200  0.12868100  1
  O  O55  1  0.56732500  0.62167800  0.87131900  1
  O  O56  1  0.11246400  0.16786700  0.36284400  1
  O  O57  1  0.61246400  0.33213300  0.63715600  1
  O  O58  1  0.88753600  0.66786700  0.13715600  1
  O  O59  1  0.38753600  0.83213300  0.86284400  1
  O  O60  1  0.88753600  0.83213300  0.63715600  1
  O  O61  1  0.38753600  0.66786700  0.36284400  1
  O  O62  1  0.11246400  0.33213300  0.86284400  1
  O  O63  1  0.61246400  0.16786700  0.13715600  1
  O  O64  1  0.11280700  0.66101200  0.87198500  1
  O  O65  1  0.61280700  0.83898800  0.12801500  1
  O  O66  1  0.88719300  0.16101200  0.62801500  1
  O  O67  1  0.38719300  0.33898800  0.37198500  1
  O  O68  1  0.88719300  0.33898800  0.12801500  1
  O  O69  1  0.38719300  0.16101200  0.87198500  1
  O  O70  1  0.11280700  0.83898800  0.37198500  1
  O  O71  1  0.61280700  0.66101200  0.62801500  1
  O  O72  1  0.87580100  0.14651700  0.32137700  1
  O  O73  1  0.37580100  0.35348300  0.67862300  1
  O  O74  1  0.12419900  0.64651700  0.17862300  1
  O  O75  1  0.62419900  0.85348300  0.82137700  1
  O  O76  1  0.12419900  0.85348300  0.67862300  1
  O  O77  1  0.62419900  0.64651700  0.32137700  1
  O  O78  1  0.87580100  0.35348300  0.82137700  1
  O  O79  1  0.37580100  0.14651700  0.17862300  1
  O  O80  1  0.87506700  0.63616100  0.82777600  1
  O  O81  1  0.37506700  0.86383900  0.17222400  1
  O  O82  1  0.12493300  0.13616100  0.67222400  1
  O  O83  1  0.62493300  0.36383900  0.32777600  1
  O  O84  1  0.12493300  0.36383900  0.17222400  1
  O  O85  1  0.62493300  0.13616100  0.82777600  1
  O  O86  1  0.87506700  0.86383900  0.32777600  1
  O  O87  1  0.37506700  0.63616100  0.67222400  1
