# generated using pymatgen
data_RhF3
_symmetry_space_group_name_H-M   'P 1'
_cell_length_a   5.01084846
_cell_length_b   5.01084846
_cell_length_c   13.83859594
_cell_angle_alpha   90.00000000
_cell_angle_beta   90.00000000
_cell_angle_gamma   120.00000000
_symmetry_Int_Tables_number   1
_chemical_formula_structural   RhF3
_chemical_formula_sum   'Rh6 F18'
_cell_volume   300.91594265
_cell_formula_units_Z   6
loop_
 _symmetry_equiv_pos_site_id
 _symmetry_equiv_pos_as_xyz
  1  'x, y, z'
loop_
 _atom_site_type_symbol
 _atom_site_label
 _atom_site_symmetry_multiplicity
 _atom_site_fract_x
 _atom_site_fract_y
 _atom_site_fract_z
 _atom_site_occupancy
  Rh  Rh0  1  0.33333333  0.66666667  0.16666667  1
  Rh  Rh1  1  0.00000000  0.00000000  0.00000000  1
  Rh  Rh2  1  1.00000000  0.00000000  0.50000000  1
  Rh  Rh3  1  0.66666667  0.33333333  0.33333333  1
  Rh  Rh4  1  0.66666667  0.33333333  0.83333333  1
  Rh  Rh5  1  0.33333333  0.66666667  0.66666667  1
  F  F6  1  0.65972500  0.00000000  0.25000000  1
  F  F7  1  0.34027500  0.34027500  0.25000000  1
  F  F8  1  0.66666667  0.67360833  0.08333333  1
  F  F9  1  0.32639167  0.99305833  0.08333333  1
  F  F10  1  0.00694167  0.33333333  0.08333333  1
  F  F11  1  0.00000000  0.65972500  0.25000000  1
  F  F12  1  0.32639167  0.33333333  0.58333333  1
  F  F13  1  0.00694167  0.67360833  0.58333333  1
  F  F14  1  0.33333333  0.00694167  0.41666667  1
  F  F15  1  0.99305833  0.32639167  0.41666667  1
  F  F16  1  0.67360833  0.66666667  0.41666667  1
  F  F17  1  0.66666667  0.99305833  0.58333333  1
  F  F18  1  0.99305833  0.66666667  0.91666667  1
  F  F19  1  0.67360833  0.00694167  0.91666667  1
  F  F20  1  0.00000000  0.34027500  0.75000000  1
  F  F21  1  0.65972500  0.65972500  0.75000000  1
  F  F22  1  0.34027500  0.00000000  0.75000000  1
  F  F23  1  0.33333333  0.32639167  0.91666667  1
