# generated using pymatgen
data_Li2B2S5
_symmetry_space_group_name_H-M   'P 1'
_cell_length_a   6.57699400
_cell_length_b   15.95011600
_cell_length_c   7.00595200
_cell_angle_alpha   90.00000000
_cell_angle_beta   90.00000000
_cell_angle_gamma   90.00000000
_symmetry_Int_Tables_number   1
_chemical_formula_structural   Li2B2S5
_chemical_formula_sum   'Li8 B8 S20'
_cell_volume   734.95110814
_cell_formula_units_Z   4
loop_
 _symmetry_equiv_pos_site_id
 _symmetry_equiv_pos_as_xyz
  1  'x, y, z'
loop_
 _atom_site_type_symbol
 _atom_site_label
 _atom_site_symmetry_multiplicity
 _atom_site_fract_x
 _atom_site_fract_y
 _atom_site_fract_z
 _atom_site_occupancy
  Li  Li0  1  0.00000000  0.76692200  0.00000000  1
  Li  Li1  1  0.50000000  0.73307800  0.50000000  1
  Li  Li2  1  0.50000000  0.73307800  0.00000000  1
  Li  Li3  1  0.00000000  0.76692200  0.50000000  1
  Li  Li4  1  0.50000000  0.26692200  0.00000000  1
  Li  Li5  1  0.00000000  0.23307800  0.50000000  1
  Li  Li6  1  0.00000000  0.23307800  0.00000000  1
  Li  Li7  1  0.50000000  0.26692200  0.50000000  1
  B  B8  1  0.64502600  0.91249500  0.25000000  1
  B  B9  1  0.14502600  0.58750500  0.25000000  1
  B  B10  1  0.85497400  0.58750500  0.75000000  1
  B  B11  1  0.35497400  0.91249500  0.75000000  1
  B  B12  1  0.14502600  0.41249500  0.25000000  1
  B  B13  1  0.64502600  0.08750500  0.25000000  1
  B  B14  1  0.35497400  0.08750500  0.75000000  1
  B  B15  1  0.85497400  0.41249500  0.75000000  1
  S  S16  1  0.22640900  0.69595800  0.25000000  1
  S  S17  1  0.72640900  0.80404200  0.25000000  1
  S  S18  1  0.77359100  0.69595800  0.75000000  1
  S  S19  1  0.27359100  0.80404200  0.75000000  1
  S  S20  1  0.87545000  0.56533900  0.25000000  1
  S  S21  1  0.37545000  0.93466100  0.25000000  1
  S  S22  1  0.62455000  0.93466100  0.75000000  1
  S  S23  1  0.12455000  0.56533900  0.75000000  1
  S  S24  1  0.82137600  0.00000000  0.25000000  1
  S  S25  1  0.17862400  0.00000000  0.75000000  1
  S  S26  1  0.72640900  0.19595800  0.25000000  1
  S  S27  1  0.22640900  0.30404200  0.25000000  1
  S  S28  1  0.27359100  0.19595800  0.75000000  1
  S  S29  1  0.77359100  0.30404200  0.75000000  1
  S  S30  1  0.37545000  0.06533900  0.25000000  1
  S  S31  1  0.87545000  0.43466100  0.25000000  1
  S  S32  1  0.12455000  0.43466100  0.75000000  1
  S  S33  1  0.62455000  0.06533900  0.75000000  1
  S  S34  1  0.32137600  0.50000000  0.25000000  1
  S  S35  1  0.67862400  0.50000000  0.75000000  1
