# generated using pymatgen
data_Rb3B12H12I
_symmetry_space_group_name_H-M   'P 1'
_cell_length_a   10.47340959
_cell_length_b   10.47340959
_cell_length_c   11.81691946
_cell_angle_alpha   90.00000000
_cell_angle_beta   90.00000000
_cell_angle_gamma   120.00000000
_symmetry_Int_Tables_number   1
_chemical_formula_structural   Rb3B12H12I
_chemical_formula_sum   'Rb9 B36 H36 I3'
_cell_volume   1122.56392961
_cell_formula_units_Z   3
loop_
 _symmetry_equiv_pos_site_id
 _symmetry_equiv_pos_as_xyz
  1  'x, y, z'
loop_
 _atom_site_type_symbol
 _atom_site_label
 _atom_site_symmetry_multiplicity
 _atom_site_fract_x
 _atom_site_fract_y
 _atom_site_fract_z
 _atom_site_occupancy
  Rb  Rb0  1  0.16666667  0.83333333  0.33333333  1
  Rb  Rb1  1  0.16666667  0.33333333  0.33333333  1
  Rb  Rb2  1  0.66666667  0.83333333  0.33333333  1
  Rb  Rb3  1  0.83333333  0.16666667  0.66666667  1
  Rb  Rb4  1  0.83333333  0.66666667  0.66666667  1
  Rb  Rb5  1  0.33333333  0.16666667  0.66666667  1
  Rb  Rb6  1  0.50000000  0.50000000  0.00000000  1
  Rb  Rb7  1  0.50000000  0.00000000  0.00000000  1
  Rb  Rb8  1  0.00000000  0.50000000  0.00000000  1
  B  B9  1  0.48328000  0.24164000  0.36027900  1
  B  B10  1  0.51672000  0.75836000  0.63972100  1
  B  B11  1  0.24164000  0.48328000  0.63972100  1
  B  B12  1  0.24164000  0.75836000  0.63972100  1
  B  B13  1  0.94337333  0.05662667  0.11401267  1
  B  B14  1  0.94337333  0.88674667  0.11401267  1
  B  B15  1  0.11325333  0.05662667  0.11401267  1
  B  B16  1  0.88674667  0.94337333  0.88598733  1
  B  B17  1  0.05662667  0.94337333  0.88598733  1
  B  B18  1  0.05662667  0.11325333  0.88598733  1
  B  B19  1  0.75836000  0.24164000  0.36027900  1
  B  B20  1  0.75836000  0.51672000  0.36027900  1
  B  B21  1  0.14994667  0.57497333  0.69361233  1
  B  B22  1  0.18338667  0.09169333  0.97305433  1
  B  B23  1  0.90830667  0.81661333  0.97305433  1
  B  B24  1  0.90830667  0.09169333  0.97305433  1
  B  B25  1  0.61004000  0.38996000  0.44734600  1
  B  B26  1  0.61004000  0.22008000  0.44734600  1
  B  B27  1  0.77992000  0.38996000  0.44734600  1
  B  B28  1  0.55341333  0.27670667  0.21932067  1
  B  B29  1  0.72329333  0.27670667  0.21932067  1
  B  B30  1  0.72329333  0.44658667  0.21932067  1
  B  B31  1  0.42502667  0.57497333  0.69361233  1
  B  B32  1  0.42502667  0.85005333  0.69361233  1
  B  B33  1  0.81661333  0.90830667  0.02694567  1
  B  B34  1  0.85005333  0.42502667  0.30638767  1
  B  B35  1  0.57497333  0.14994667  0.30638767  1
  B  B36  1  0.57497333  0.42502667  0.30638767  1
  B  B37  1  0.27670667  0.72329333  0.78067933  1
  B  B38  1  0.27670667  0.55341333  0.78067933  1
  B  B39  1  0.44658667  0.72329333  0.78067933  1
  B  B40  1  0.22008000  0.61004000  0.55265400  1
  B  B41  1  0.38996000  0.61004000  0.55265400  1
  B  B42  1  0.38996000  0.77992000  0.55265400  1
  B  B43  1  0.09169333  0.90830667  0.02694567  1
  B  B44  1  0.09169333  0.18338667  0.02694567  1
  H  H45  1  0.17631167  0.82368833  0.61989133  1
  H  H46  1  0.17631167  0.35262333  0.61989133  1
  H  H47  1  0.64737667  0.82368833  0.61989133  1
  H  H48  1  0.35262333  0.17631167  0.38010867  1
  H  H49  1  0.09703067  0.90296933  0.80529233  1
  H  H50  1  0.09703067  0.19406133  0.80529233  1
  H  H51  1  0.80593867  0.90296933  0.80529233  1
  H  H52  1  0.19406133  0.09703067  0.19470767  1
  H  H53  1  0.90296933  0.09703067  0.19470767  1
  H  H54  1  0.90296933  0.80593867  0.19470767  1
  H  H55  1  0.82368833  0.17631167  0.38010867  1
  H  H56  1  0.82368833  0.64737667  0.38010867  1
  H  H57  1  0.84297833  0.15702167  0.95322467  1
  H  H58  1  0.84297833  0.68595667  0.95322467  1
  H  H59  1  0.31404333  0.15702167  0.95322467  1
  H  H60  1  0.01929000  0.50964500  0.71344200  1
  H  H61  1  0.76369733  0.23630267  0.13862567  1
  H  H62  1  0.76369733  0.52739467  0.13862567  1
  H  H63  1  0.47260533  0.23630267  0.13862567  1
  H  H64  1  0.86072800  0.43036400  0.52804100  1
  H  H65  1  0.56963600  0.43036400  0.52804100  1
  H  H66  1  0.56963600  0.13927200  0.52804100  1
  H  H67  1  0.49035500  0.50964500  0.71344200  1
  H  H68  1  0.49035500  0.98071000  0.71344200  1
  H  H69  1  0.50964500  0.49035500  0.28655800  1
  H  H70  1  0.50964500  0.01929000  0.28655800  1
  H  H71  1  0.98071000  0.49035500  0.28655800  1
  H  H72  1  0.68595667  0.84297833  0.04677533  1
  H  H73  1  0.43036400  0.56963600  0.47195900  1
  H  H74  1  0.43036400  0.86072800  0.47195900  1
  H  H75  1  0.13927200  0.56963600  0.47195900  1
  H  H76  1  0.52739467  0.76369733  0.86137433  1
  H  H77  1  0.23630267  0.76369733  0.86137433  1
  H  H78  1  0.23630267  0.47260533  0.86137433  1
  H  H79  1  0.15702167  0.84297833  0.04677533  1
  H  H80  1  0.15702167  0.31404333  0.04677533  1
  I  I81  1  0.00000000  0.00000000  0.50000000  1
  I  I82  1  0.66666667  0.33333333  0.83333333  1
  I  I83  1  0.33333333  0.66666667  0.16666667  1
