# generated using pymatgen
data_Zr6CI14
_symmetry_space_group_name_H-M   'P 1'
_cell_length_a   15.17700800
_cell_length_b   15.97947000
_cell_length_c   13.14205300
_cell_angle_alpha   90.00000000
_cell_angle_beta   90.00000000
_cell_angle_gamma   90.00000000
_symmetry_Int_Tables_number   1
_chemical_formula_structural   Zr6CI14
_chemical_formula_sum   'Zr24 C4 I56'
_cell_volume   3187.21784318
_cell_formula_units_Z   4
loop_
 _symmetry_equiv_pos_site_id
 _symmetry_equiv_pos_as_xyz
  1  'x, y, z'
loop_
 _atom_site_type_symbol
 _atom_site_label
 _atom_site_symmetry_multiplicity
 _atom_site_fract_x
 _atom_site_fract_y
 _atom_site_fract_z
 _atom_site_occupancy
  Zr  Zr0  1  0.62665200  0.00000000  0.09241900  1
  Zr  Zr1  1  0.87334800  0.00000000  0.59241900  1
  Zr  Zr2  1  0.12665200  0.00000000  0.40758100  1
  Zr  Zr3  1  0.37334800  0.00000000  0.90758100  1
  Zr  Zr4  1  0.55930400  0.89428800  0.89142600  1
  Zr  Zr5  1  0.44069600  0.60571200  0.39142600  1
  Zr  Zr6  1  0.55930400  0.60571200  0.60857400  1
  Zr  Zr7  1  0.44069600  0.89428800  0.10857400  1
  Zr  Zr8  1  0.44069600  0.10571200  0.10857400  1
  Zr  Zr9  1  0.55930400  0.39428800  0.60857400  1
  Zr  Zr10  1  0.44069600  0.39428800  0.39142600  1
  Zr  Zr11  1  0.55930400  0.10571200  0.89142600  1
  Zr  Zr12  1  0.12665200  0.50000000  0.09241900  1
  Zr  Zr13  1  0.37334800  0.50000000  0.59241900  1
  Zr  Zr14  1  0.62665200  0.50000000  0.40758100  1
  Zr  Zr15  1  0.87334800  0.50000000  0.90758100  1
  Zr  Zr16  1  0.05930400  0.39428800  0.89142600  1
  Zr  Zr17  1  0.94069600  0.10571200  0.39142600  1
  Zr  Zr18  1  0.05930400  0.10571200  0.60857400  1
  Zr  Zr19  1  0.94069600  0.39428800  0.10857400  1
  Zr  Zr20  1  0.94069600  0.60571200  0.10857400  1
  Zr  Zr21  1  0.05930400  0.89428800  0.60857400  1
  Zr  Zr22  1  0.94069600  0.89428800  0.39142600  1
  Zr  Zr23  1  0.05930400  0.60571200  0.89142600  1
  C  C24  1  0.50000000  0.00000000  0.00000000  1
  C  C25  1  0.00000000  0.00000000  0.50000000  1
  C  C26  1  0.00000000  0.50000000  0.00000000  1
  C  C27  1  0.50000000  0.50000000  0.50000000  1
  I  I28  1  0.23045000  0.87591600  0.51104300  1
  I  I29  1  0.26955000  0.12408400  0.01104300  1
  I  I30  1  0.35746900  0.75000000  0.25000000  1
  I  I31  1  0.64253100  0.75000000  0.75000000  1
  I  I32  1  0.64253100  0.25000000  0.75000000  1
  I  I33  1  0.35746900  0.25000000  0.25000000  1
  I  I34  1  0.14354700  0.00000000  0.76153700  1
  I  I35  1  0.35645300  0.00000000  0.26153700  1
  I  I36  1  0.64354700  0.00000000  0.73846300  1
  I  I37  1  0.85645300  0.00000000  0.23846300  1
  I  I38  1  0.50000000  0.25148100  0.00000000  1
  I  I39  1  0.50000000  0.24851900  0.50000000  1
  I  I40  1  0.50000000  0.74851900  0.00000000  1
  I  I41  1  0.50000000  0.75148100  0.50000000  1
  I  I42  1  0.76955000  0.87591600  0.48895700  1
  I  I43  1  0.73045000  0.12408400  0.98895700  1
  I  I44  1  0.73045000  0.87591600  0.98895700  1
  I  I45  1  0.76955000  0.12408400  0.48895700  1
  I  I46  1  0.23045000  0.12408400  0.51104300  1
  I  I47  1  0.26955000  0.87591600  0.01104300  1
  I  I48  1  0.58956000  0.62332400  0.25476200  1
  I  I49  1  0.41044000  0.87667600  0.75476200  1
  I  I50  1  0.58956000  0.87667600  0.24523800  1
  I  I51  1  0.41044000  0.62332400  0.74523800  1
  I  I52  1  0.41044000  0.37667600  0.74523800  1
  I  I53  1  0.58956000  0.12332400  0.24523800  1
  I  I54  1  0.41044000  0.12332400  0.75476200  1
  I  I55  1  0.58956000  0.37667600  0.25476200  1
  I  I56  1  0.73045000  0.37591600  0.51104300  1
  I  I57  1  0.76955000  0.62408400  0.01104300  1
  I  I58  1  0.85746900  0.25000000  0.25000000  1
  I  I59  1  0.14253100  0.25000000  0.75000000  1
  I  I60  1  0.14253100  0.75000000  0.75000000  1
  I  I61  1  0.85746900  0.75000000  0.25000000  1
  I  I62  1  0.64354700  0.50000000  0.76153700  1
  I  I63  1  0.85645300  0.50000000  0.26153700  1
  I  I64  1  0.14354700  0.50000000  0.73846300  1
  I  I65  1  0.35645300  0.50000000  0.23846300  1
  I  I66  1  0.00000000  0.75148100  0.00000000  1
  I  I67  1  0.00000000  0.74851900  0.50000000  1
  I  I68  1  0.00000000  0.24851900  0.00000000  1
  I  I69  1  0.00000000  0.25148100  0.50000000  1
  I  I70  1  0.26955000  0.37591600  0.48895700  1
  I  I71  1  0.23045000  0.62408400  0.98895700  1
  I  I72  1  0.23045000  0.37591600  0.98895700  1
  I  I73  1  0.26955000  0.62408400  0.48895700  1
  I  I74  1  0.73045000  0.62408400  0.51104300  1
  I  I75  1  0.76955000  0.37591600  0.01104300  1
  I  I76  1  0.08956000  0.12332400  0.25476200  1
  I  I77  1  0.91044000  0.37667600  0.75476200  1
  I  I78  1  0.08956000  0.37667600  0.24523800  1
  I  I79  1  0.91044000  0.12332400  0.74523800  1
  I  I80  1  0.91044000  0.87667600  0.74523800  1
  I  I81  1  0.08956000  0.62332400  0.24523800  1
  I  I82  1  0.91044000  0.62332400  0.75476200  1
  I  I83  1  0.08956000  0.87667600  0.25476200  1
