# generated using pymatgen
data_NiH12C2(SN3)2
_symmetry_space_group_name_H-M   'P 1'
_cell_length_a   11.55767200
_cell_length_b   8.26797600
_cell_length_c   5.72157684
_cell_angle_alpha   90.00000000
_cell_angle_beta   105.64932488
_cell_angle_gamma   90.00000000
_symmetry_Int_Tables_number   1
_chemical_formula_structural   NiH12C2(SN3)2
_chemical_formula_sum   'Ni2 H24 C4 S4 N12'
_cell_volume   526.47813713
_cell_formula_units_Z   2
loop_
 _symmetry_equiv_pos_site_id
 _symmetry_equiv_pos_as_xyz
  1  'x, y, z'
loop_
 _atom_site_type_symbol
 _atom_site_label
 _atom_site_symmetry_multiplicity
 _atom_site_fract_x
 _atom_site_fract_y
 _atom_site_fract_z
 _atom_site_occupancy
  Ni  Ni0  1  0.00000000  0.00000000  0.00000000  1
  Ni  Ni1  1  0.50000000  0.50000000  0.00000000  1
  H  H2  1  0.64098200  0.64437600  0.74946800  1
  H  H3  1  0.35901800  0.64437600  0.25053200  1
  H  H4  1  0.35901800  0.35562400  0.25053200  1
  H  H5  1  0.64098200  0.35562400  0.74946800  1
  H  H6  1  0.52052850  0.75841750  0.72447700  1
  H  H7  1  0.47947150  0.75841750  0.27552300  1
  H  H8  1  0.47947150  0.24158250  0.27552300  1
  H  H9  1  0.52052850  0.24158250  0.72447700  1
  H  H10  1  0.63034150  0.76121550  0.97668800  1
  H  H11  1  0.36965850  0.76121550  0.02331200  1
  H  H12  1  0.36965850  0.23878450  0.02331200  1
  H  H13  1  0.63034150  0.23878450  0.97668800  1
  H  H14  1  0.14098200  0.14437600  0.74946800  1
  H  H15  1  0.85901800  0.14437600  0.25053200  1
  H  H16  1  0.85901800  0.85562400  0.25053200  1
  H  H17  1  0.14098200  0.85562400  0.74946800  1
  H  H18  1  0.02052850  0.25841750  0.72447700  1
  H  H19  1  0.97947150  0.25841750  0.27552300  1
  H  H20  1  0.97947150  0.74158250  0.27552300  1
  H  H21  1  0.02052850  0.74158250  0.72447700  1
  H  H22  1  0.13034150  0.26121550  0.97668800  1
  H  H23  1  0.86965850  0.26121550  0.02331200  1
  H  H24  1  0.86965850  0.73878450  0.02331200  1
  H  H25  1  0.13034150  0.73878450  0.97668800  1
  C  C26  1  0.76390000  0.00000000  0.54702700  1
  C  C27  1  0.23610000  0.00000000  0.45297300  1
  C  C28  1  0.26390000  0.50000000  0.54702700  1
  C  C29  1  0.73610000  0.50000000  0.45297300  1
  S  S30  1  0.64378000  0.00000000  0.31718700  1
  S  S31  1  0.35622000  0.00000000  0.68281300  1
  S  S32  1  0.14378000  0.50000000  0.31718700  1
  S  S33  1  0.85622000  0.50000000  0.68281300  1
  N  N34  1  0.41749900  0.31304900  0.15871800  1
  N  N35  1  0.58250100  0.31304900  0.84128200  1
  N  N36  1  0.85318200  0.00000000  0.70852200  1
  N  N37  1  0.14681800  0.00000000  0.29147800  1
  N  N38  1  0.58250100  0.68695100  0.84128200  1
  N  N39  1  0.41749900  0.68695100  0.15871800  1
  N  N40  1  0.91749900  0.81304900  0.15871800  1
  N  N41  1  0.08250100  0.81304900  0.84128200  1
  N  N42  1  0.35318200  0.50000000  0.70852200  1
  N  N43  1  0.64681800  0.50000000  0.29147800  1
  N  N44  1  0.08250100  0.18695100  0.84128200  1
  N  N45  1  0.91749900  0.18695100  0.15871800  1
