# generated using pymatgen
data_Tl4Sn5S12
_symmetry_space_group_name_H-M   'P 1'
_cell_length_a   7.50399246
_cell_length_b   9.87483602
_cell_length_c   17.36787746
_cell_angle_alpha   104.99746174
_cell_angle_beta   90.12190139
_cell_angle_gamma   111.92491341
_symmetry_Int_Tables_number   1
_chemical_formula_structural   Tl4Sn5S12
_chemical_formula_sum   'Tl8 Sn10 S24'
_cell_volume   1146.19862997
_cell_formula_units_Z   2
loop_
 _symmetry_equiv_pos_site_id
 _symmetry_equiv_pos_as_xyz
  1  'x, y, z'
loop_
 _atom_site_type_symbol
 _atom_site_label
 _atom_site_symmetry_multiplicity
 _atom_site_fract_x
 _atom_site_fract_y
 _atom_site_fract_z
 _atom_site_occupancy
  Tl  Tl0  1  0.31260844  0.05964464  0.70198306  1
  Tl  Tl1  1  0.68739156  0.94035536  0.29801694  1
  Tl  Tl2  1  0.10140719  0.60788015  0.85466428  1
  Tl  Tl3  1  0.89859281  0.39211985  0.14533572  1
  Tl  Tl4  1  0.41740631  0.54022146  0.61265393  1
  Tl  Tl5  1  0.58259369  0.45977854  0.38734607  1
  Tl  Tl6  1  0.62462418  0.66057887  0.85683200  1
  Tl  Tl7  1  0.37537582  0.33942113  0.14316800  1
  Sn  Sn8  1  0.68314706  0.99187228  0.58249716  1
  Sn  Sn9  1  0.31685294  0.00812772  0.41750284  1
  Sn  Sn10  1  0.01777136  0.72634582  0.59724429  1
  Sn  Sn11  1  0.98222864  0.27365418  0.40275571  1
  Sn  Sn12  1  0.88446236  0.30181244  0.72998595  1
  Sn  Sn13  1  0.11553764  0.69818756  0.27001405  1
  Sn  Sn14  1  0.68758928  0.17984768  0.94751031  1
  Sn  Sn15  1  0.31241072  0.82015232  0.05248969  1
  Sn  Sn16  1  0.18471254  0.17719770  0.94212343  1
  Sn  Sn17  1  0.81528746  0.82280230  0.05787657  1
  S  S18  1  0.47158345  0.15417971  0.52190634  1
  S  S19  1  0.52841655  0.84582029  0.47809366  1
  S  S20  1  0.01213176  0.16200231  0.54555326  1
  S  S21  1  0.98786824  0.83799769  0.45444674  1
  S  S22  1  0.73051164  0.04113935  0.72150081  1
  S  S23  1  0.26948836  0.95886065  0.27849919  1
  S  S24  1  0.33036166  0.77046954  0.67282131  1
  S  S25  1  0.66963834  0.22953046  0.32717869  1
  S  S26  1  0.88197866  0.45879328  0.59270401  1
  S  S27  1  0.11802134  0.54120672  0.40729599  1
  S  S28  1  0.81043746  0.76884269  0.67068194  1
  S  S29  1  0.18956254  0.23115731  0.32931806  1
  S  S30  1  0.21046057  0.35416764  0.79813663  1
  S  S31  1  0.78953943  0.64583236  0.20186337  1
  S  S32  1  0.33742947  0.00624552  0.90801432  1
  S  S33  1  0.66257053  0.99375448  0.09198568  1
  S  S34  1  0.69342508  0.36054865  0.80325303  1
  S  S35  1  0.30657492  0.63945135  0.19674697  1
  S  S36  1  0.96189547  0.67162433  0.00798401  1
  S  S37  1  0.03810453  0.32837567  0.99201599  1
  S  S38  1  0.46995802  0.66191930  0.01685206  1
  S  S39  1  0.53004198  0.33808070  0.98314794  1
  S  S40  1  0.17035413  0.99442985  0.08759201  1
  S  S41  1  0.82964587  0.00557015  0.91240799  1
