# generated using pymatgen
data_RbP(HO2)2
_symmetry_space_group_name_H-M   'P 1'
_cell_length_a   7.36832800
_cell_length_b   10.95494600
_cell_length_c   11.08094000
_cell_angle_alpha   90.00000000
_cell_angle_beta   90.00000000
_cell_angle_gamma   90.00000000
_symmetry_Int_Tables_number   1
_chemical_formula_structural   RbP(HO2)2
_chemical_formula_sum   'Rb8 P8 H16 O32'
_cell_volume   894.44943614
_cell_formula_units_Z   8
loop_
 _symmetry_equiv_pos_site_id
 _symmetry_equiv_pos_as_xyz
  1  'x, y, z'
loop_
 _atom_site_type_symbol
 _atom_site_label
 _atom_site_symmetry_multiplicity
 _atom_site_fract_x
 _atom_site_fract_y
 _atom_site_fract_z
 _atom_site_occupancy
  Rb  Rb0  1  0.26608000  0.25000000  0.75000000  1
  Rb  Rb1  1  0.01608000  0.00000000  0.50000000  1
  Rb  Rb2  1  0.76608000  0.25000000  0.25000000  1
  Rb  Rb3  1  0.51608000  0.00000000  0.00000000  1
  Rb  Rb4  1  0.76608000  0.75000000  0.75000000  1
  Rb  Rb5  1  0.51608000  0.50000000  0.50000000  1
  Rb  Rb6  1  0.26608000  0.75000000  0.25000000  1
  Rb  Rb7  1  0.01608000  0.50000000  0.00000000  1
  P  P8  1  0.24888100  0.75000000  0.75000000  1
  P  P9  1  0.49888100  0.00000000  0.50000000  1
  P  P10  1  0.74888100  0.75000000  0.25000000  1
  P  P11  1  0.99888100  0.00000000  0.00000000  1
  P  P12  1  0.74888100  0.25000000  0.75000000  1
  P  P13  1  0.99888100  0.50000000  0.50000000  1
  P  P14  1  0.24888100  0.25000000  0.25000000  1
  P  P15  1  0.49888100  0.50000000  0.00000000  1
  H  H16  1  0.38149600  0.70559300  0.92697200  1
  H  H17  1  0.88149600  0.29440700  0.57302800  1
  H  H18  1  0.13149600  0.95559300  0.82302800  1
  H  H19  1  0.63149600  0.04440700  0.67697200  1
  H  H20  1  0.88149600  0.70559300  0.42697200  1
  H  H21  1  0.38149600  0.29440700  0.07302800  1
  H  H22  1  0.63149600  0.95559300  0.32302800  1
  H  H23  1  0.13149600  0.04440700  0.17697200  1
  H  H24  1  0.88149600  0.20559300  0.92697200  1
  H  H25  1  0.38149600  0.79440700  0.57302800  1
  H  H26  1  0.63149600  0.45559300  0.82302800  1
  H  H27  1  0.13149600  0.54440700  0.67697200  1
  H  H28  1  0.38149600  0.20559300  0.42697200  1
  H  H29  1  0.88149600  0.79440700  0.07302800  1
  H  H30  1  0.13149600  0.45559300  0.32302800  1
  H  H31  1  0.63149600  0.54440700  0.17697200  1
  O  O32  1  0.13000050  0.47459250  0.61169300  1
  O  O33  1  0.13000050  0.02540750  0.88830700  1
  O  O34  1  0.88000050  0.22459250  0.63830700  1
  O  O35  1  0.38000050  0.77540750  0.86169300  1
  O  O36  1  0.38772300  0.11525350  0.52435350  1
  O  O37  1  0.38772300  0.38474650  0.97564650  1
  O  O38  1  0.13772300  0.86525350  0.72564650  1
  O  O39  1  0.63772300  0.13474650  0.77435350  1
  O  O40  1  0.63000050  0.47459250  0.11169300  1
  O  O41  1  0.63000050  0.02540750  0.38830700  1
  O  O42  1  0.38000050  0.22459250  0.13830700  1
  O  O43  1  0.88000050  0.77540750  0.36169300  1
  O  O44  1  0.88772300  0.11525350  0.02435350  1
  O  O45  1  0.88772300  0.38474650  0.47564650  1
  O  O46  1  0.63772300  0.86525350  0.22564650  1
  O  O47  1  0.13772300  0.13474650  0.27435350  1
  O  O48  1  0.63000050  0.97459250  0.61169300  1
  O  O49  1  0.63000050  0.52540750  0.88830700  1
  O  O50  1  0.38000050  0.72459250  0.63830700  1
  O  O51  1  0.88000050  0.27540750  0.86169300  1
  O  O52  1  0.88772300  0.61525350  0.52435350  1
  O  O53  1  0.88772300  0.88474650  0.97564650  1
  O  O54  1  0.63772300  0.36525350  0.72564650  1
  O  O55  1  0.13772300  0.63474650  0.77435350  1
  O  O56  1  0.13000050  0.97459250  0.11169300  1
  O  O57  1  0.13000050  0.52540750  0.38830700  1
  O  O58  1  0.88000050  0.72459250  0.13830700  1
  O  O59  1  0.38000050  0.27540750  0.36169300  1
  O  O60  1  0.38772300  0.61525350  0.02435350  1
  O  O61  1  0.38772300  0.88474650  0.47564650  1
  O  O62  1  0.13772300  0.36525350  0.22564650  1
  O  O63  1  0.63772300  0.63474650  0.27435350  1
