# generated using pymatgen
data_K2In3AgSe6
_symmetry_space_group_name_H-M   'P 1'
_cell_length_a   11.91548400
_cell_length_b   11.88815200
_cell_length_c   21.80884663
_cell_angle_alpha   90.00000000
_cell_angle_beta   98.02142403
_cell_angle_gamma   90.00000000
_symmetry_Int_Tables_number   1
_chemical_formula_structural   K2In3AgSe6
_chemical_formula_sum   'K16 In24 Ag8 Se48'
_cell_volume   3059.06466304
_cell_formula_units_Z   8
loop_
 _symmetry_equiv_pos_site_id
 _symmetry_equiv_pos_as_xyz
  1  'x, y, z'
loop_
 _atom_site_type_symbol
 _atom_site_label
 _atom_site_symmetry_multiplicity
 _atom_site_fract_x
 _atom_site_fract_y
 _atom_site_fract_z
 _atom_site_occupancy
  K  K0  1  0.65608150  0.55132650  0.41719400  1
  K  K1  1  0.34391850  0.55132650  0.08280600  1
  K  K2  1  0.34391850  0.44867350  0.58280600  1
  K  K3  1  0.65608150  0.44867350  0.91719400  1
  K  K4  1  0.92880850  0.32154350  0.41726600  1
  K  K5  1  0.07119150  0.32154350  0.08273400  1
  K  K6  1  0.07119150  0.67845650  0.58273400  1
  K  K7  1  0.92880850  0.67845650  0.91726600  1
  K  K8  1  0.15608150  0.05132650  0.41719400  1
  K  K9  1  0.84391850  0.05132650  0.08280600  1
  K  K10  1  0.84391850  0.94867350  0.58280600  1
  K  K11  1  0.15608150  0.94867350  0.91719400  1
  K  K12  1  0.42880850  0.82154350  0.41726600  1
  K  K13  1  0.57119150  0.82154350  0.08273400  1
  K  K14  1  0.57119150  0.17845650  0.58273400  1
  K  K15  1  0.42880850  0.17845650  0.91726600  1
  In  In16  1  0.28587650  0.56332150  0.88761800  1
  In  In17  1  0.71412350  0.56332150  0.61238200  1
  In  In18  1  0.71412350  0.43667850  0.11238200  1
  In  In19  1  0.28587650  0.43667850  0.38761800  1
  In  In20  1  0.03507700  0.31480600  0.88810600  1
  In  In21  1  0.96492300  0.31480600  0.61189400  1
  In  In22  1  0.96492300  0.68519400  0.11189400  1
  In  In23  1  0.03507700  0.68519400  0.38810600  1
  In  In24  1  0.24648450  0.31344050  0.74999400  1
  In  In25  1  0.75351550  0.31344050  0.75000600  1
  In  In26  1  0.75351550  0.68655950  0.25000600  1
  In  In27  1  0.24648450  0.68655950  0.24999400  1
  In  In28  1  0.78587650  0.06332150  0.88761800  1
  In  In29  1  0.21412350  0.06332150  0.61238200  1
  In  In30  1  0.21412350  0.93667850  0.11238200  1
  In  In31  1  0.78587650  0.93667850  0.38761800  1
  In  In32  1  0.53507700  0.81480600  0.88810600  1
  In  In33  1  0.46492300  0.81480600  0.61189400  1
  In  In34  1  0.46492300  0.18519400  0.11189400  1
  In  In35  1  0.53507700  0.18519400  0.38810600  1
  In  In36  1  0.74648450  0.81344050  0.74999400  1
  In  In37  1  0.25351550  0.81344050  0.75000600  1
  In  In38  1  0.25351550  0.18655950  0.25000600  1
  In  In39  1  0.74648450  0.18655950  0.24999400  1
  Ag  Ag40  1  0.00000000  0.56259200  0.75000000  1
  Ag  Ag41  1  0.00000000  0.43740800  0.25000000  1
  Ag  Ag42  1  0.00000000  0.06476000  0.75000000  1
  Ag  Ag43  1  0.00000000  0.93524000  0.25000000  1
  Ag  Ag44  1  0.50000000  0.06259200  0.75000000  1
  Ag  Ag45  1  0.50000000  0.93740800  0.25000000  1
  Ag  Ag46  1  0.50000000  0.56476000  0.75000000  1
  Ag  Ag47  1  0.50000000  0.43524000  0.25000000  1
  Se  Se48  1  0.15684050  0.46145250  0.95987700  1
  Se  Se49  1  0.84315950  0.46145250  0.54012300  1
  Se  Se50  1  0.84315950  0.53854750  0.04012300  1
  Se  Se51  1  0.15684050  0.53854750  0.45987700  1
  Se  Se52  1  0.95094450  0.16685250  0.95965000  1
  Se  Se53  1  0.04905550  0.16685250  0.54035000  1
  Se  Se54  1  0.04905550  0.83314750  0.04035000  1
  Se  Se55  1  0.95094450  0.83314750  0.45965000  1
  Se  Se56  1  0.39925950  0.57393750  0.32463700  1
  Se  Se57  1  0.60074050  0.57393750  0.17536300  1
  Se  Se58  1  0.60074050  0.42606250  0.67536300  1
  Se  Se59  1  0.39925950  0.42606250  0.82463700  1
  Se  Se60  1  0.86028750  0.29970550  0.17519800  1
  Se  Se61  1  0.13971250  0.29970550  0.32480200  1
  Se  Se62  1  0.13971250  0.70029450  0.82480200  1
  Se  Se63  1  0.86028750  0.70029450  0.67519800  1
  Se  Se64  1  0.15456600  0.81750600  0.32543100  1
  Se  Se65  1  0.84543400  0.81750600  0.17456900  1
  Se  Se66  1  0.84543400  0.18249400  0.67456900  1
  Se  Se67  1  0.15456600  0.18249400  0.82543100  1
  Se  Se68  1  0.11717000  0.55412800  0.17478200  1
  Se  Se69  1  0.88283000  0.55412800  0.32521800  1
  Se  Se70  1  0.88283000  0.44587200  0.82521800  1
  Se  Se71  1  0.11717000  0.44587200  0.67478200  1
  Se  Se72  1  0.65684050  0.96145250  0.95987700  1
  Se  Se73  1  0.34315950  0.96145250  0.54012300  1
  Se  Se74  1  0.34315950  0.03854750  0.04012300  1
  Se  Se75  1  0.65684050  0.03854750  0.45987700  1
  Se  Se76  1  0.45094450  0.66685250  0.95965000  1
  Se  Se77  1  0.54905550  0.66685250  0.54035000  1
  Se  Se78  1  0.54905550  0.33314750  0.04035000  1
  Se  Se79  1  0.45094450  0.33314750  0.45965000  1
  Se  Se80  1  0.89925950  0.07393750  0.32463700  1
  Se  Se81  1  0.10074050  0.07393750  0.17536300  1
  Se  Se82  1  0.10074050  0.92606250  0.67536300  1
  Se  Se83  1  0.89925950  0.92606250  0.82463700  1
  Se  Se84  1  0.36028750  0.79970550  0.17519800  1
  Se  Se85  1  0.63971250  0.79970550  0.32480200  1
  Se  Se86  1  0.63971250  0.20029450  0.82480200  1
  Se  Se87  1  0.36028750  0.20029450  0.67519800  1
  Se  Se88  1  0.65456600  0.31750600  0.32543100  1
  Se  Se89  1  0.34543400  0.31750600  0.17456900  1
  Se  Se90  1  0.34543400  0.68249400  0.67456900  1
  Se  Se91  1  0.65456600  0.68249400  0.82543100  1
  Se  Se92  1  0.61717000  0.05412800  0.17478200  1
  Se  Se93  1  0.38283000  0.05412800  0.32521800  1
  Se  Se94  1  0.38283000  0.94587200  0.82521800  1
  Se  Se95  1  0.61717000  0.94587200  0.67478200  1
