# generated using pymatgen
data_Si2Pb3O7
_symmetry_space_group_name_H-M   'P 1'
_cell_length_a   10.31040623
_cell_length_b   10.31040623
_cell_length_c   39.35252220
_cell_angle_alpha   90.00000000
_cell_angle_beta   90.00000000
_cell_angle_gamma   120.00000000
_symmetry_Int_Tables_number   1
_chemical_formula_structural   Si2Pb3O7
_chemical_formula_sum   'Si36 Pb54 O126'
_cell_volume   3622.88674556
_cell_formula_units_Z   18
loop_
 _symmetry_equiv_pos_site_id
 _symmetry_equiv_pos_as_xyz
  1  'x, y, z'
loop_
 _atom_site_type_symbol
 _atom_site_label
 _atom_site_symmetry_multiplicity
 _atom_site_fract_x
 _atom_site_fract_y
 _atom_site_fract_z
 _atom_site_occupancy
  Si  Si0  1  0.93309300  0.27237600  0.21519200  1
  Si  Si1  1  0.33928300  0.06690700  0.21519200  1
  Si  Si2  1  0.72762400  0.66071700  0.21519200  1
  Si  Si3  1  0.66071700  0.72762400  0.28480800  1
  Si  Si4  1  0.06690700  0.33928300  0.28480800  1
  Si  Si5  1  0.27237600  0.93309300  0.28480800  1
  Si  Si6  1  0.73357367  0.06095733  0.11814133  1
  Si  Si7  1  0.32738367  0.26642633  0.11814133  1
  Si  Si8  1  0.93904267  0.67261633  0.11814133  1
  Si  Si9  1  0.00594967  0.60570933  0.04852533  1
  Si  Si10  1  0.59975967  0.99405033  0.04852533  1
  Si  Si11  1  0.39429067  0.40024033  0.04852533  1
  Si  Si12  1  0.59975967  0.60570933  0.54852533  1
  Si  Si13  1  0.00594967  0.40024033  0.54852533  1
  Si  Si14  1  0.39429067  0.99405033  0.54852533  1
  Si  Si15  1  0.32738367  0.06095733  0.61814133  1
  Si  Si16  1  0.73357367  0.67261633  0.61814133  1
  Si  Si17  1  0.93904267  0.26642633  0.61814133  1
  Si  Si18  1  0.40024033  0.39429067  0.45147467  1
  Si  Si19  1  0.99405033  0.59975967  0.45147467  1
  Si  Si20  1  0.60570933  0.00594967  0.45147467  1
  Si  Si21  1  0.67261633  0.93904267  0.38185867  1
  Si  Si22  1  0.26642633  0.32738367  0.38185867  1
  Si  Si23  1  0.06095733  0.73357367  0.38185867  1
  Si  Si24  1  0.26642633  0.93904267  0.88185867  1
  Si  Si25  1  0.67261633  0.73357367  0.88185867  1
  Si  Si26  1  0.06095733  0.32738367  0.88185867  1
  Si  Si27  1  0.99405033  0.39429067  0.95147467  1
  Si  Si28  1  0.40024033  0.00594967  0.95147467  1
  Si  Si29  1  0.60570933  0.59975967  0.95147467  1
  Si  Si30  1  0.06690700  0.72762400  0.78480800  1
  Si  Si31  1  0.66071700  0.93309300  0.78480800  1
  Si  Si32  1  0.27237600  0.33928300  0.78480800  1
  Si  Si33  1  0.33928300  0.27237600  0.71519200  1
  Si  Si34  1  0.93309300  0.66071700  0.71519200  1
  Si  Si35  1  0.72762400  0.06690700  0.71519200  1
  Pb  Pb36  1  0.66666667  0.33333333  0.08333333  1
  Pb  Pb37  1  0.00000000  0.00000000  0.25000000  1
  Pb  Pb38  1  0.66666667  0.33333333  0.17369933  1
  Pb  Pb39  1  0.33333333  0.66666667  0.32630067  1
  Pb  Pb40  1  0.00000000  0.00000000  0.15963400  1
  Pb  Pb41  1  0.33333333  0.66666667  0.00703267  1
  Pb  Pb42  1  0.69514533  0.08640867  0.29566467  1
  Pb  Pb43  1  0.39126333  0.30485467  0.29566467  1
  Pb  Pb44  1  0.91359133  0.60873667  0.29566467  1
  Pb  Pb45  1  0.60873667  0.91359133  0.20433533  1
  Pb  Pb46  1  0.30485467  0.39126333  0.20433533  1
  Pb  Pb47  1  0.08640867  0.69514533  0.20433533  1
  Pb  Pb48  1  0.97152133  0.24692467  0.03766867  1
  Pb  Pb49  1  0.27540333  0.02847867  0.03766867  1
  Pb  Pb50  1  0.75307533  0.72459667  0.03766867  1
  Pb  Pb51  1  0.05793000  0.41974200  0.12899800  1
  Pb  Pb52  1  0.36181200  0.94207000  0.12899800  1
  Pb  Pb53  1  0.58025800  0.63818800  0.12899800  1
  Pb  Pb54  1  0.33333333  0.66666667  0.41666667  1
  Pb  Pb55  1  0.66666667  0.33333333  0.58333333  1
  Pb  Pb56  1  0.33333333  0.66666667  0.50703267  1
  Pb  Pb57  1  0.00000000  0.00000000  0.65963400  1
  Pb  Pb58  1  0.66666667  0.33333333  0.49296733  1
  Pb  Pb59  1  0.00000000  0.00000000  0.34036600  1
  Pb  Pb60  1  0.36181200  0.41974200  0.62899800  1
  Pb  Pb61  1  0.05793000  0.63818800  0.62899800  1
  Pb  Pb62  1  0.58025800  0.94207000  0.62899800  1
  Pb  Pb63  1  0.27540333  0.24692467  0.53766867  1
  Pb  Pb64  1  0.97152133  0.72459667  0.53766867  1
  Pb  Pb65  1  0.75307533  0.02847867  0.53766867  1
  Pb  Pb66  1  0.63818800  0.58025800  0.37100200  1
  Pb  Pb67  1  0.94207000  0.36181200  0.37100200  1
  Pb  Pb68  1  0.41974200  0.05793000  0.37100200  1
  Pb  Pb69  1  0.72459667  0.75307533  0.46233133  1
  Pb  Pb70  1  0.02847867  0.27540333  0.46233133  1
  Pb  Pb71  1  0.24692467  0.97152133  0.46233133  1
  Pb  Pb72  1  0.00000000  0.00000000  0.75000000  1
  Pb  Pb73  1  0.33333333  0.66666667  0.91666667  1
  Pb  Pb74  1  0.00000000  0.00000000  0.84036600  1
  Pb  Pb75  1  0.66666667  0.33333333  0.99296733  1
  Pb  Pb76  1  0.33333333  0.66666667  0.82630067  1
  Pb  Pb77  1  0.66666667  0.33333333  0.67369933  1
  Pb  Pb78  1  0.02847867  0.75307533  0.96233133  1
  Pb  Pb79  1  0.72459667  0.97152133  0.96233133  1
  Pb  Pb80  1  0.24692467  0.27540333  0.96233133  1
  Pb  Pb81  1  0.94207000  0.58025800  0.87100200  1
  Pb  Pb82  1  0.63818800  0.05793000  0.87100200  1
  Pb  Pb83  1  0.41974200  0.36181200  0.87100200  1
  Pb  Pb84  1  0.30485467  0.91359133  0.70433533  1
  Pb  Pb85  1  0.60873667  0.69514533  0.70433533  1
  Pb  Pb86  1  0.08640867  0.39126333  0.70433533  1
  Pb  Pb87  1  0.39126333  0.08640867  0.79566467  1
  Pb  Pb88  1  0.69514533  0.60873667  0.79566467  1
  Pb  Pb89  1  0.91359133  0.30485467  0.79566467  1
  O  O90  1  0.76072000  0.14248100  0.22410600  1
  O  O91  1  0.38176100  0.23928000  0.22410600  1
  O  O92  1  0.85751900  0.61823900  0.22410600  1
  O  O93  1  0.61823900  0.85751900  0.27589400  1
  O  O94  1  0.23928000  0.38176100  0.27589400  1
  O  O95  1  0.14248100  0.76072000  0.27589400  1
  O  O96  1  0.90594667  0.19085233  0.10922733  1
  O  O97  1  0.28490567  0.09405333  0.10922733  1
  O  O98  1  0.80914767  0.71509433  0.10922733  1
  O  O99  1  0.04842767  0.47581433  0.05743933  1
  O  O100  1  0.42738667  0.95157233  0.05743933  1
  O  O101  1  0.52418567  0.57261333  0.05743933  1
  O  O102  1  0.62574733  0.13399467  0.12610167  1
  O  O103  1  0.50824733  0.37425267  0.12610167  1
  O  O104  1  0.86600533  0.49175267  0.12610167  1
  O  O105  1  0.82508600  0.53267200  0.04056500  1
  O  O106  1  0.70758600  0.17491400  0.04056500  1
  O  O107  1  0.22766833  0.27484267  0.14954367  1
  O  O108  1  0.46732800  0.29241400  0.04056500  1
  O  O109  1  0.15841933  0.95908067  0.20723167  1
  O  O110  1  0.80066133  0.84158067  0.20723167  1
  O  O111  1  0.84158067  0.80066133  0.29276833  1
  O  O112  1  0.95908067  0.15841933  0.29276833  1
  O  O113  1  0.19933867  0.04091933  0.29276833  1
  O  O114  1  0.43899833  0.05849067  0.18378967  1
  O  O115  1  0.61949233  0.56100167  0.18378967  1
  O  O116  1  0.94150933  0.38050767  0.18378967  1
  O  O117  1  0.38050767  0.94150933  0.31621033  1
  O  O118  1  0.56100167  0.61949233  0.31621033  1
  O  O119  1  0.05849067  0.43899833  0.31621033  1
  O  O120  1  0.00000000  0.37954400  0.25000000  1
  O  O121  1  0.62045600  0.62045600  0.25000000  1
  O  O122  1  0.37954400  0.00000000  0.25000000  1
  O  O123  1  0.66666667  0.95378933  0.08333333  1
  O  O124  1  0.04621067  0.71287733  0.08333333  1
  O  O125  1  0.28712267  0.33333333  0.08333333  1
  O  O126  1  0.60817600  0.89433500  0.01712300  1
  O  O127  1  0.10566500  0.71384100  0.01712300  1
  O  O128  1  0.28615900  0.39182400  0.01712300  1
  O  O129  1  0.72515733  0.95282567  0.14954367  1
  O  O130  1  0.04717433  0.77233167  0.14954367  1
  O  O131  1  0.04091933  0.19933867  0.20723167  1
  O  O132  1  0.42738667  0.47581433  0.55743933  1
  O  O133  1  0.04842767  0.57261333  0.55743933  1
  O  O134  1  0.52418567  0.95157233  0.55743933  1
  O  O135  1  0.28490567  0.19085233  0.60922733  1
  O  O136  1  0.90594667  0.71509433  0.60922733  1
  O  O137  1  0.80914767  0.09405333  0.60922733  1
  O  O138  1  0.57261333  0.52418567  0.44256067  1
  O  O139  1  0.95157233  0.42738667  0.44256067  1
  O  O140  1  0.47581433  0.04842767  0.44256067  1
  O  O141  1  0.71509433  0.80914767  0.39077267  1
  O  O142  1  0.09405333  0.28490567  0.39077267  1
  O  O143  1  0.19085233  0.90594667  0.39077267  1
  O  O144  1  0.29241400  0.46732800  0.45943500  1
  O  O145  1  0.17491400  0.70758600  0.45943500  1
  O  O146  1  0.53267200  0.82508600  0.45943500  1
  O  O147  1  0.49175267  0.86600533  0.37389833  1
  O  O148  1  0.37425267  0.50824733  0.37389833  1
  O  O149  1  0.89433500  0.60817600  0.48287700  1
  O  O150  1  0.13399467  0.62574733  0.37389833  1
  O  O151  1  0.82508600  0.29241400  0.54056500  1
  O  O152  1  0.46732800  0.17491400  0.54056500  1
  O  O153  1  0.50824733  0.13399467  0.62610167  1
  O  O154  1  0.62574733  0.49175267  0.62610167  1
  O  O155  1  0.86600533  0.37425267  0.62610167  1
  O  O156  1  0.10566500  0.39182400  0.51712300  1
  O  O157  1  0.28615900  0.89433500  0.51712300  1
  O  O158  1  0.60817600  0.71384100  0.51712300  1
  O  O159  1  0.04717433  0.27484267  0.64954367  1
  O  O160  1  0.22766833  0.95282567  0.64954367  1
  O  O161  1  0.72515733  0.77233167  0.64954367  1
  O  O162  1  0.66666667  0.71287733  0.58333333  1
  O  O163  1  0.28712267  0.95378933  0.58333333  1
  O  O164  1  0.04621067  0.33333333  0.58333333  1
  O  O165  1  0.33333333  0.28712267  0.41666667  1
  O  O166  1  0.71287733  0.04621067  0.41666667  1
  O  O167  1  0.95378933  0.66666667  0.41666667  1
  O  O168  1  0.27484267  0.22766833  0.35045633  1
  O  O169  1  0.77233167  0.04717433  0.35045633  1
  O  O170  1  0.95282567  0.72515733  0.35045633  1
  O  O171  1  0.39182400  0.28615900  0.48287700  1
  O  O172  1  0.71384100  0.10566500  0.48287700  1
  O  O173  1  0.70758600  0.53267200  0.54056500  1
  O  O174  1  0.09405333  0.80914767  0.89077267  1
  O  O175  1  0.71509433  0.90594667  0.89077267  1
  O  O176  1  0.19085233  0.28490567  0.89077267  1
  O  O177  1  0.95157233  0.52418567  0.94256067  1
  O  O178  1  0.57261333  0.04842767  0.94256067  1
  O  O179  1  0.47581433  0.42738667  0.94256067  1
  O  O180  1  0.23928000  0.85751900  0.77589400  1
  O  O181  1  0.61823900  0.76072000  0.77589400  1
  O  O182  1  0.14248100  0.38176100  0.77589400  1
  O  O183  1  0.38176100  0.14248100  0.72410600  1
  O  O184  1  0.76072000  0.61823900  0.72410600  1
  O  O185  1  0.85751900  0.23928000  0.72410600  1
  O  O186  1  0.95908067  0.80066133  0.79276833  1
  O  O187  1  0.84158067  0.04091933  0.79276833  1
  O  O188  1  0.19933867  0.15841933  0.79276833  1
  O  O189  1  0.15841933  0.19933867  0.70723167  1
  O  O190  1  0.04091933  0.84158067  0.70723167  1
  O  O191  1  0.56100167  0.94150933  0.81621033  1
  O  O192  1  0.80066133  0.95908067  0.70723167  1
  O  O193  1  0.49175267  0.62574733  0.87389833  1
  O  O194  1  0.13399467  0.50824733  0.87389833  1
  O  O195  1  0.17491400  0.46732800  0.95943500  1
  O  O196  1  0.29241400  0.82508600  0.95943500  1
  O  O197  1  0.53267200  0.70758600  0.95943500  1
  O  O198  1  0.77233167  0.72515733  0.85045633  1
  O  O199  1  0.95282567  0.22766833  0.85045633  1
  O  O200  1  0.27484267  0.04717433  0.85045633  1
  O  O201  1  0.71384100  0.60817600  0.98287700  1
  O  O202  1  0.89433500  0.28615900  0.98287700  1
  O  O203  1  0.39182400  0.10566500  0.98287700  1
  O  O204  1  0.33333333  0.04621067  0.91666667  1
  O  O205  1  0.95378933  0.28712267  0.91666667  1
  O  O206  1  0.71287733  0.66666667  0.91666667  1
  O  O207  1  0.00000000  0.62045600  0.75000000  1
  O  O208  1  0.37954400  0.37954400  0.75000000  1
  O  O209  1  0.62045600  0.00000000  0.75000000  1
  O  O210  1  0.94150933  0.56100167  0.68378967  1
  O  O211  1  0.43899833  0.38050767  0.68378967  1
  O  O212  1  0.61949233  0.05849067  0.68378967  1
  O  O213  1  0.05849067  0.61949233  0.81621033  1
  O  O214  1  0.38050767  0.43899833  0.81621033  1
  O  O215  1  0.37425267  0.86600533  0.87389833  1
