# generated using pymatgen
data_K2In12Se19
_symmetry_space_group_name_H-M   'P 1'
_cell_length_a   14.22639198
_cell_length_b   14.22639198
_cell_length_c   36.19094667
_cell_angle_alpha   90.00000000
_cell_angle_beta   90.00000000
_cell_angle_gamma   120.00000000
_symmetry_Int_Tables_number   1
_chemical_formula_structural   K2In12Se19
_chemical_formula_sum   'K12 In72 Se114'
_cell_volume   6343.37105345
_cell_formula_units_Z   6
loop_
 _symmetry_equiv_pos_site_id
 _symmetry_equiv_pos_as_xyz
  1  'x, y, z'
loop_
 _atom_site_type_symbol
 _atom_site_label
 _atom_site_symmetry_multiplicity
 _atom_site_fract_x
 _atom_site_fract_y
 _atom_site_fract_z
 _atom_site_occupancy
  K  K0  1  0.33333333  0.66666667  0.25333467  1
  K  K1  1  0.33333333  0.66666667  0.07999867  1
  K  K2  1  0.00000000  0.00000000  0.07877500  1
  K  K3  1  0.66666667  0.33333333  0.25455833  1
  K  K4  1  0.00000000  0.00000000  0.58666800  1
  K  K5  1  0.00000000  0.00000000  0.41333200  1
  K  K6  1  0.66666667  0.33333333  0.41210833  1
  K  K7  1  0.33333333  0.66666667  0.58789167  1
  K  K8  1  0.66666667  0.33333333  0.92000133  1
  K  K9  1  0.66666667  0.33333333  0.74666533  1
  K  K10  1  0.33333333  0.66666667  0.74544167  1
  K  K11  1  0.00000000  0.00000000  0.92122500  1
  In  In12  1  0.31615900  0.11035600  0.00740600  1
  In  In13  1  0.88964400  0.20580300  0.00740600  1
  In  In14  1  0.79419700  0.68384100  0.00740600  1
  In  In15  1  0.35050767  0.22297733  0.32592733  1
  In  In16  1  0.77702267  0.12753033  0.32592733  1
  In  In17  1  0.87246967  0.64949233  0.32592733  1
  In  In18  1  0.64716633  0.77841467  0.17706567  1
  In  In19  1  0.22158533  0.86875167  0.17706567  1
  In  In20  1  0.13124833  0.35283367  0.17706567  1
  In  In21  1  0.01950033  0.55491867  0.15626767  1
  In  In22  1  0.44508133  0.46458167  0.15626767  1
  In  In23  1  0.53541833  0.98049967  0.15626767  1
  In  In24  1  0.58750667  0.14061633  0.04958633  1
  In  In25  1  0.85938367  0.44689033  0.04958633  1
  In  In26  1  0.55310967  0.41249333  0.04958633  1
  In  In27  1  0.07916000  0.19271700  0.28374700  1
  In  In28  1  0.80728300  0.88644300  0.28374700  1
  In  In29  1  0.11355700  0.92084000  0.28374700  1
  In  In30  1  0.37967367  0.15748733  0.12076333  1
  In  In31  1  0.84251267  0.22218633  0.12076333  1
  In  In32  1  0.77781367  0.62032633  0.12076333  1
  In  In33  1  0.28699300  0.17584600  0.21257000  1
  In  In34  1  0.82415400  0.11114700  0.21257000  1
  In  In35  1  0.88885300  0.71300700  0.21257000  1
  In  In36  1  0.98282567  0.44368933  0.34073933  1
  In  In37  1  0.55631067  0.53913633  0.34073933  1
  In  In38  1  0.46086367  0.01717433  0.34073933  1
  In  In39  1  0.01717433  0.55631067  0.65926067  1
  In  In40  1  0.44368933  0.46086367  0.65926067  1
  In  In41  1  0.53913633  0.98282567  0.65926067  1
  In  In42  1  0.31383300  0.11174800  0.51039900  1
  In  In43  1  0.88825200  0.20208500  0.51039900  1
  In  In44  1  0.79791500  0.68616700  0.51039900  1
  In  In45  1  0.68616700  0.88825200  0.48960100  1
  In  In46  1  0.11174800  0.79791500  0.48960100  1
  In  In47  1  0.20208500  0.31383300  0.48960100  1
  In  In48  1  0.25417333  0.47394967  0.38291967  1
  In  In49  1  0.52605033  0.78022367  0.38291967  1
  In  In50  1  0.21977633  0.74582667  0.38291967  1
  In  In51  1  0.74582667  0.52605033  0.61708033  1
  In  In52  1  0.47394967  0.21977633  0.61708033  1
  In  In53  1  0.78022367  0.25417333  0.61708033  1
  In  In54  1  0.04634033  0.49082067  0.45409667  1
  In  In55  1  0.50917933  0.55551967  0.45409667  1
  In  In56  1  0.44448033  0.95365967  0.45409667  1
  In  In57  1  0.95365967  0.50917933  0.54590333  1
  In  In58  1  0.49082067  0.44448033  0.54590333  1
  In  In59  1  0.55551967  0.04634033  0.54590333  1
  In  In60  1  0.64949233  0.77702267  0.67407267  1
  In  In61  1  0.22297733  0.87246967  0.67407267  1
  In  In62  1  0.12753033  0.35050767  0.67407267  1
  In  In63  1  0.68384100  0.88964400  0.99259400  1
  In  In64  1  0.11035600  0.79419700  0.99259400  1
  In  In65  1  0.20580300  0.31615900  0.99259400  1
  In  In66  1  0.98049967  0.44508133  0.84373233  1
  In  In67  1  0.55491867  0.53541833  0.84373233  1
  In  In68  1  0.46458167  0.01950033  0.84373233  1
  In  In69  1  0.35283367  0.22158533  0.82293433  1
  In  In70  1  0.77841467  0.13124833  0.82293433  1
  In  In71  1  0.86875167  0.64716633  0.82293433  1
  In  In72  1  0.92084000  0.80728300  0.71625300  1
  In  In73  1  0.19271700  0.11355700  0.71625300  1
  In  In74  1  0.88644300  0.07916000  0.71625300  1
  In  In75  1  0.41249333  0.85938367  0.95041367  1
  In  In76  1  0.14061633  0.55310967  0.95041367  1
  In  In77  1  0.44689033  0.58750667  0.95041367  1
  In  In78  1  0.71300700  0.82415400  0.78743000  1
  In  In79  1  0.17584600  0.88885300  0.78743000  1
  In  In80  1  0.11114700  0.28699300  0.78743000  1
  In  In81  1  0.62032633  0.84251267  0.87923667  1
  In  In82  1  0.15748733  0.77781367  0.87923667  1
  In  In83  1  0.22218633  0.37967367  0.87923667  1
  Se  Se84  1  0.00000000  0.00000000  0.24898600  1
  Se  Se85  1  0.66666667  0.33333333  0.08434733  1
  Se  Se86  1  0.06079500  0.24383000  0.04462300  1
  Se  Se87  1  0.75617000  0.81696500  0.04462300  1
  Se  Se88  1  0.18303500  0.93920500  0.04462300  1
  Se  Se89  1  0.60587167  0.08950333  0.28871033  1
  Se  Se90  1  0.91049667  0.51636833  0.28871033  1
  Se  Se91  1  0.48363167  0.39412833  0.28871033  1
  Se  Se92  1  0.40152267  0.92208333  0.21094233  1
  Se  Se93  1  0.07791667  0.47943933  0.21094233  1
  Se  Se94  1  0.52056067  0.59847733  0.21094233  1
  Se  Se95  1  0.26514400  0.41125000  0.12239100  1
  Se  Se96  1  0.58875000  0.85389400  0.12239100  1
  Se  Se97  1  0.14610600  0.73485600  0.12239100  1
  Se  Se98  1  0.30026400  0.82812000  0.31971500  1
  Se  Se99  1  0.17188000  0.47214400  0.31971500  1
  Se  Se100  1  0.52785600  0.69973600  0.31971500  1
  Se  Se101  1  0.36640267  0.50521333  0.01361833  1
  Se  Se102  1  0.49478667  0.86118933  0.01361833  1
  Se  Se103  1  0.13881067  0.63359733  0.01361833  1
  Se  Se104  1  0.96282833  0.15402767  0.15689067  1
  Se  Se105  1  0.84597233  0.80880067  0.15689067  1
  Se  Se106  1  0.19119933  0.03717167  0.15689067  1
  Se  Se107  1  0.70383833  0.17930567  0.17644267  1
  Se  Se108  1  0.82069433  0.52453267  0.17644267  1
  Se  Se109  1  0.47546733  0.29616167  0.17644267  1
  Se  Se110  1  0.35193433  0.25512967  0.06324667  1
  Se  Se111  1  0.74487033  0.09680467  0.06324667  1
  Se  Se112  1  0.90319533  0.64806567  0.06324667  1
  Se  Se113  1  0.31473233  0.07820367  0.27008667  1
  Se  Se114  1  0.92179633  0.23652867  0.27008667  1
  Se  Se115  1  0.76347133  0.68526767  0.27008667  1
  Se  Se116  1  0.68255467  0.91376433  0.23399233  1
  Se  Se117  1  0.08623567  0.76879033  0.23399233  1
  Se  Se118  1  0.23120967  0.31744533  0.23399233  1
  Se  Se119  1  0.98411200  0.41956900  0.09934100  1
  Se  Se120  1  0.58043100  0.56454300  0.09934100  1
  Se  Se121  1  0.43545700  0.01588800  0.09934100  1
  Se  Se122  1  0.66666667  0.33333333  0.58231933  1
  Se  Se123  1  0.33333333  0.66666667  0.41768067  1
  Se  Se124  1  0.72746167  0.57716333  0.37795633  1
  Se  Se125  1  0.42283667  0.15029833  0.37795633  1
  Se  Se126  1  0.84970167  0.27253833  0.37795633  1
  Se  Se127  1  0.27253833  0.42283667  0.62204367  1
  Se  Se128  1  0.57716333  0.84970167  0.62204367  1
  Se  Se129  1  0.15029833  0.72746167  0.62204367  1
  Se  Se130  1  0.06818933  0.25541667  0.54427567  1
  Se  Se131  1  0.74458333  0.81277267  0.54427567  1
  Se  Se132  1  0.18722733  0.93181067  0.54427567  1
  Se  Se133  1  0.93181067  0.74458333  0.45572433  1
  Se  Se134  1  0.25541667  0.18722733  0.45572433  1
  Se  Se135  1  0.81277267  0.06818933  0.45572433  1
  Se  Se136  1  0.96693067  0.16145333  0.65304833  1
  Se  Se137  1  0.83854667  0.80547733  0.65304833  1
  Se  Se138  1  0.19452267  0.03306933  0.65304833  1
  Se  Se139  1  0.03306933  0.83854667  0.34695167  1
  Se  Se140  1  0.16145333  0.19452267  0.34695167  1
  Se  Se141  1  0.80547733  0.96693067  0.34695167  1
  Se  Se142  1  0.62949500  0.48736100  0.49022400  1
  Se  Se143  1  0.51263900  0.14213400  0.49022400  1
  Se  Se144  1  0.85786600  0.37050500  0.49022400  1
  Se  Se145  1  0.37050500  0.51263900  0.50977600  1
  Se  Se146  1  0.48736100  0.85786600  0.50977600  1
  Se  Se147  1  0.14213400  0.62949500  0.50977600  1
  Se  Se148  1  0.01860100  0.58846300  0.39658000  1
  Se  Se149  1  0.41153700  0.43013800  0.39658000  1
  Se  Se150  1  0.56986200  0.98139900  0.39658000  1
  Se  Se151  1  0.98139900  0.41153700  0.60342000  1
  Se  Se152  1  0.58846300  0.56986200  0.60342000  1
  Se  Se153  1  0.43013800  0.01860100  0.60342000  1
  Se  Se154  1  0.34922133  0.24709767  0.56732567  1
  Se  Se155  1  0.75290233  0.10212367  0.56732567  1
  Se  Se156  1  0.89787633  0.65077867  0.56732567  1
  Se  Se157  1  0.65077867  0.75290233  0.43267433  1
  Se  Se158  1  0.24709767  0.89787633  0.43267433  1
  Se  Se159  1  0.10212367  0.34922133  0.43267433  1
  Se  Se160  1  0.33333333  0.66666667  0.91565267  1
  Se  Se161  1  0.00000000  0.00000000  0.75101400  1
  Se  Se162  1  0.39412833  0.91049667  0.71128967  1
  Se  Se163  1  0.08950333  0.48363167  0.71128967  1
  Se  Se164  1  0.51636833  0.60587167  0.71128967  1
  Se  Se165  1  0.93920500  0.75617000  0.95537700  1
  Se  Se166  1  0.24383000  0.18303500  0.95537700  1
  Se  Se167  1  0.81696500  0.06079500  0.95537700  1
  Se  Se168  1  0.73485600  0.58875000  0.87760900  1
  Se  Se169  1  0.41125000  0.14610600  0.87760900  1
  Se  Se170  1  0.85389400  0.26514400  0.87760900  1
  Se  Se171  1  0.59847733  0.07791667  0.78905767  1
  Se  Se172  1  0.92208333  0.52056067  0.78905767  1
  Se  Se173  1  0.47943933  0.40152267  0.78905767  1
  Se  Se174  1  0.63359733  0.49478667  0.98638167  1
  Se  Se175  1  0.50521333  0.13881067  0.98638167  1
  Se  Se176  1  0.86118933  0.36640267  0.98638167  1
  Se  Se177  1  0.69973600  0.17188000  0.68028500  1
  Se  Se178  1  0.82812000  0.52785600  0.68028500  1
  Se  Se179  1  0.47214400  0.30026400  0.68028500  1
  Se  Se180  1  0.29616167  0.82069433  0.82355733  1
  Se  Se181  1  0.17930567  0.47546733  0.82355733  1
  Se  Se182  1  0.52453267  0.70383833  0.82355733  1
  Se  Se183  1  0.03717167  0.84597233  0.84310933  1
  Se  Se184  1  0.15402767  0.19119933  0.84310933  1
  Se  Se185  1  0.80880067  0.96282833  0.84310933  1
  Se  Se186  1  0.68526767  0.92179633  0.72991333  1
  Se  Se187  1  0.07820367  0.76347133  0.72991333  1
  Se  Se188  1  0.23652867  0.31473233  0.72991333  1
  Se  Se189  1  0.64806567  0.74487033  0.93675333  1
  Se  Se190  1  0.25512967  0.90319533  0.93675333  1
  Se  Se191  1  0.09680467  0.35193433  0.93675333  1
  Se  Se192  1  0.01588800  0.58043100  0.90065900  1
  Se  Se193  1  0.41956900  0.43545700  0.90065900  1
  Se  Se194  1  0.56454300  0.98411200  0.90065900  1
  Se  Se195  1  0.31744533  0.08623567  0.76600767  1
  Se  Se196  1  0.91376433  0.23120967  0.76600767  1
  Se  Se197  1  0.76879033  0.68255467  0.76600767  1
