# generated using pymatgen
data_Mo2SBr2
_symmetry_space_group_name_H-M   'P 1'
_cell_length_a   6.71079000
_cell_length_b   18.59307000
_cell_length_c   12.06592900
_cell_angle_alpha   90.00000000
_cell_angle_beta   90.00000000
_cell_angle_gamma   90.00000000
_symmetry_Int_Tables_number   1
_chemical_formula_structural   Mo2SBr2
_chemical_formula_sum   'Mo24 S12 Br24'
_cell_volume   1505.51649616
_cell_formula_units_Z   12
loop_
 _symmetry_equiv_pos_site_id
 _symmetry_equiv_pos_as_xyz
  1  'x, y, z'
loop_
 _atom_site_type_symbol
 _atom_site_label
 _atom_site_symmetry_multiplicity
 _atom_site_fract_x
 _atom_site_fract_y
 _atom_site_fract_z
 _atom_site_occupancy
  Mo  Mo0  1  0.25570800  0.00000000  0.93848100  1
  Mo  Mo1  1  0.25570800  0.00000000  0.56151900  1
  Mo  Mo2  1  0.74429200  0.00000000  0.43848100  1
  Mo  Mo3  1  0.74429200  0.00000000  0.06151900  1
  Mo  Mo4  1  0.91597050  0.07168850  0.89816500  1
  Mo  Mo5  1  0.41597050  0.42831150  0.60183500  1
  Mo  Mo6  1  0.58402950  0.42831150  0.39816500  1
  Mo  Mo7  1  0.08402950  0.07168850  0.10183500  1
  Mo  Mo8  1  0.58402950  0.42831150  0.10183500  1
  Mo  Mo9  1  0.08402950  0.07168850  0.39816500  1
  Mo  Mo10  1  0.91597050  0.07168850  0.60183500  1
  Mo  Mo11  1  0.41597050  0.42831150  0.89816500  1
  Mo  Mo12  1  0.75570800  0.50000000  0.93848100  1
  Mo  Mo13  1  0.75570800  0.50000000  0.56151900  1
  Mo  Mo14  1  0.24429200  0.50000000  0.43848100  1
  Mo  Mo15  1  0.24429200  0.50000000  0.06151900  1
  Mo  Mo16  1  0.41597050  0.57168850  0.89816500  1
  Mo  Mo17  1  0.91597050  0.92831150  0.60183500  1
  Mo  Mo18  1  0.08402950  0.92831150  0.39816500  1
  Mo  Mo19  1  0.58402950  0.57168850  0.10183500  1
  Mo  Mo20  1  0.08402950  0.92831150  0.10183500  1
  Mo  Mo21  1  0.58402950  0.57168850  0.39816500  1
  Mo  Mo22  1  0.41597050  0.57168850  0.60183500  1
  Mo  Mo23  1  0.91597050  0.92831150  0.89816500  1
  S  S24  1  0.61908900  0.00000000  0.62806400  1
  S  S25  1  0.61908900  0.00000000  0.87193600  1
  S  S26  1  0.38091100  0.00000000  0.12806400  1
  S  S27  1  0.38091100  0.00000000  0.37193600  1
  S  S28  1  0.08838100  0.00000000  0.75000000  1
  S  S29  1  0.91161900  0.00000000  0.25000000  1
  S  S30  1  0.11908900  0.50000000  0.62806400  1
  S  S31  1  0.11908900  0.50000000  0.87193600  1
  S  S32  1  0.88091100  0.50000000  0.12806400  1
  S  S33  1  0.88091100  0.50000000  0.37193600  1
  S  S34  1  0.58838100  0.50000000  0.75000000  1
  S  S35  1  0.41161900  0.50000000  0.25000000  1
  Br  Br36  1  0.69740150  0.32852650  0.25000000  1
  Br  Br37  1  0.19740150  0.17147350  0.25000000  1
  Br  Br38  1  0.80259850  0.17147350  0.75000000  1
  Br  Br39  1  0.30259850  0.32852650  0.75000000  1
  Br  Br40  1  0.74706800  0.14212500  0.06345400  1
  Br  Br41  1  0.24706800  0.35787500  0.43654600  1
  Br  Br42  1  0.24706800  0.35787500  0.06345400  1
  Br  Br43  1  0.74706800  0.14212500  0.43654600  1
  Br  Br44  1  0.25293200  0.14212500  0.56345400  1
  Br  Br45  1  0.75293200  0.35787500  0.93654600  1
  Br  Br46  1  0.25293200  0.14212500  0.93654600  1
  Br  Br47  1  0.75293200  0.35787500  0.56345400  1
  Br  Br48  1  0.19740150  0.82852650  0.25000000  1
  Br  Br49  1  0.69740150  0.67147350  0.25000000  1
  Br  Br50  1  0.30259850  0.67147350  0.75000000  1
  Br  Br51  1  0.80259850  0.82852650  0.75000000  1
  Br  Br52  1  0.24706800  0.64212500  0.06345400  1
  Br  Br53  1  0.74706800  0.85787500  0.43654600  1
  Br  Br54  1  0.74706800  0.85787500  0.06345400  1
  Br  Br55  1  0.24706800  0.64212500  0.43654600  1
  Br  Br56  1  0.75293200  0.64212500  0.56345400  1
  Br  Br57  1  0.25293200  0.85787500  0.93654600  1
  Br  Br58  1  0.75293200  0.64212500  0.93654600  1
  Br  Br59  1  0.25293200  0.85787500  0.56345400  1
