# generated using pymatgen
data_CsAgBr2
_symmetry_space_group_name_H-M   'P 1'
_cell_length_a   4.66612400
_cell_length_b   20.34457200
_cell_length_c   6.04444600
_cell_angle_alpha   90.00000000
_cell_angle_beta   90.00000000
_cell_angle_gamma   90.00000000
_symmetry_Int_Tables_number   1
_chemical_formula_structural   CsAgBr2
_chemical_formula_sum   'Cs4 Ag4 Br8'
_cell_volume   573.80104600
_cell_formula_units_Z   4
loop_
 _symmetry_equiv_pos_site_id
 _symmetry_equiv_pos_as_xyz
  1  'x, y, z'
loop_
 _atom_site_type_symbol
 _atom_site_label
 _atom_site_symmetry_multiplicity
 _atom_site_fract_x
 _atom_site_fract_y
 _atom_site_fract_z
 _atom_site_occupancy
  Cs  Cs0  1  0.50000000  0.91543400  0.75000000  1
  Cs  Cs1  1  0.00000000  0.58456600  0.25000000  1
  Cs  Cs2  1  0.00000000  0.41543400  0.75000000  1
  Cs  Cs3  1  0.50000000  0.08456600  0.25000000  1
  Ag  Ag4  1  0.00000000  0.79910200  0.25000000  1
  Ag  Ag5  1  0.50000000  0.70089800  0.75000000  1
  Ag  Ag6  1  0.50000000  0.29910200  0.25000000  1
  Ag  Ag7  1  0.00000000  0.20089800  0.75000000  1
  Br  Br8  1  0.50000000  0.56930100  0.75000000  1
  Br  Br9  1  0.00000000  0.93069900  0.25000000  1
  Br  Br10  1  0.50000000  0.72530500  0.25000000  1
  Br  Br11  1  0.00000000  0.77469500  0.75000000  1
  Br  Br12  1  0.00000000  0.06930100  0.75000000  1
  Br  Br13  1  0.50000000  0.43069900  0.25000000  1
  Br  Br14  1  0.00000000  0.22530500  0.25000000  1
  Br  Br15  1  0.50000000  0.27469500  0.75000000  1
