# generated using pymatgen
data_BaU2O7
_symmetry_space_group_name_H-M   'P 1'
_cell_length_a   7.20311000
_cell_length_b   7.20311000
_cell_length_c   12.24986200
_cell_angle_alpha   90.00000000
_cell_angle_beta   90.00000000
_cell_angle_gamma   90.00000000
_symmetry_Int_Tables_number   1
_chemical_formula_structural   BaU2O7
_chemical_formula_sum   'Ba4 U8 O28'
_cell_volume   635.58156238
_cell_formula_units_Z   4
loop_
 _symmetry_equiv_pos_site_id
 _symmetry_equiv_pos_as_xyz
  1  'x, y, z'
loop_
 _atom_site_type_symbol
 _atom_site_label
 _atom_site_symmetry_multiplicity
 _atom_site_fract_x
 _atom_site_fract_y
 _atom_site_fract_z
 _atom_site_occupancy
  Ba  Ba0  1  0.00000000  0.00000000  0.00000000  1
  Ba  Ba1  1  0.00000000  0.50000000  0.25000000  1
  Ba  Ba2  1  0.50000000  0.50000000  0.50000000  1
  Ba  Ba3  1  0.50000000  0.00000000  0.75000000  1
  U  U4  1  0.50000000  0.75000000  0.12500000  1
  U  U5  1  0.25000000  0.00000000  0.37500000  1
  U  U6  1  0.75000000  0.00000000  0.37500000  1
  U  U7  1  0.50000000  0.25000000  0.12500000  1
  U  U8  1  0.00000000  0.25000000  0.62500000  1
  U  U9  1  0.75000000  0.50000000  0.87500000  1
  U  U10  1  0.25000000  0.50000000  0.87500000  1
  U  U11  1  0.00000000  0.75000000  0.62500000  1
  O  O12  1  0.50000000  0.00000000  0.25000000  1
  O  O13  1  0.50000000  0.50000000  0.00000000  1
  O  O14  1  0.50000000  0.50000000  0.21790500  1
  O  O15  1  0.50000000  0.00000000  0.46790500  1
  O  O16  1  0.50000000  0.00000000  0.03209500  1
  O  O17  1  0.00000000  0.00000000  0.28209500  1
  O  O18  1  0.23641500  0.75000000  0.12500000  1
  O  O19  1  0.25000000  0.73641500  0.37500000  1
  O  O20  1  0.75000000  0.26358500  0.37500000  1
  O  O21  1  0.76358500  0.25000000  0.12500000  1
  O  O22  1  0.76358500  0.75000000  0.12500000  1
  O  O23  1  0.25000000  0.26358500  0.37500000  1
  O  O24  1  0.75000000  0.73641500  0.37500000  1
  O  O25  1  0.23641500  0.25000000  0.12500000  1
  O  O26  1  0.00000000  0.50000000  0.75000000  1
  O  O27  1  0.00000000  0.00000000  0.50000000  1
  O  O28  1  0.00000000  0.00000000  0.71790500  1
  O  O29  1  0.00000000  0.50000000  0.96790500  1
  O  O30  1  0.00000000  0.50000000  0.53209500  1
  O  O31  1  0.50000000  0.50000000  0.78209500  1
  O  O32  1  0.73641500  0.25000000  0.62500000  1
  O  O33  1  0.75000000  0.23641500  0.87500000  1
  O  O34  1  0.25000000  0.76358500  0.87500000  1
  O  O35  1  0.26358500  0.75000000  0.62500000  1
  O  O36  1  0.26358500  0.25000000  0.62500000  1
  O  O37  1  0.75000000  0.76358500  0.87500000  1
  O  O38  1  0.25000000  0.23641500  0.87500000  1
  O  O39  1  0.73641500  0.75000000  0.62500000  1
