# generated using pymatgen
data_TlCdBr3
_symmetry_space_group_name_H-M   'P 1'
_cell_length_a   4.21979700
_cell_length_b   9.64021400
_cell_length_c   15.78138700
_cell_angle_alpha   90.00000000
_cell_angle_beta   90.00000000
_cell_angle_gamma   90.00000000
_symmetry_Int_Tables_number   1
_chemical_formula_structural   TlCdBr3
_chemical_formula_sum   'Tl4 Cd4 Br12'
_cell_volume   641.98281653
_cell_formula_units_Z   4
loop_
 _symmetry_equiv_pos_site_id
 _symmetry_equiv_pos_as_xyz
  1  'x, y, z'
loop_
 _atom_site_type_symbol
 _atom_site_label
 _atom_site_symmetry_multiplicity
 _atom_site_fract_x
 _atom_site_fract_y
 _atom_site_fract_z
 _atom_site_occupancy
  Tl  Tl0  1  0.25000000  0.93848400  0.67731600  1
  Tl  Tl1  1  0.75000000  0.06151600  0.32268400  1
  Tl  Tl2  1  0.25000000  0.43848400  0.82268400  1
  Tl  Tl3  1  0.75000000  0.56151600  0.17731600  1
  Cd  Cd4  1  0.25000000  0.66767600  0.44467800  1
  Cd  Cd5  1  0.75000000  0.33232400  0.55532200  1
  Cd  Cd6  1  0.25000000  0.16767600  0.05532200  1
  Cd  Cd7  1  0.75000000  0.83232400  0.94467800  1
  Br  Br8  1  0.25000000  0.52089900  0.60236600  1
  Br  Br9  1  0.75000000  0.47910100  0.39763400  1
  Br  Br10  1  0.25000000  0.02089900  0.89763400  1
  Br  Br11  1  0.75000000  0.97910100  0.10236600  1
  Br  Br12  1  0.25000000  0.66606400  0.00623900  1
  Br  Br13  1  0.75000000  0.33393600  0.99376100  1
  Br  Br14  1  0.25000000  0.16606400  0.49376100  1
  Br  Br15  1  0.75000000  0.83393600  0.50623900  1
  Br  Br16  1  0.75000000  0.71251300  0.78862400  1
  Br  Br17  1  0.25000000  0.28748700  0.21137600  1
  Br  Br18  1  0.75000000  0.21251300  0.71137600  1
  Br  Br19  1  0.25000000  0.78748700  0.28862400  1
