# generated using pymatgen
data_K4Be3O5
_symmetry_space_group_name_H-M   'P 1'
_cell_length_a   10.47849600
_cell_length_b   7.27210800
_cell_length_c   10.90765093
_cell_angle_alpha   90.00000000
_cell_angle_beta   118.15115608
_cell_angle_gamma   90.00000000
_symmetry_Int_Tables_number   1
_chemical_formula_structural   K4Be3O5
_chemical_formula_sum   'K16 Be12 O20'
_cell_volume   732.84864135
_cell_formula_units_Z   4
loop_
 _symmetry_equiv_pos_site_id
 _symmetry_equiv_pos_as_xyz
  1  'x, y, z'
loop_
 _atom_site_type_symbol
 _atom_site_label
 _atom_site_symmetry_multiplicity
 _atom_site_fract_x
 _atom_site_fract_y
 _atom_site_fract_z
 _atom_site_occupancy
  K  K0  1  0.33268150  0.89009750  0.40498600  1
  K  K1  1  0.66731850  0.89009750  0.09501400  1
  K  K2  1  0.16731850  0.60990250  0.59501400  1
  K  K3  1  0.83268150  0.60990250  0.90498600  1
  K  K4  1  0.17091300  0.91795100  0.07561800  1
  K  K5  1  0.82908700  0.91795100  0.42438200  1
  K  K6  1  0.32908700  0.58204900  0.92438200  1
  K  K7  1  0.67091300  0.58204900  0.57561800  1
  K  K8  1  0.83268150  0.39009750  0.40498600  1
  K  K9  1  0.16731850  0.39009750  0.09501400  1
  K  K10  1  0.66731850  0.10990250  0.59501400  1
  K  K11  1  0.33268150  0.10990250  0.90498600  1
  K  K12  1  0.67091300  0.41795100  0.07561800  1
  K  K13  1  0.32908700  0.41795100  0.42438200  1
  K  K14  1  0.82908700  0.08204900  0.92438200  1
  K  K15  1  0.17091300  0.08204900  0.57561800  1
  Be  Be16  1  0.50000000  0.18927900  0.25000000  1
  Be  Be17  1  0.00000000  0.31072100  0.75000000  1
  Be  Be18  1  0.00000000  0.73131900  0.75000000  1
  Be  Be19  1  0.50000000  0.76868100  0.25000000  1
  Be  Be20  1  0.50000000  0.52032300  0.75000000  1
  Be  Be21  1  0.00000000  0.97967700  0.25000000  1
  Be  Be22  1  0.00000000  0.68927900  0.25000000  1
  Be  Be23  1  0.50000000  0.81072100  0.75000000  1
  Be  Be24  1  0.50000000  0.23131900  0.75000000  1
  Be  Be25  1  0.00000000  0.26868100  0.25000000  1
  Be  Be26  1  0.00000000  0.02032300  0.75000000  1
  Be  Be27  1  0.50000000  0.47967700  0.25000000  1
  O  O28  1  0.00000000  0.52143900  0.75000000  1
  O  O29  1  0.50000000  0.97856100  0.25000000  1
  O  O30  1  0.04996100  0.17715700  0.87728100  1
  O  O31  1  0.45003900  0.67715700  0.62271900  1
  O  O32  1  0.45003900  0.32284300  0.12271900  1
  O  O33  1  0.04996100  0.82284300  0.37728100  1
  O  O34  1  0.12695500  0.86105000  0.76939600  1
  O  O35  1  0.87304500  0.86105000  0.73060400  1
  O  O36  1  0.37304500  0.63895000  0.23060400  1
  O  O37  1  0.62695500  0.63895000  0.26939600  1
  O  O38  1  0.50000000  0.02143900  0.75000000  1
  O  O39  1  0.00000000  0.47856100  0.25000000  1
  O  O40  1  0.54996100  0.67715700  0.87728100  1
  O  O41  1  0.95003900  0.17715700  0.62271900  1
  O  O42  1  0.95003900  0.82284300  0.12271900  1
  O  O43  1  0.54996100  0.32284300  0.37728100  1
  O  O44  1  0.62695500  0.36105000  0.76939600  1
  O  O45  1  0.37304500  0.36105000  0.73060400  1
  O  O46  1  0.87304500  0.13895000  0.23060400  1
  O  O47  1  0.12695500  0.13895000  0.26939600  1
