# generated using pymatgen
data_SbCl3F2
_symmetry_space_group_name_H-M   'P 1'
_cell_length_a   13.35076400
_cell_length_b   13.35076400
_cell_length_c   7.52039400
_cell_angle_alpha   90.00000000
_cell_angle_beta   90.00000000
_cell_angle_gamma   90.00000000
_symmetry_Int_Tables_number   1
_chemical_formula_structural   SbCl3F2
_chemical_formula_sum   'Sb8 Cl24 F16'
_cell_volume   1340.45683107
_cell_formula_units_Z   8
loop_
 _symmetry_equiv_pos_site_id
 _symmetry_equiv_pos_as_xyz
  1  'x, y, z'
loop_
 _atom_site_type_symbol
 _atom_site_label
 _atom_site_symmetry_multiplicity
 _atom_site_fract_x
 _atom_site_fract_y
 _atom_site_fract_z
 _atom_site_occupancy
  Sb  Sb0  1  0.45346900  0.28172600  0.01498900  1
  Sb  Sb1  1  0.78172600  0.04653100  0.48501100  1
  Sb  Sb2  1  0.21827400  0.95346900  0.48501100  1
  Sb  Sb3  1  0.54653100  0.71827400  0.01498900  1
  Sb  Sb4  1  0.95346900  0.78172600  0.51498900  1
  Sb  Sb5  1  0.28172600  0.54653100  0.98501100  1
  Sb  Sb6  1  0.71827400  0.45346900  0.98501100  1
  Sb  Sb7  1  0.04653100  0.21827400  0.51498900  1
  Cl  Cl8  1  0.29991100  0.20132000  0.00436100  1
  Cl  Cl9  1  0.44105100  0.85633600  0.01130200  1
  Cl  Cl10  1  0.64366400  0.94105100  0.48869800  1
  Cl  Cl11  1  0.55894900  0.14366400  0.01130200  1
  Cl  Cl12  1  0.54119150  0.68536750  0.31851850  1
  Cl  Cl13  1  0.18536750  0.95880850  0.18148150  1
  Cl  Cl14  1  0.81463250  0.04119150  0.18148150  1
  Cl  Cl15  1  0.45880850  0.31463250  0.31851850  1
  Cl  Cl16  1  0.29868000  0.79991100  0.49563900  1
  Cl  Cl17  1  0.70008900  0.79868000  0.00436100  1
  Cl  Cl18  1  0.35633600  0.05894900  0.48869800  1
  Cl  Cl19  1  0.70132000  0.20008900  0.49563900  1
  Cl  Cl20  1  0.79991100  0.70132000  0.50436100  1
  Cl  Cl21  1  0.94105100  0.35633600  0.51130200  1
  Cl  Cl22  1  0.14366400  0.44105100  0.98869800  1
  Cl  Cl23  1  0.05894900  0.64366400  0.51130200  1
  Cl  Cl24  1  0.04119150  0.18536750  0.81851850  1
  Cl  Cl25  1  0.68536750  0.45880850  0.68148150  1
  Cl  Cl26  1  0.31463250  0.54119150  0.68148150  1
  Cl  Cl27  1  0.95880850  0.81463250  0.81851850  1
  Cl  Cl28  1  0.79868000  0.29991100  0.99563900  1
  Cl  Cl29  1  0.20008900  0.29868000  0.50436100  1
  Cl  Cl30  1  0.85633600  0.55894900  0.98869800  1
  Cl  Cl31  1  0.20132000  0.70008900  0.99563900  1
  F  F32  1  0.46019650  0.30009250  0.76386050  1
  F  F33  1  0.80009250  0.03980350  0.73613950  1
  F  F34  1  0.19990750  0.96019650  0.73613950  1
  F  F35  1  0.53980350  0.69990750  0.76386050  1
  F  F36  1  0.12044700  0.07809300  0.49662100  1
  F  F37  1  0.42190700  0.62044700  0.00337900  1
  F  F38  1  0.57809300  0.37955300  0.00337900  1
  F  F39  1  0.87955300  0.92190700  0.49662100  1
  F  F40  1  0.96019650  0.80009250  0.26386050  1
  F  F41  1  0.30009250  0.53980350  0.23613950  1
  F  F42  1  0.69990750  0.46019650  0.23613950  1
  F  F43  1  0.03980350  0.19990750  0.26386050  1
  F  F44  1  0.62044700  0.57809300  0.99662100  1
  F  F45  1  0.92190700  0.12044700  0.50337900  1
  F  F46  1  0.07809300  0.87955300  0.50337900  1
  F  F47  1  0.37955300  0.42190700  0.99662100  1
