# generated using pymatgen
data_Hg3(TeCl)2
_symmetry_space_group_name_H-M   'P 1'
_cell_length_a   9.65666000
_cell_length_b   9.65666000
_cell_length_c   9.65666000
_cell_angle_alpha   90.00000000
_cell_angle_beta   90.00000000
_cell_angle_gamma   90.00000000
_symmetry_Int_Tables_number   1
_chemical_formula_structural   Hg3(TeCl)2
_chemical_formula_sum   'Hg12 Te8 Cl8'
_cell_volume   900.49399694
_cell_formula_units_Z   4
loop_
 _symmetry_equiv_pos_site_id
 _symmetry_equiv_pos_as_xyz
  1  'x, y, z'
loop_
 _atom_site_type_symbol
 _atom_site_label
 _atom_site_symmetry_multiplicity
 _atom_site_fract_x
 _atom_site_fract_y
 _atom_site_fract_z
 _atom_site_occupancy
  Hg  Hg0  1  0.75000000  0.43265600  0.50000000  1
  Hg  Hg1  1  0.06734400  0.50000000  0.25000000  1
  Hg  Hg2  1  0.50000000  0.75000000  0.43265600  1
  Hg  Hg3  1  0.43265600  0.50000000  0.75000000  1
  Hg  Hg4  1  0.50000000  0.25000000  0.06734400  1
  Hg  Hg5  1  0.25000000  0.06734400  0.50000000  1
  Hg  Hg6  1  0.25000000  0.93265600  0.00000000  1
  Hg  Hg7  1  0.56734400  0.00000000  0.75000000  1
  Hg  Hg8  1  0.00000000  0.25000000  0.93265600  1
  Hg  Hg9  1  0.93265600  0.00000000  0.25000000  1
  Hg  Hg10  1  0.00000000  0.75000000  0.56734400  1
  Hg  Hg11  1  0.75000000  0.56734400  0.00000000  1
  Te  Te12  1  0.97127450  0.02872550  0.52872550  1
  Te  Te13  1  0.47127450  0.47127450  0.47127450  1
  Te  Te14  1  0.02872550  0.52872550  0.97127450  1
  Te  Te15  1  0.52872550  0.97127450  0.02872550  1
  Te  Te16  1  0.47127450  0.52872550  0.02872550  1
  Te  Te17  1  0.97127450  0.97127450  0.97127450  1
  Te  Te18  1  0.52872550  0.02872550  0.47127450  1
  Te  Te19  1  0.02872550  0.47127450  0.52872550  1
  Cl  Cl20  1  0.24058000  0.75942000  0.25942000  1
  Cl  Cl21  1  0.24058000  0.24058000  0.24058000  1
  Cl  Cl22  1  0.25942000  0.24058000  0.75942000  1
  Cl  Cl23  1  0.75942000  0.25942000  0.24058000  1
  Cl  Cl24  1  0.74058000  0.25942000  0.75942000  1
  Cl  Cl25  1  0.74058000  0.74058000  0.74058000  1
  Cl  Cl26  1  0.75942000  0.74058000  0.25942000  1
  Cl  Cl27  1  0.25942000  0.75942000  0.74058000  1
