# generated using pymatgen
data_GaHO2
_symmetry_space_group_name_H-M   'P 1'
_cell_length_a   3.00395100
_cell_length_b   4.39104400
_cell_length_c   4.98845600
_cell_angle_alpha   90.00000000
_cell_angle_beta   90.00000000
_cell_angle_gamma   90.00000000
_symmetry_Int_Tables_number   1
_chemical_formula_structural   GaHO2
_chemical_formula_sum   'Ga2 H2 O4'
_cell_volume   65.80013416
_cell_formula_units_Z   2
loop_
 _symmetry_equiv_pos_site_id
 _symmetry_equiv_pos_as_xyz
  1  'x, y, z'
loop_
 _atom_site_type_symbol
 _atom_site_label
 _atom_site_symmetry_multiplicity
 _atom_site_fract_x
 _atom_site_fract_y
 _atom_site_fract_z
 _atom_site_occupancy
  Ga  Ga0  1  0.50000000  0.22199700  0.50188000  1
  Ga  Ga1  1  0.00000000  0.77800300  0.00188000  1
  H  H2  1  0.50000000  0.30880800  0.01889900  1
  H  H3  1  0.00000000  0.69119200  0.51889900  1
  O  O4  1  0.00000000  0.50239400  0.64136200  1
  O  O5  1  0.50000000  0.49760600  0.14136200  1
  O  O6  1  0.00000000  0.99113600  0.35115900  1
  O  O7  1  0.50000000  0.00886400  0.85115900  1
