# generated using pymatgen
data_BaTe2
_symmetry_space_group_name_H-M   'P 1'
_cell_length_a   7.23692000
_cell_length_b   7.23692000
_cell_length_c   9.14713400
_cell_angle_alpha   90.00000000
_cell_angle_beta   90.00000000
_cell_angle_gamma   90.00000000
_symmetry_Int_Tables_number   1
_chemical_formula_structural   BaTe2
_chemical_formula_sum   'Ba4 Te8'
_cell_volume   479.06295039
_cell_formula_units_Z   4
loop_
 _symmetry_equiv_pos_site_id
 _symmetry_equiv_pos_as_xyz
  1  'x, y, z'
loop_
 _atom_site_type_symbol
 _atom_site_label
 _atom_site_symmetry_multiplicity
 _atom_site_fract_x
 _atom_site_fract_y
 _atom_site_fract_z
 _atom_site_occupancy
  Ba  Ba0  1  0.00000000  0.00000000  0.75000000  1
  Ba  Ba1  1  0.00000000  0.00000000  0.25000000  1
  Ba  Ba2  1  0.50000000  0.50000000  0.25000000  1
  Ba  Ba3  1  0.50000000  0.50000000  0.75000000  1
  Te  Te4  1  0.36193000  0.86193000  0.50000000  1
  Te  Te5  1  0.13807000  0.36193000  0.50000000  1
  Te  Te6  1  0.13807000  0.63807000  0.00000000  1
  Te  Te7  1  0.36193000  0.13807000  0.00000000  1
  Te  Te8  1  0.86193000  0.36193000  0.00000000  1
  Te  Te9  1  0.63807000  0.86193000  0.00000000  1
  Te  Te10  1  0.63807000  0.13807000  0.50000000  1
  Te  Te11  1  0.86193000  0.63807000  0.50000000  1
