# generated using pymatgen
data_Pb4IF7
_symmetry_space_group_name_H-M   'P 1'
_cell_length_a   6.16631000
_cell_length_b   25.43168200
_cell_length_c   6.07885200
_cell_angle_alpha   90.00000000
_cell_angle_beta   90.00000000
_cell_angle_gamma   90.00000000
_symmetry_Int_Tables_number   1
_chemical_formula_structural   Pb4IF7
_chemical_formula_sum   'Pb16 I4 F28'
_cell_volume   953.28335206
_cell_formula_units_Z   4
loop_
 _symmetry_equiv_pos_site_id
 _symmetry_equiv_pos_as_xyz
  1  'x, y, z'
loop_
 _atom_site_type_symbol
 _atom_site_label
 _atom_site_symmetry_multiplicity
 _atom_site_fract_x
 _atom_site_fract_y
 _atom_site_fract_z
 _atom_site_occupancy
  Pb  Pb0  1  0.00000000  0.17471000  0.75000000  1
  Pb  Pb1  1  0.50000000  0.32529000  0.25000000  1
  Pb  Pb2  1  0.50000000  0.04698800  0.75000000  1
  Pb  Pb3  1  0.00000000  0.45301200  0.25000000  1
  Pb  Pb4  1  0.00000000  0.34736000  0.75000000  1
  Pb  Pb5  1  0.50000000  0.15264000  0.25000000  1
  Pb  Pb6  1  0.50000000  0.44114400  0.75000000  1
  Pb  Pb7  1  0.00000000  0.05885600  0.25000000  1
  Pb  Pb8  1  0.50000000  0.67471000  0.75000000  1
  Pb  Pb9  1  0.00000000  0.82529000  0.25000000  1
  Pb  Pb10  1  0.00000000  0.54698800  0.75000000  1
  Pb  Pb11  1  0.50000000  0.95301200  0.25000000  1
  Pb  Pb12  1  0.50000000  0.84736000  0.75000000  1
  Pb  Pb13  1  0.00000000  0.65264000  0.25000000  1
  Pb  Pb14  1  0.00000000  0.94114400  0.75000000  1
  Pb  Pb15  1  0.50000000  0.55885600  0.25000000  1
  I  I16  1  0.50000000  0.24981300  0.75000000  1
  I  I17  1  0.00000000  0.25018700  0.25000000  1
  I  I18  1  0.00000000  0.74981300  0.75000000  1
  I  I19  1  0.50000000  0.75018700  0.25000000  1
  F  F20  1  0.73136500  0.37847700  0.01858400  1
  F  F21  1  0.76863500  0.12152300  0.51858400  1
  F  F22  1  0.23136500  0.12152300  0.98141600  1
  F  F23  1  0.26863500  0.37847700  0.48141600  1
  F  F24  1  0.76863500  0.12152300  0.98141600  1
  F  F25  1  0.73136500  0.37847700  0.48141600  1
  F  F26  1  0.26863500  0.37847700  0.01858400  1
  F  F27  1  0.23136500  0.12152300  0.51858400  1
  F  F28  1  0.22731100  0.00000000  0.00000000  1
  F  F29  1  0.77268900  0.00000000  0.50000000  1
  F  F30  1  0.50000000  0.06269500  0.25000000  1
  F  F31  1  0.00000000  0.43730500  0.75000000  1
  F  F32  1  0.22731100  0.00000000  0.50000000  1
  F  F33  1  0.77268900  0.00000000  0.00000000  1
  F  F34  1  0.23136500  0.87847700  0.01858400  1
  F  F35  1  0.26863500  0.62152300  0.51858400  1
  F  F36  1  0.73136500  0.62152300  0.98141600  1
  F  F37  1  0.76863500  0.87847700  0.48141600  1
  F  F38  1  0.26863500  0.62152300  0.98141600  1
  F  F39  1  0.23136500  0.87847700  0.48141600  1
  F  F40  1  0.76863500  0.87847700  0.01858400  1
  F  F41  1  0.73136500  0.62152300  0.51858400  1
  F  F42  1  0.72731100  0.50000000  0.00000000  1
  F  F43  1  0.27268900  0.50000000  0.50000000  1
  F  F44  1  0.00000000  0.56269500  0.25000000  1
  F  F45  1  0.50000000  0.93730500  0.75000000  1
  F  F46  1  0.72731100  0.50000000  0.50000000  1
  F  F47  1  0.27268900  0.50000000  0.00000000  1
