# generated using pymatgen
data_Rb2Si2O5
_symmetry_space_group_name_H-M   'P 1'
_cell_length_a   10.42203600
_cell_length_b   8.54704200
_cell_length_c   14.89811592
_cell_angle_alpha   90.00000000
_cell_angle_beta   90.35310425
_cell_angle_gamma   90.00000000
_symmetry_Int_Tables_number   1
_chemical_formula_structural   Rb2Si2O5
_chemical_formula_sum   'Rb16 Si16 O40'
_cell_volume   1327.06290221
_cell_formula_units_Z   8
loop_
 _symmetry_equiv_pos_site_id
 _symmetry_equiv_pos_as_xyz
  1  'x, y, z'
loop_
 _atom_site_type_symbol
 _atom_site_label
 _atom_site_symmetry_multiplicity
 _atom_site_fract_x
 _atom_site_fract_y
 _atom_site_fract_z
 _atom_site_occupancy
  Rb  Rb0  1  0.16966550  0.10975350  0.08555100  1
  Rb  Rb1  1  0.83033450  0.10975350  0.41444900  1
  Rb  Rb2  1  0.83033450  0.89024650  0.91444900  1
  Rb  Rb3  1  0.16966550  0.89024650  0.58555100  1
  Rb  Rb4  1  0.42115400  0.12996200  0.40256400  1
  Rb  Rb5  1  0.57884600  0.12996200  0.09743600  1
  Rb  Rb6  1  0.57884600  0.87003800  0.59743600  1
  Rb  Rb7  1  0.42115400  0.87003800  0.90256400  1
  Rb  Rb8  1  0.66966550  0.60975350  0.08555100  1
  Rb  Rb9  1  0.33033450  0.60975350  0.41444900  1
  Rb  Rb10  1  0.33033450  0.39024650  0.91444900  1
  Rb  Rb11  1  0.66966550  0.39024650  0.58555100  1
  Rb  Rb12  1  0.92115400  0.62996200  0.40256400  1
  Rb  Rb13  1  0.07884600  0.62996200  0.09743600  1
  Rb  Rb14  1  0.07884600  0.37003800  0.59743600  1
  Rb  Rb15  1  0.92115400  0.37003800  0.90256400  1
  Si  Si16  1  0.62345100  0.81524000  0.31418000  1
  Si  Si17  1  0.86905450  0.07031650  0.69309900  1
  Si  Si18  1  0.13094550  0.07031650  0.80690100  1
  Si  Si19  1  0.13094550  0.92968350  0.30690100  1
  Si  Si20  1  0.86905450  0.92968350  0.19309900  1
  Si  Si21  1  0.62345100  0.18476000  0.81418000  1
  Si  Si22  1  0.37654900  0.18476000  0.68582000  1
  Si  Si23  1  0.37654900  0.81524000  0.18582000  1
  Si  Si24  1  0.12345100  0.31524000  0.31418000  1
  Si  Si25  1  0.36905450  0.57031650  0.69309900  1
  Si  Si26  1  0.63094550  0.57031650  0.80690100  1
  Si  Si27  1  0.63094550  0.42968350  0.30690100  1
  Si  Si28  1  0.36905450  0.42968350  0.19309900  1
  Si  Si29  1  0.12345100  0.68476000  0.81418000  1
  Si  Si30  1  0.87654900  0.68476000  0.68582000  1
  Si  Si31  1  0.87654900  0.31524000  0.18582000  1
  O  O32  1  0.86607850  0.87734350  0.69003600  1
  O  O33  1  0.61407350  0.11495750  0.91265800  1
  O  O34  1  0.38592650  0.11495750  0.58734200  1
  O  O35  1  0.38592650  0.88504250  0.08734200  1
  O  O36  1  0.61407350  0.88504250  0.41265800  1
  O  O37  1  0.36216100  0.65054600  0.59711700  1
  O  O38  1  0.63783900  0.65054600  0.90288300  1
  O  O39  1  0.63783900  0.34945400  0.40288300  1
  O  O40  1  0.50000000  0.37851500  0.25000000  1
  O  O41  1  0.50000000  0.62148500  0.75000000  1
  O  O42  1  0.75142450  0.88071650  0.26117900  1
  O  O43  1  0.24857550  0.88071650  0.23882100  1
  O  O44  1  0.24857550  0.11928350  0.73882100  1
  O  O45  1  0.75142450  0.11928350  0.76117900  1
  O  O46  1  0.50000000  0.86699900  0.25000000  1
  O  O47  1  0.50000000  0.13300100  0.75000000  1
  O  O48  1  0.13392150  0.12265650  0.30996400  1
  O  O49  1  0.86607850  0.12265650  0.19003600  1
  O  O50  1  0.13392150  0.87734350  0.80996400  1
  O  O51  1  0.36216100  0.34945400  0.09711700  1
  O  O52  1  0.36607850  0.37734350  0.69003600  1
  O  O53  1  0.11407350  0.61495750  0.91265800  1
  O  O54  1  0.88592650  0.61495750  0.58734200  1
  O  O55  1  0.88592650  0.38504250  0.08734200  1
  O  O56  1  0.11407350  0.38504250  0.41265800  1
  O  O57  1  0.86216100  0.15054600  0.59711700  1
  O  O58  1  0.13783900  0.15054600  0.90288300  1
  O  O59  1  0.13783900  0.84945400  0.40288300  1
  O  O60  1  0.00000000  0.87851500  0.25000000  1
  O  O61  1  0.00000000  0.12148500  0.75000000  1
  O  O62  1  0.25142450  0.38071650  0.26117900  1
  O  O63  1  0.74857550  0.38071650  0.23882100  1
  O  O64  1  0.74857550  0.61928350  0.73882100  1
  O  O65  1  0.25142450  0.61928350  0.76117900  1
  O  O66  1  0.00000000  0.36699900  0.25000000  1
  O  O67  1  0.00000000  0.63300100  0.75000000  1
  O  O68  1  0.63392150  0.62265650  0.30996400  1
  O  O69  1  0.36607850  0.62265650  0.19003600  1
  O  O70  1  0.63392150  0.37734350  0.80996400  1
  O  O71  1  0.86216100  0.84945400  0.09711700  1
