# generated using pymatgen
data_Rb2IN3
_symmetry_space_group_name_H-M   'P 1'
_cell_length_a   6.38663500
_cell_length_b   6.38663500
_cell_length_c   8.24346500
_cell_angle_alpha   90.00000000
_cell_angle_beta   90.00000000
_cell_angle_gamma   90.00000000
_symmetry_Int_Tables_number   1
_chemical_formula_structural   Rb2IN3
_chemical_formula_sum   'Rb4 I2 N6'
_cell_volume   336.24357283
_cell_formula_units_Z   2
loop_
 _symmetry_equiv_pos_site_id
 _symmetry_equiv_pos_as_xyz
  1  'x, y, z'
loop_
 _atom_site_type_symbol
 _atom_site_label
 _atom_site_symmetry_multiplicity
 _atom_site_fract_x
 _atom_site_fract_y
 _atom_site_fract_z
 _atom_site_occupancy
  Rb  Rb0  1  0.00000000  0.00000000  0.26331600  1
  Rb  Rb1  1  0.00000000  0.00000000  0.73668400  1
  Rb  Rb2  1  0.50000000  0.50000000  0.73668400  1
  Rb  Rb3  1  0.50000000  0.50000000  0.26331600  1
  I  I4  1  0.50000000  0.00000000  0.00000000  1
  I  I5  1  0.00000000  0.50000000  0.00000000  1
  N  N6  1  0.86837900  0.36837900  0.50000000  1
  N  N7  1  0.63162100  0.86837900  0.50000000  1
  N  N8  1  0.36837900  0.13162100  0.50000000  1
  N  N9  1  0.13162100  0.63162100  0.50000000  1
  N  N10  1  0.00000000  0.50000000  0.50000000  1
  N  N11  1  0.50000000  0.00000000  0.50000000  1
