# generated using pymatgen
data_La4Bi2S9
_symmetry_space_group_name_H-M   'P 1'
_cell_length_a   4.04586500
_cell_length_b   12.99345000
_cell_length_c   28.58946700
_cell_angle_alpha   90.00000000
_cell_angle_beta   90.00000000
_cell_angle_gamma   90.00000000
_symmetry_Int_Tables_number   1
_chemical_formula_structural   La4Bi2S9
_chemical_formula_sum   'La16 Bi8 S36'
_cell_volume   1502.94097799
_cell_formula_units_Z   4
loop_
 _symmetry_equiv_pos_site_id
 _symmetry_equiv_pos_as_xyz
  1  'x, y, z'
loop_
 _atom_site_type_symbol
 _atom_site_label
 _atom_site_symmetry_multiplicity
 _atom_site_fract_x
 _atom_site_fract_y
 _atom_site_fract_z
 _atom_site_occupancy
  La  La0  1  0.25000000  0.07712700  0.80640400  1
  La  La1  1  0.75000000  0.92287300  0.19359600  1
  La  La2  1  0.75000000  0.57712700  0.69359600  1
  La  La3  1  0.25000000  0.42287300  0.30640400  1
  La  La4  1  0.25000000  0.74302400  0.05301800  1
  La  La5  1  0.75000000  0.25697600  0.94698200  1
  La  La6  1  0.75000000  0.24302400  0.44698200  1
  La  La7  1  0.25000000  0.75697600  0.55301800  1
  La  La8  1  0.25000000  0.73991100  0.82145900  1
  La  La9  1  0.75000000  0.26008900  0.17854100  1
  La  La10  1  0.75000000  0.23991100  0.67854100  1
  La  La11  1  0.25000000  0.76008900  0.32145900  1
  La  La12  1  0.25000000  0.89566400  0.68704600  1
  La  La13  1  0.75000000  0.10433600  0.31295400  1
  La  La14  1  0.75000000  0.39566400  0.81295400  1
  La  La15  1  0.25000000  0.60433600  0.18704600  1
  Bi  Bi16  1  0.25000000  0.55942000  0.93486600  1
  Bi  Bi17  1  0.75000000  0.44058000  0.06513400  1
  Bi  Bi18  1  0.75000000  0.05942000  0.56513400  1
  Bi  Bi19  1  0.25000000  0.94058000  0.43486600  1
  Bi  Bi20  1  0.25000000  0.42698000  0.55952500  1
  Bi  Bi21  1  0.75000000  0.57302000  0.44047500  1
  Bi  Bi22  1  0.75000000  0.92698000  0.94047500  1
  Bi  Bi23  1  0.25000000  0.07302000  0.05952500  1
  S  S24  1  0.25000000  0.68714100  0.64810100  1
  S  S25  1  0.75000000  0.31285900  0.35189900  1
  S  S26  1  0.75000000  0.18714100  0.85189900  1
  S  S27  1  0.25000000  0.81285900  0.14810100  1
  S  S28  1  0.25000000  0.27333400  0.75428700  1
  S  S29  1  0.75000000  0.72666600  0.24571300  1
  S  S30  1  0.75000000  0.77333400  0.74571300  1
  S  S31  1  0.25000000  0.22666600  0.25428700  1
  S  S32  1  0.25000000  0.40969300  0.65618800  1
  S  S33  1  0.75000000  0.59030700  0.34381200  1
  S  S34  1  0.75000000  0.90969300  0.84381200  1
  S  S35  1  0.25000000  0.09030700  0.15618800  1
  S  S36  1  0.25000000  0.37593400  0.88706500  1
  S  S37  1  0.75000000  0.62406600  0.11293500  1
  S  S38  1  0.25000000  0.09646400  0.95709500  1
  S  S39  1  0.75000000  0.87593400  0.61293500  1
  S  S40  1  0.25000000  0.53929100  0.76881000  1
  S  S41  1  0.75000000  0.46070900  0.23119000  1
  S  S42  1  0.75000000  0.03929100  0.73119000  1
  S  S43  1  0.25000000  0.96070900  0.26881000  1
  S  S44  1  0.25000000  0.71063200  0.44178600  1
  S  S45  1  0.75000000  0.28936800  0.55821400  1
  S  S46  1  0.75000000  0.21063200  0.05821400  1
  S  S47  1  0.25000000  0.78936800  0.94178600  1
  S  S48  1  0.25000000  0.11223400  0.49715100  1
  S  S49  1  0.75000000  0.88776600  0.50284900  1
  S  S50  1  0.75000000  0.61223400  0.00284900  1
  S  S51  1  0.25000000  0.38776600  0.99715100  1
  S  S52  1  0.25000000  0.39499600  0.13400000  1
  S  S53  1  0.75000000  0.60500400  0.86600000  1
  S  S54  1  0.75000000  0.89499600  0.36600000  1
  S  S55  1  0.25000000  0.10500400  0.63400000  1
  S  S56  1  0.25000000  0.40353600  0.45709500  1
  S  S57  1  0.75000000  0.59646400  0.54290500  1
  S  S58  1  0.75000000  0.90353600  0.04290500  1
  S  S59  1  0.25000000  0.12406600  0.38706500  1
