# generated using pymatgen
data_Tl3CoCl5
_symmetry_space_group_name_H-M   'P 1'
_cell_length_a   8.58970600
_cell_length_b   8.58970600
_cell_length_c   14.57228600
_cell_angle_alpha   90.00000000
_cell_angle_beta   90.00000000
_cell_angle_gamma   90.00000000
_symmetry_Int_Tables_number   1
_chemical_formula_structural   Tl3CoCl5
_chemical_formula_sum   'Tl12 Co4 Cl20'
_cell_volume   1075.18769441
_cell_formula_units_Z   4
loop_
 _symmetry_equiv_pos_site_id
 _symmetry_equiv_pos_as_xyz
  1  'x, y, z'
loop_
 _atom_site_type_symbol
 _atom_site_label
 _atom_site_symmetry_multiplicity
 _atom_site_fract_x
 _atom_site_fract_y
 _atom_site_fract_z
 _atom_site_occupancy
  Tl  Tl0  1  0.00000000  0.00000000  0.25000000  1
  Tl  Tl1  1  0.50000000  0.50000000  0.25000000  1
  Tl  Tl2  1  0.33551150  0.83551150  0.50000000  1
  Tl  Tl3  1  0.66448850  0.83551150  0.00000000  1
  Tl  Tl4  1  0.33551150  0.16448850  0.00000000  1
  Tl  Tl5  1  0.16448850  0.66448850  0.00000000  1
  Tl  Tl6  1  0.50000000  0.50000000  0.75000000  1
  Tl  Tl7  1  0.00000000  0.00000000  0.75000000  1
  Tl  Tl8  1  0.83551150  0.33551150  0.00000000  1
  Tl  Tl9  1  0.16448850  0.33551150  0.50000000  1
  Tl  Tl10  1  0.83551150  0.66448850  0.50000000  1
  Tl  Tl11  1  0.66448850  0.16448850  0.50000000  1
  Co  Co12  1  0.00000000  0.50000000  0.25000000  1
  Co  Co13  1  0.50000000  0.00000000  0.25000000  1
  Co  Co14  1  0.50000000  0.00000000  0.75000000  1
  Co  Co15  1  0.00000000  0.50000000  0.75000000  1
  Cl  Cl16  1  0.00000000  0.00000000  0.00000000  1
  Cl  Cl17  1  0.50000000  0.50000000  0.00000000  1
  Cl  Cl18  1  0.35282450  0.85282450  0.15591750  1
  Cl  Cl19  1  0.85282450  0.35282450  0.34408250  1
  Cl  Cl20  1  0.14717550  0.64717550  0.34408250  1
  Cl  Cl21  1  0.35282450  0.14717550  0.34408250  1
  Cl  Cl22  1  0.64717550  0.85282450  0.34408250  1
  Cl  Cl23  1  0.14717550  0.35282450  0.15591750  1
  Cl  Cl24  1  0.64717550  0.14717550  0.15591750  1
  Cl  Cl25  1  0.85282450  0.64717550  0.15591750  1
  Cl  Cl26  1  0.50000000  0.50000000  0.50000000  1
  Cl  Cl27  1  0.00000000  0.00000000  0.50000000  1
  Cl  Cl28  1  0.85282450  0.35282450  0.65591750  1
  Cl  Cl29  1  0.35282450  0.85282450  0.84408250  1
  Cl  Cl30  1  0.64717550  0.14717550  0.84408250  1
  Cl  Cl31  1  0.85282450  0.64717550  0.84408250  1
  Cl  Cl32  1  0.14717550  0.35282450  0.84408250  1
  Cl  Cl33  1  0.64717550  0.85282450  0.65591750  1
  Cl  Cl34  1  0.14717550  0.64717550  0.65591750  1
  Cl  Cl35  1  0.35282450  0.14717550  0.65591750  1
