# generated using pymatgen
data_Hf2Ag3F14
_symmetry_space_group_name_H-M   'P 1'
_cell_length_a   9.48561800
_cell_length_b   6.80471800
_cell_length_c   9.25560782
_cell_angle_alpha   90.00000000
_cell_angle_beta   91.21437216
_cell_angle_gamma   90.00000000
_symmetry_Int_Tables_number   1
_chemical_formula_structural   Hf2Ag3F14
_chemical_formula_sum   'Hf4 Ag6 F28'
_cell_volume   597.28712500
_cell_formula_units_Z   2
loop_
 _symmetry_equiv_pos_site_id
 _symmetry_equiv_pos_as_xyz
  1  'x, y, z'
loop_
 _atom_site_type_symbol
 _atom_site_label
 _atom_site_symmetry_multiplicity
 _atom_site_fract_x
 _atom_site_fract_y
 _atom_site_fract_z
 _atom_site_occupancy
  Hf  Hf0  1  0.40936500  0.00000000  0.78562200  1
  Hf  Hf1  1  0.59063500  0.00000000  0.21437800  1
  Hf  Hf2  1  0.90936500  0.50000000  0.78562200  1
  Hf  Hf3  1  0.09063500  0.50000000  0.21437800  1
  Ag  Ag4  1  0.00000000  0.00000000  0.00000000  1
  Ag  Ag5  1  0.18815500  0.00000000  0.39603700  1
  Ag  Ag6  1  0.81184500  0.00000000  0.60396300  1
  Ag  Ag7  1  0.50000000  0.50000000  0.00000000  1
  Ag  Ag8  1  0.68815500  0.50000000  0.39603700  1
  Ag  Ag9  1  0.31184500  0.50000000  0.60396300  1
  F  F10  1  0.56243800  0.29365700  0.16177800  1
  F  F11  1  0.43756200  0.29365700  0.83822200  1
  F  F12  1  0.43756200  0.70634300  0.83822200  1
  F  F13  1  0.56243800  0.70634300  0.16177800  1
  F  F14  1  0.67105250  0.17647550  0.38374800  1
  F  F15  1  0.50000000  0.00000000  0.00000000  1
  F  F16  1  0.00000000  0.00000000  0.50000000  1
  F  F17  1  0.39206200  0.00000000  0.29382400  1
  F  F18  1  0.60793800  0.00000000  0.70617600  1
  F  F19  1  0.77236500  0.00000000  0.12066300  1
  F  F20  1  0.22763500  0.00000000  0.87933700  1
  F  F21  1  0.67105250  0.82352450  0.38374800  1
  F  F22  1  0.32894750  0.82352450  0.61625200  1
  F  F23  1  0.32894750  0.17647550  0.61625200  1
  F  F24  1  0.06243800  0.79365700  0.16177800  1
  F  F25  1  0.93756200  0.79365700  0.83822200  1
  F  F26  1  0.93756200  0.20634300  0.83822200  1
  F  F27  1  0.06243800  0.20634300  0.16177800  1
  F  F28  1  0.17105250  0.67647550  0.38374800  1
  F  F29  1  0.00000000  0.50000000  0.00000000  1
  F  F30  1  0.50000000  0.50000000  0.50000000  1
  F  F31  1  0.89206200  0.50000000  0.29382400  1
  F  F32  1  0.10793800  0.50000000  0.70617600  1
  F  F33  1  0.27236500  0.50000000  0.12066300  1
  F  F34  1  0.72763500  0.50000000  0.87933700  1
  F  F35  1  0.17105250  0.32352450  0.38374800  1
  F  F36  1  0.82894750  0.32352450  0.61625200  1
  F  F37  1  0.82894750  0.67647550  0.61625200  1
