# generated using pymatgen
data_Nd4PdO7
_symmetry_space_group_name_H-M   'P 1'
_cell_length_a   6.97319900
_cell_length_b   7.31779208
_cell_length_c   8.01542032
_cell_angle_alpha   70.10876533
_cell_angle_beta   71.98514084
_cell_angle_gamma   83.71402815
_symmetry_Int_Tables_number   1
_chemical_formula_structural   Nd4PdO7
_chemical_formula_sum   'Nd8 Pd2 O14'
_cell_volume   365.75324648
_cell_formula_units_Z   2
loop_
 _symmetry_equiv_pos_site_id
 _symmetry_equiv_pos_as_xyz
  1  'x, y, z'
loop_
 _atom_site_type_symbol
 _atom_site_label
 _atom_site_symmetry_multiplicity
 _atom_site_fract_x
 _atom_site_fract_y
 _atom_site_fract_z
 _atom_site_occupancy
  Nd  Nd0  1  0.66813200  0.83401200  0.37680800  1
  Nd  Nd1  1  0.33186800  0.16598800  0.62319200  1
  Nd  Nd2  1  0.64515900  0.85365800  0.85701600  1
  Nd  Nd3  1  0.35484100  0.14634200  0.14298400  1
  Nd  Nd4  1  0.78999200  0.39786200  0.72606500  1
  Nd  Nd5  1  0.21000800  0.60213800  0.27393500  1
  Nd  Nd6  1  0.77818700  0.39052900  0.21137300  1
  Nd  Nd7  1  0.22181300  0.60947100  0.78862700  1
  Pd  Pd8  1  0.00000000  0.00000000  0.50000000  1
  Pd  Pd9  1  0.00000000  0.00000000  0.00000000  1
  O  O10  1  0.94590700  0.06685800  0.74351800  1
  O  O11  1  0.05409300  0.93314200  0.25648200  1
  O  O12  1  0.70493900  0.08388900  0.50870200  1
  O  O13  1  0.29506100  0.91611100  0.49129800  1
  O  O14  1  0.73255700  0.13969200  0.08296300  1
  O  O15  1  0.26744300  0.86030800  0.91703700  1
  O  O16  1  0.43042300  0.33000800  0.30304200  1
  O  O17  1  0.56957700  0.66999200  0.69695800  1
  O  O18  1  0.46827000  0.24607200  0.82292600  1
  O  O19  1  0.53173000  0.75392800  0.17707400  1
  O  O20  1  0.14615400  0.41745500  0.10200400  1
  O  O21  1  0.85384600  0.58254500  0.89799600  1
  O  O22  1  0.15579000  0.45681200  0.59866200  1
  O  O23  1  0.84421000  0.54318800  0.40133800  1
