# generated using pymatgen
data_Li2PbO3
_symmetry_space_group_name_H-M   'P 1'
_cell_length_a   5.47579000
_cell_length_b   9.41942600
_cell_length_c   5.53204404
_cell_angle_alpha   90.00000000
_cell_angle_beta   110.43584060
_cell_angle_gamma   90.00000000
_symmetry_Int_Tables_number   1
_chemical_formula_structural   Li2PbO3
_chemical_formula_sum   'Li8 Pb4 O12'
_cell_volume   267.37819983
_cell_formula_units_Z   4
loop_
 _symmetry_equiv_pos_site_id
 _symmetry_equiv_pos_as_xyz
  1  'x, y, z'
loop_
 _atom_site_type_symbol
 _atom_site_label
 _atom_site_symmetry_multiplicity
 _atom_site_fract_x
 _atom_site_fract_y
 _atom_site_fract_z
 _atom_site_occupancy
  Li  Li0  1  0.50000000  0.24619100  0.75000000  1
  Li  Li1  1  0.50000000  0.75380900  0.25000000  1
  Li  Li2  1  0.50000000  0.92015100  0.75000000  1
  Li  Li3  1  0.50000000  0.07984900  0.25000000  1
  Li  Li4  1  0.00000000  0.74619100  0.75000000  1
  Li  Li5  1  0.00000000  0.25380900  0.25000000  1
  Li  Li6  1  0.00000000  0.42015100  0.75000000  1
  Li  Li7  1  0.00000000  0.57984900  0.25000000  1
  Pb  Pb8  1  0.50000000  0.41037700  0.25000000  1
  Pb  Pb9  1  0.50000000  0.58962300  0.75000000  1
  Pb  Pb10  1  0.00000000  0.91037700  0.25000000  1
  Pb  Pb11  1  0.00000000  0.08962300  0.75000000  1
  O  O12  1  0.75000000  0.75000000  0.00000000  1
  O  O13  1  0.75000000  0.25000000  0.50000000  1
  O  O14  1  0.75789450  0.07986750  0.99152600  1
  O  O15  1  0.24210550  0.07986750  0.50847400  1
  O  O16  1  0.24210550  0.92013250  0.00847400  1
  O  O17  1  0.75789450  0.92013250  0.49152600  1
  O  O18  1  0.25000000  0.25000000  0.00000000  1
  O  O19  1  0.25000000  0.75000000  0.50000000  1
  O  O20  1  0.25789450  0.57986750  0.99152600  1
  O  O21  1  0.74210550  0.57986750  0.50847400  1
  O  O22  1  0.74210550  0.42013250  0.00847400  1
  O  O23  1  0.25789450  0.42013250  0.49152600  1
