# generated using pymatgen
data_BaH2I2O7
_symmetry_space_group_name_H-M   'P 1'
_cell_length_a   13.50220000
_cell_length_b   8.22108600
_cell_length_c   9.15114863
_cell_angle_alpha   90.00000000
_cell_angle_beta   131.60598293
_cell_angle_gamma   90.00000000
_symmetry_Int_Tables_number   1
_chemical_formula_structural   BaH2I2O7
_chemical_formula_sum   'Ba4 H8 I8 O28'
_cell_volume   759.54484622
_cell_formula_units_Z   4
loop_
 _symmetry_equiv_pos_site_id
 _symmetry_equiv_pos_as_xyz
  1  'x, y, z'
loop_
 _atom_site_type_symbol
 _atom_site_label
 _atom_site_symmetry_multiplicity
 _atom_site_fract_x
 _atom_site_fract_y
 _atom_site_fract_z
 _atom_site_occupancy
  Ba  Ba0  1  0.00000000  0.85934300  0.25000000  1
  Ba  Ba1  1  0.50000000  0.64065700  0.75000000  1
  Ba  Ba2  1  0.50000000  0.35934300  0.25000000  1
  Ba  Ba3  1  0.00000000  0.14065700  0.75000000  1
  H  H4  1  0.53212000  0.75947800  0.36234800  1
  H  H5  1  0.96788000  0.25947800  0.13765200  1
  H  H6  1  0.96788000  0.74052200  0.63765200  1
  H  H7  1  0.53212000  0.24052200  0.86234800  1
  H  H8  1  0.03212000  0.25947800  0.36234800  1
  H  H9  1  0.46788000  0.75947800  0.13765200  1
  H  H10  1  0.46788000  0.24052200  0.63765200  1
  H  H11  1  0.03212000  0.74052200  0.86234800  1
  I  I12  1  0.18480150  0.46879350  0.19306200  1
  I  I13  1  0.31519850  0.96879350  0.30693800  1
  I  I14  1  0.31519850  0.03120650  0.80693800  1
  I  I15  1  0.18480150  0.53120650  0.69306200  1
  I  I16  1  0.68480150  0.96879350  0.19306200  1
  I  I17  1  0.81519850  0.46879350  0.30693800  1
  I  I18  1  0.81519850  0.53120650  0.80693800  1
  I  I19  1  0.68480150  0.03120650  0.69306200  1
  O  O20  1  0.50000000  0.69083100  0.25000000  1
  O  O21  1  0.00000000  0.80916900  0.75000000  1
  O  O22  1  0.18419750  0.59158150  0.50005800  1
  O  O23  1  0.31580250  0.09158150  0.99994200  1
  O  O24  1  0.31580250  0.90841850  0.49994200  1
  O  O25  1  0.18419750  0.40841850  0.00005800  1
  O  O26  1  0.58504900  0.84300800  0.58669400  1
  O  O27  1  0.41495100  0.84300800  0.91330600  1
  O  O28  1  0.91495100  0.65699200  0.41330600  1
  O  O29  1  0.08504900  0.65699200  0.08669400  1
  O  O30  1  0.85147250  0.94836250  0.86592400  1
  O  O31  1  0.14852750  0.94836250  0.63407600  1
  O  O32  1  0.64852750  0.55163750  0.13407600  1
  O  O33  1  0.35147250  0.55163750  0.36592400  1
  O  O34  1  0.00000000  0.19083100  0.25000000  1
  O  O35  1  0.50000000  0.30916900  0.75000000  1
  O  O36  1  0.68419750  0.09158150  0.50005800  1
  O  O37  1  0.81580250  0.59158150  0.99994200  1
  O  O38  1  0.81580250  0.40841850  0.49994200  1
  O  O39  1  0.68419750  0.90841850  0.00005800  1
  O  O40  1  0.08504900  0.34300800  0.58669400  1
  O  O41  1  0.91495100  0.34300800  0.91330600  1
  O  O42  1  0.41495100  0.15699200  0.41330600  1
  O  O43  1  0.58504900  0.15699200  0.08669400  1
  O  O44  1  0.35147250  0.44836250  0.86592400  1
  O  O45  1  0.64852750  0.44836250  0.63407600  1
  O  O46  1  0.14852750  0.05163750  0.13407600  1
  O  O47  1  0.85147250  0.05163750  0.36592400  1
