# generated using pymatgen
data_Sn2IF3
_symmetry_space_group_name_H-M   'P 1'
_cell_length_a   4.36745600
_cell_length_b   14.13606600
_cell_length_c   9.35353400
_cell_angle_alpha   90.00000000
_cell_angle_beta   90.00000000
_cell_angle_gamma   90.00000000
_symmetry_Int_Tables_number   1
_chemical_formula_structural   Sn2IF3
_chemical_formula_sum   'Sn8 I4 F12'
_cell_volume   577.47452698
_cell_formula_units_Z   4
loop_
 _symmetry_equiv_pos_site_id
 _symmetry_equiv_pos_as_xyz
  1  'x, y, z'
loop_
 _atom_site_type_symbol
 _atom_site_label
 _atom_site_symmetry_multiplicity
 _atom_site_fract_x
 _atom_site_fract_y
 _atom_site_fract_z
 _atom_site_occupancy
  Sn  Sn0  1  0.48248500  0.13984100  0.95785500  1
  Sn  Sn1  1  0.51751500  0.13984100  0.54214500  1
  Sn  Sn2  1  0.98248500  0.36015900  0.04214500  1
  Sn  Sn3  1  0.01751500  0.36015900  0.45785500  1
  Sn  Sn4  1  0.98248500  0.63984100  0.95785500  1
  Sn  Sn5  1  0.01751500  0.63984100  0.54214500  1
  Sn  Sn6  1  0.48248500  0.86015900  0.04214500  1
  Sn  Sn7  1  0.51751500  0.86015900  0.45785500  1
  I  I8  1  0.00000000  0.00654800  0.25000000  1
  I  I9  1  0.50000000  0.49345200  0.75000000  1
  I  I10  1  0.50000000  0.50654800  0.25000000  1
  I  I11  1  0.00000000  0.99345200  0.75000000  1
  F  F12  1  0.50000000  0.20738200  0.75000000  1
  F  F13  1  0.00000000  0.29261800  0.25000000  1
  F  F14  1  0.99686500  0.20878600  0.95966200  1
  F  F15  1  0.49686500  0.29121400  0.04033800  1
  F  F16  1  0.00313500  0.20878600  0.54033800  1
  F  F17  1  0.50313500  0.29121400  0.45966200  1
  F  F18  1  0.00000000  0.70738200  0.75000000  1
  F  F19  1  0.50000000  0.79261800  0.25000000  1
  F  F20  1  0.49686500  0.70878600  0.95966200  1
  F  F21  1  0.99686500  0.79121400  0.04033800  1
  F  F22  1  0.50313500  0.70878600  0.54033800  1
  F  F23  1  0.00313500  0.79121400  0.45966200  1
