# generated using pymatgen
data_K2SnTe3
_symmetry_space_group_name_H-M   'P 1'
_cell_length_a   8.79226200
_cell_length_b   23.42703200
_cell_length_c   8.83783300
_cell_angle_alpha   90.00000000
_cell_angle_beta   90.00000000
_cell_angle_gamma   90.00000000
_symmetry_Int_Tables_number   1
_chemical_formula_structural   K2SnTe3
_chemical_formula_sum   'K16 Sn8 Te24'
_cell_volume   1820.38682122
_cell_formula_units_Z   8
loop_
 _symmetry_equiv_pos_site_id
 _symmetry_equiv_pos_as_xyz
  1  'x, y, z'
loop_
 _atom_site_type_symbol
 _atom_site_label
 _atom_site_symmetry_multiplicity
 _atom_site_fract_x
 _atom_site_fract_y
 _atom_site_fract_z
 _atom_site_occupancy
  K  K0  1  0.00000000  0.92222000  0.00000000  1
  K  K1  1  0.00000000  0.57778000  0.50000000  1
  K  K2  1  0.50000000  0.57778000  0.00000000  1
  K  K3  1  0.50000000  0.92222000  0.50000000  1
  K  K4  1  0.00000000  0.76517300  0.00000000  1
  K  K5  1  0.50000000  0.76517300  0.50000000  1
  K  K6  1  0.00000000  0.73482700  0.50000000  1
  K  K7  1  0.50000000  0.73482700  0.00000000  1
  K  K8  1  0.50000000  0.42222000  0.00000000  1
  K  K9  1  0.50000000  0.07778000  0.50000000  1
  K  K10  1  0.00000000  0.07778000  0.00000000  1
  K  K11  1  0.00000000  0.42222000  0.50000000  1
  K  K12  1  0.50000000  0.26517300  0.00000000  1
  K  K13  1  0.00000000  0.26517300  0.50000000  1
  K  K14  1  0.50000000  0.23482700  0.50000000  1
  K  K15  1  0.00000000  0.23482700  0.00000000  1
  Sn  Sn16  1  0.00000000  0.58430200  0.00000000  1
  Sn  Sn17  1  0.00000000  0.91569800  0.50000000  1
  Sn  Sn18  1  0.50000000  0.91569800  0.00000000  1
  Sn  Sn19  1  0.50000000  0.58430200  0.50000000  1
  Sn  Sn20  1  0.50000000  0.08430200  0.00000000  1
  Sn  Sn21  1  0.50000000  0.41569800  0.50000000  1
  Sn  Sn22  1  0.00000000  0.41569800  0.00000000  1
  Sn  Sn23  1  0.00000000  0.08430200  0.50000000  1
  Te  Te24  1  0.18627250  0.85055950  0.31388000  1
  Te  Te25  1  0.18627250  0.64944050  0.18612000  1
  Te  Te26  1  0.81372750  0.64944050  0.81388000  1
  Te  Te27  1  0.81372750  0.85055950  0.68612000  1
  Te  Te28  1  0.31372750  0.64944050  0.68612000  1
  Te  Te29  1  0.31372750  0.85055950  0.81388000  1
  Te  Te30  1  0.68627250  0.85055950  0.18612000  1
  Te  Te31  1  0.68627250  0.64944050  0.31388000  1
  Te  Te32  1  0.83229300  0.00000000  0.33210100  1
  Te  Te33  1  0.33229300  0.00000000  0.16789900  1
  Te  Te34  1  0.66770700  0.00000000  0.83210100  1
  Te  Te35  1  0.16770700  0.00000000  0.66789900  1
  Te  Te36  1  0.68627250  0.35055950  0.31388000  1
  Te  Te37  1  0.68627250  0.14944050  0.18612000  1
  Te  Te38  1  0.31372750  0.14944050  0.81388000  1
  Te  Te39  1  0.31372750  0.35055950  0.68612000  1
  Te  Te40  1  0.81372750  0.14944050  0.68612000  1
  Te  Te41  1  0.81372750  0.35055950  0.81388000  1
  Te  Te42  1  0.18627250  0.35055950  0.18612000  1
  Te  Te43  1  0.18627250  0.14944050  0.31388000  1
  Te  Te44  1  0.33229300  0.50000000  0.33210100  1
  Te  Te45  1  0.83229300  0.50000000  0.16789900  1
  Te  Te46  1  0.16770700  0.50000000  0.83210100  1
  Te  Te47  1  0.66770700  0.50000000  0.66789900  1
