# generated using pymatgen
data_Y4OsBr4
_symmetry_space_group_name_H-M   'P 1'
_cell_length_a   12.77375000
_cell_length_b   12.63260800
_cell_length_c   6.59038216
_cell_angle_alpha   90.00000000
_cell_angle_beta   90.68657829
_cell_angle_gamma   90.00000000
_symmetry_Int_Tables_number   1
_chemical_formula_structural   Y4OsBr4
_chemical_formula_sum   'Y16 Os4 Br16'
_cell_volume   1063.38578245
_cell_formula_units_Z   4
loop_
 _symmetry_equiv_pos_site_id
 _symmetry_equiv_pos_as_xyz
  1  'x, y, z'
loop_
 _atom_site_type_symbol
 _atom_site_label
 _atom_site_symmetry_multiplicity
 _atom_site_fract_x
 _atom_site_fract_y
 _atom_site_fract_z
 _atom_site_occupancy
  Y  Y0  1  0.57526350  0.67430550  0.98963900  1
  Y  Y1  1  0.57526350  0.32569450  0.48963900  1
  Y  Y2  1  0.82691350  0.07543350  0.99146700  1
  Y  Y3  1  0.82691350  0.92456650  0.49146700  1
  Y  Y4  1  0.17308650  0.92456650  0.00853300  1
  Y  Y5  1  0.42473650  0.67430550  0.51036100  1
  Y  Y6  1  0.42473650  0.32569450  0.01036100  1
  Y  Y7  1  0.17308650  0.07543350  0.50853300  1
  Y  Y8  1  0.07526350  0.17430550  0.98963900  1
  Y  Y9  1  0.07526350  0.82569450  0.48963900  1
  Y  Y10  1  0.32691350  0.57543350  0.99146700  1
  Y  Y11  1  0.32691350  0.42456650  0.49146700  1
  Y  Y12  1  0.67308650  0.42456650  0.00853300  1
  Y  Y13  1  0.92473650  0.17430550  0.51036100  1
  Y  Y14  1  0.92473650  0.82569450  0.01036100  1
  Y  Y15  1  0.67308650  0.57543350  0.50853300  1
  Os  Os16  1  0.50000000  0.50488200  0.25000000  1
  Os  Os17  1  0.50000000  0.49511800  0.75000000  1
  Os  Os18  1  0.00000000  0.00488200  0.25000000  1
  Os  Os19  1  0.00000000  0.99511800  0.75000000  1
  Br  Br20  1  0.61813450  0.80094850  0.59228000  1
  Br  Br21  1  0.30221600  0.88751000  0.40523500  1
  Br  Br22  1  0.69778400  0.88751000  0.09476500  1
  Br  Br23  1  0.69778400  0.11249000  0.59476500  1
  Br  Br24  1  0.30221600  0.11249000  0.90523500  1
  Br  Br25  1  0.38186550  0.19905150  0.40772000  1
  Br  Br26  1  0.61813450  0.19905150  0.09228000  1
  Br  Br27  1  0.38186550  0.80094850  0.90772000  1
  Br  Br28  1  0.11813450  0.30094850  0.59228000  1
  Br  Br29  1  0.80221600  0.38751000  0.40523500  1
  Br  Br30  1  0.19778400  0.38751000  0.09476500  1
  Br  Br31  1  0.19778400  0.61249000  0.59476500  1
  Br  Br32  1  0.80221600  0.61249000  0.90523500  1
  Br  Br33  1  0.88186550  0.69905150  0.40772000  1
  Br  Br34  1  0.11813450  0.69905150  0.09228000  1
  Br  Br35  1  0.88186550  0.30094850  0.90772000  1
