# generated using pymatgen
data_Tb2O3
_symmetry_space_group_name_H-M   'P 1'
_cell_length_a   14.13490000
_cell_length_b   3.53487000
_cell_length_c   8.71736965
_cell_angle_alpha   90.00000000
_cell_angle_beta   100.32436379
_cell_angle_gamma   90.00000000
_symmetry_Int_Tables_number   1
_chemical_formula_structural   Tb2O3
_chemical_formula_sum   'Tb12 O18'
_cell_volume   428.51142336
_cell_formula_units_Z   6
loop_
 _symmetry_equiv_pos_site_id
 _symmetry_equiv_pos_as_xyz
  1  'x, y, z'
loop_
 _atom_site_type_symbol
 _atom_site_label
 _atom_site_symmetry_multiplicity
 _atom_site_fract_x
 _atom_site_fract_y
 _atom_site_fract_z
 _atom_site_occupancy
  Tb  Tb0  1  0.96760100  0.00000000  0.18666900  1
  Tb  Tb1  1  0.53239900  0.50000000  0.81333100  1
  Tb  Tb2  1  0.69118200  0.00000000  0.13728800  1
  Tb  Tb3  1  0.80881800  0.50000000  0.86271200  1
  Tb  Tb4  1  0.63495200  0.00000000  0.48814900  1
  Tb  Tb5  1  0.86504800  0.50000000  0.51185100  1
  Tb  Tb6  1  0.46760100  0.50000000  0.18666900  1
  Tb  Tb7  1  0.03239900  0.00000000  0.81333100  1
  Tb  Tb8  1  0.19118200  0.50000000  0.13728800  1
  Tb  Tb9  1  0.30881800  0.00000000  0.86271200  1
  Tb  Tb10  1  0.13495200  0.50000000  0.48814900  1
  Tb  Tb11  1  0.36504800  0.00000000  0.51185100  1
  O  O12  1  0.00000000  0.50000000  0.00000000  1
  O  O13  1  0.97126700  0.50000000  0.34326700  1
  O  O14  1  0.52873300  0.00000000  0.65673300  1
  O  O15  1  0.79416400  0.00000000  0.37657100  1
  O  O16  1  0.70583600  0.50000000  0.62342900  1
  O  O17  1  0.82512400  0.00000000  0.02976000  1
  O  O18  1  0.87198800  0.00000000  0.71753100  1
  O  O19  1  0.62801200  0.50000000  0.28246900  1
  O  O20  1  0.67487600  0.50000000  0.97024000  1
  O  O21  1  0.50000000  0.00000000  0.00000000  1
  O  O22  1  0.47126700  0.00000000  0.34326700  1
  O  O23  1  0.02873300  0.50000000  0.65673300  1
  O  O24  1  0.29416400  0.50000000  0.37657100  1
  O  O25  1  0.20583600  0.00000000  0.62342900  1
  O  O26  1  0.32512400  0.50000000  0.02976000  1
  O  O27  1  0.37198800  0.50000000  0.71753100  1
  O  O28  1  0.12801200  0.00000000  0.28246900  1
  O  O29  1  0.17487600  0.00000000  0.97024000  1
