# generated using pymatgen
data_WBr6
_symmetry_space_group_name_H-M   'P 1'
_cell_length_a   6.97334456
_cell_length_b   6.97334456
_cell_length_c   18.78804181
_cell_angle_alpha   90.00000000
_cell_angle_beta   90.00000000
_cell_angle_gamma   120.00000000
_symmetry_Int_Tables_number   1
_chemical_formula_structural   WBr6
_chemical_formula_sum   'W3 Br18'
_cell_volume   791.21479296
_cell_formula_units_Z   3
loop_
 _symmetry_equiv_pos_site_id
 _symmetry_equiv_pos_as_xyz
  1  'x, y, z'
loop_
 _atom_site_type_symbol
 _atom_site_label
 _atom_site_symmetry_multiplicity
 _atom_site_fract_x
 _atom_site_fract_y
 _atom_site_fract_z
 _atom_site_occupancy
  W  W0  1  0.00000000  0.00000000  0.00000000  1
  W  W1  1  0.66666667  0.33333333  0.33333333  1
  W  W2  1  0.33333333  0.66666667  0.66666667  1
  Br  Br3  1  0.95927800  0.33786500  0.25725700  1
  Br  Br4  1  0.00453167  0.71192033  0.07607633  1
  Br  Br5  1  0.28807967  0.29261133  0.07607633  1
  Br  Br6  1  0.70738867  0.99546833  0.07607633  1
  Br  Br7  1  0.66213500  0.62141300  0.25725700  1
  Br  Br8  1  0.37858700  0.04072200  0.25725700  1
  Br  Br9  1  0.62594467  0.67119833  0.59059033  1
  Br  Br10  1  0.67119833  0.04525367  0.40940967  1
  Br  Br11  1  0.95474633  0.62594467  0.40940967  1
  Br  Br12  1  0.37405533  0.32880167  0.40940967  1
  Br  Br13  1  0.32880167  0.95474633  0.59059033  1
  Br  Br14  1  0.04525367  0.37405533  0.59059033  1
  Br  Br15  1  0.29261133  0.00453167  0.92392367  1
  Br  Br16  1  0.33786500  0.37858700  0.74274300  1
  Br  Br17  1  0.62141300  0.95927800  0.74274300  1
  Br  Br18  1  0.04072200  0.66213500  0.74274300  1
  Br  Br19  1  0.99546833  0.28807967  0.92392367  1
  Br  Br20  1  0.71192033  0.70738867  0.92392367  1
