# generated using pymatgen
data_ZnH12SeO10
_symmetry_space_group_name_H-M   'P 1'
_cell_length_a   6.98999700
_cell_length_b   6.98999700
_cell_length_c   18.90028900
_cell_angle_alpha   90.00000000
_cell_angle_beta   90.00000000
_cell_angle_gamma   90.00000000
_symmetry_Int_Tables_number   1
_chemical_formula_structural   ZnH12SeO10
_chemical_formula_sum   'Zn4 H48 Se4 O40'
_cell_volume   923.46921789
_cell_formula_units_Z   4
loop_
 _symmetry_equiv_pos_site_id
 _symmetry_equiv_pos_as_xyz
  1  'x, y, z'
loop_
 _atom_site_type_symbol
 _atom_site_label
 _atom_site_symmetry_multiplicity
 _atom_site_fract_x
 _atom_site_fract_y
 _atom_site_fract_z
 _atom_site_occupancy
  Zn  Zn0  1  0.21626100  0.21626100  0.00000000  1
  Zn  Zn1  1  0.28373900  0.71626100  0.25000000  1
  Zn  Zn2  1  0.71626100  0.28373900  0.75000000  1
  Zn  Zn3  1  0.78373900  0.78373900  0.50000000  1
  H  H4  1  0.71903200  0.00536000  0.38268000  1
  H  H5  1  0.28096800  0.99464000  0.88268000  1
  H  H6  1  0.00536000  0.71903200  0.61732000  1
  H  H7  1  0.50536000  0.78096800  0.13268000  1
  H  H8  1  0.49464000  0.21903200  0.63268000  1
  H  H9  1  0.78096800  0.50536000  0.86732000  1
  H  H10  1  0.21903200  0.49464000  0.36732000  1
  H  H11  1  0.99464000  0.28096800  0.11732000  1
  H  H12  1  0.52535400  0.99367800  0.43045800  1
  H  H13  1  0.47464600  0.00632200  0.93045800  1
  H  H14  1  0.99367800  0.52535400  0.56954200  1
  H  H15  1  0.49367800  0.97464600  0.18045800  1
  H  H16  1  0.50632200  0.02535400  0.68045800  1
  H  H17  1  0.97464600  0.49367800  0.81954200  1
  H  H18  1  0.02535400  0.50632200  0.31954200  1
  H  H19  1  0.00632200  0.47464600  0.06954200  1
  H  H20  1  0.62186900  0.46555200  0.43965100  1
  H  H21  1  0.37813100  0.53444800  0.93965100  1
  H  H22  1  0.46555200  0.62186900  0.56034900  1
  H  H23  1  0.96555200  0.87813100  0.18965100  1
  H  H24  1  0.03444800  0.12186900  0.68965100  1
  H  H25  1  0.87813100  0.96555200  0.81034900  1
  H  H26  1  0.12186900  0.03444800  0.31034900  1
  H  H27  1  0.08950300  0.85708300  0.04013500  1
  H  H28  1  0.84573900  0.42640400  0.45709300  1
  H  H29  1  0.15426100  0.57359600  0.95709300  1
  H  H30  1  0.42640400  0.84573900  0.54290700  1
  H  H31  1  0.92640400  0.65426100  0.20709300  1
  H  H32  1  0.07359600  0.34573900  0.70709300  1
  H  H33  1  0.65426100  0.92640400  0.79290700  1
  H  H34  1  0.34573900  0.07359600  0.29290700  1
  H  H35  1  0.57359600  0.15426100  0.04290700  1
  H  H36  1  0.07506700  0.74189100  0.40567800  1
  H  H37  1  0.92493300  0.25810900  0.90567800  1
  H  H38  1  0.74189100  0.07506700  0.59432200  1
  H  H39  1  0.24189100  0.42493300  0.15567800  1
  H  H40  1  0.75810900  0.57506700  0.65567800  1
  H  H41  1  0.42493300  0.24189100  0.84432200  1
  H  H42  1  0.57506700  0.75810900  0.34432200  1
  H  H43  1  0.25810900  0.92493300  0.09432200  1
  H  H44  1  0.14291700  0.91049700  0.45986500  1
  H  H45  1  0.85708300  0.08950300  0.95986500  1
  H  H46  1  0.91049700  0.14291700  0.54013500  1
  H  H47  1  0.41049700  0.35708300  0.20986500  1
  H  H48  1  0.58950300  0.64291700  0.70986500  1
  H  H49  1  0.35708300  0.41049700  0.79013500  1
  H  H50  1  0.64291700  0.58950300  0.29013500  1
  H  H51  1  0.53444800  0.37813100  0.06034900  1
  Se  Se52  1  0.71270600  0.71270600  0.00000000  1
  Se  Se53  1  0.78729400  0.21270600  0.25000000  1
  Se  Se54  1  0.21270600  0.78729400  0.75000000  1
  Se  Se55  1  0.28729400  0.28729400  0.50000000  1
  O  O56  1  0.32648700  0.05043900  0.49224400  1
  O  O57  1  0.67351300  0.94956100  0.99224400  1
  O  O58  1  0.05043900  0.32648700  0.50775600  1
  O  O59  1  0.55043900  0.17351300  0.24224400  1
  O  O60  1  0.44956100  0.82648700  0.74224400  1
  O  O61  1  0.17351300  0.55043900  0.75775600  1
  O  O62  1  0.82648700  0.44956100  0.25775600  1
  O  O63  1  0.94956100  0.67351300  0.00775600  1
  O  O64  1  0.37557900  0.39502600  0.42786800  1
  O  O65  1  0.62442100  0.60497400  0.92786800  1
  O  O66  1  0.39502600  0.37557900  0.57213200  1
  O  O67  1  0.89502600  0.12442100  0.17786800  1
  O  O68  1  0.10497400  0.87557900  0.67786800  1
  O  O69  1  0.12442100  0.89502600  0.82213200  1
  O  O70  1  0.87557900  0.10497400  0.32213200  1
  O  O71  1  0.60497400  0.62442100  0.07213200  1
  O  O72  1  0.63471900  0.91938100  0.41141800  1
  O  O73  1  0.36528100  0.08061900  0.91141800  1
  O  O74  1  0.91938100  0.63471900  0.58858200  1
  O  O75  1  0.41938100  0.86528100  0.16141800  1
  O  O76  1  0.58061900  0.13471900  0.66141800  1
  O  O77  1  0.86528100  0.41938100  0.83858200  1
  O  O78  1  0.13471900  0.58061900  0.33858200  1
  O  O79  1  0.08061900  0.36528100  0.08858200  1
  O  O80  1  0.18352600  0.95893200  0.05147800  1
  O  O81  1  0.24887400  0.47591300  0.94337300  1
  O  O82  1  0.52408700  0.75112600  0.55662700  1
  O  O83  1  0.02408700  0.74887400  0.19337300  1
  O  O84  1  0.97591300  0.25112600  0.69337300  1
  O  O85  1  0.74887400  0.02408700  0.80662700  1
  O  O86  1  0.25112600  0.97591300  0.30662700  1
  O  O87  1  0.47591300  0.24887400  0.05662700  1
  O  O88  1  0.04106800  0.81647400  0.44852200  1
  O  O89  1  0.95893200  0.18352600  0.94852200  1
  O  O90  1  0.81647400  0.04106800  0.55147800  1
  O  O91  1  0.31647400  0.45893200  0.19852200  1
  O  O92  1  0.68352600  0.54106800  0.69852200  1
  O  O93  1  0.45893200  0.31647400  0.80147800  1
  O  O94  1  0.54106800  0.68352600  0.30147800  1
  O  O95  1  0.75112600  0.52408700  0.44337300  1
