# generated using pymatgen
data_RbAsSe2
_symmetry_space_group_name_H-M   'P 1'
_cell_length_a   23.84765600
_cell_length_b   10.20703600
_cell_length_c   9.70024805
_cell_angle_alpha   90.00000000
_cell_angle_beta   101.89538375
_cell_angle_gamma   90.00000000
_symmetry_Int_Tables_number   1
_chemical_formula_structural   RbAsSe2
_chemical_formula_sum   'Rb16 As16 Se32'
_cell_volume   2310.47021894
_cell_formula_units_Z   16
loop_
 _symmetry_equiv_pos_site_id
 _symmetry_equiv_pos_as_xyz
  1  'x, y, z'
loop_
 _atom_site_type_symbol
 _atom_site_label
 _atom_site_symmetry_multiplicity
 _atom_site_fract_x
 _atom_site_fract_y
 _atom_site_fract_z
 _atom_site_occupancy
  Rb  Rb0  1  0.00000000  0.53462900  0.75000000  1
  Rb  Rb1  1  0.00000000  0.46537100  0.25000000  1
  Rb  Rb2  1  0.00000000  0.99927100  0.75000000  1
  Rb  Rb3  1  0.00000000  0.00072900  0.25000000  1
  Rb  Rb4  1  0.30240650  0.57368250  0.17246400  1
  Rb  Rb5  1  0.19759350  0.07368250  0.32753600  1
  Rb  Rb6  1  0.19759350  0.92631750  0.82753600  1
  Rb  Rb7  1  0.30240650  0.42631750  0.67246400  1
  Rb  Rb8  1  0.50000000  0.03462900  0.75000000  1
  Rb  Rb9  1  0.50000000  0.96537100  0.25000000  1
  Rb  Rb10  1  0.50000000  0.49927100  0.75000000  1
  Rb  Rb11  1  0.50000000  0.50072900  0.25000000  1
  Rb  Rb12  1  0.80240650  0.07368250  0.17246400  1
  Rb  Rb13  1  0.69759350  0.57368250  0.32753600  1
  Rb  Rb14  1  0.69759350  0.42631750  0.82753600  1
  Rb  Rb15  1  0.80240650  0.92631750  0.67246400  1
  As  As16  1  0.34733600  0.14234500  0.95715400  1
  As  As17  1  0.39057400  0.80063500  0.84963900  1
  As  As18  1  0.10942600  0.30063500  0.65036100  1
  As  As19  1  0.10942600  0.69936500  0.15036100  1
  As  As20  1  0.39057400  0.19936500  0.34963900  1
  As  As21  1  0.15266400  0.64234500  0.54284600  1
  As  As22  1  0.15266400  0.35765500  0.04284600  1
  As  As23  1  0.34733600  0.85765500  0.45715400  1
  As  As24  1  0.84733600  0.64234500  0.95715400  1
  As  As25  1  0.89057400  0.30063500  0.84963900  1
  As  As26  1  0.60942600  0.80063500  0.65036100  1
  As  As27  1  0.60942600  0.19936500  0.15036100  1
  As  As28  1  0.89057400  0.69936500  0.34963900  1
  As  As29  1  0.65266400  0.14234500  0.54284600  1
  As  As30  1  0.65266400  0.85765500  0.04284600  1
  As  As31  1  0.84733600  0.35765500  0.45715400  1
  Se  Se32  1  0.39625300  0.41261400  0.44196600  1
  Se  Se33  1  0.10374700  0.91261400  0.05803400  1
  Se  Se34  1  0.10374700  0.08738600  0.55803400  1
  Se  Se35  1  0.30433600  0.78390800  0.65595100  1
  Se  Se36  1  0.39625300  0.58738600  0.94196600  1
  Se  Se37  1  0.30433600  0.21609200  0.15595100  1
  Se  Se38  1  0.19566400  0.71609200  0.34404900  1
  Se  Se39  1  0.19566400  0.28390800  0.84404900  1
  Se  Se40  1  0.44164200  0.78277800  0.50738000  1
  Se  Se41  1  0.05835800  0.28277800  0.99262000  1
  Se  Se42  1  0.05835800  0.71722200  0.49262000  1
  Se  Se43  1  0.44164200  0.21722200  0.00738000  1
  Se  Se44  1  0.34896000  0.09272000  0.53422500  1
  Se  Se45  1  0.15104000  0.59272000  0.96577500  1
  Se  Se46  1  0.15104000  0.40728000  0.46577500  1
  Se  Se47  1  0.34896000  0.90728000  0.03422500  1
  Se  Se48  1  0.89625300  0.91261400  0.44196600  1
  Se  Se49  1  0.60374700  0.41261400  0.05803400  1
  Se  Se50  1  0.60374700  0.58738600  0.55803400  1
  Se  Se51  1  0.80433600  0.28390800  0.65595100  1
  Se  Se52  1  0.89625300  0.08738600  0.94196600  1
  Se  Se53  1  0.80433600  0.71609200  0.15595100  1
  Se  Se54  1  0.69566400  0.21609200  0.34404900  1
  Se  Se55  1  0.69566400  0.78390800  0.84404900  1
  Se  Se56  1  0.94164200  0.28277800  0.50738000  1
  Se  Se57  1  0.55835800  0.78277800  0.99262000  1
  Se  Se58  1  0.55835800  0.21722200  0.49262000  1
  Se  Se59  1  0.94164200  0.71722200  0.00738000  1
  Se  Se60  1  0.84896000  0.59272000  0.53422500  1
  Se  Se61  1  0.65104000  0.09272000  0.96577500  1
  Se  Se62  1  0.65104000  0.90728000  0.46577500  1
  Se  Se63  1  0.84896000  0.40728000  0.03422500  1
