# generated using pymatgen
data_ZrPb3F10
_symmetry_space_group_name_H-M   'P 1'
_cell_length_a   10.69380200
_cell_length_b   12.96340600
_cell_length_c   6.11179800
_cell_angle_alpha   90.00000000
_cell_angle_beta   90.00000000
_cell_angle_gamma   90.00000000
_symmetry_Int_Tables_number   1
_chemical_formula_structural   ZrPb3F10
_chemical_formula_sum   'Zr4 Pb12 F40'
_cell_volume   847.26692605
_cell_formula_units_Z   4
loop_
 _symmetry_equiv_pos_site_id
 _symmetry_equiv_pos_as_xyz
  1  'x, y, z'
loop_
 _atom_site_type_symbol
 _atom_site_label
 _atom_site_symmetry_multiplicity
 _atom_site_fract_x
 _atom_site_fract_y
 _atom_site_fract_z
 _atom_site_occupancy
  Zr  Zr0  1  0.50000000  0.68280200  0.25000000  1
  Zr  Zr1  1  0.50000000  0.31719800  0.75000000  1
  Zr  Zr2  1  0.00000000  0.18280200  0.25000000  1
  Zr  Zr3  1  0.00000000  0.81719800  0.75000000  1
  Pb  Pb4  1  0.21481600  0.10570100  0.75000000  1
  Pb  Pb5  1  0.78518400  0.89429900  0.25000000  1
  Pb  Pb6  1  0.21481600  0.89429900  0.25000000  1
  Pb  Pb7  1  0.78518400  0.10570100  0.75000000  1
  Pb  Pb8  1  0.50000000  0.11069800  0.25000000  1
  Pb  Pb9  1  0.50000000  0.88930200  0.75000000  1
  Pb  Pb10  1  0.71481600  0.60570100  0.75000000  1
  Pb  Pb11  1  0.28518400  0.39429900  0.25000000  1
  Pb  Pb12  1  0.71481600  0.39429900  0.25000000  1
  Pb  Pb13  1  0.28518400  0.60570100  0.75000000  1
  Pb  Pb14  1  0.00000000  0.61069800  0.25000000  1
  Pb  Pb15  1  0.00000000  0.38930200  0.75000000  1
  F  F16  1  0.83536150  0.91132650  0.75000000  1
  F  F17  1  0.16463850  0.08867350  0.25000000  1
  F  F18  1  0.83536150  0.08867350  0.25000000  1
  F  F19  1  0.16463850  0.91132650  0.75000000  1
  F  F20  1  0.50000000  0.60364200  0.54694400  1
  F  F21  1  0.50000000  0.39635800  0.04694400  1
  F  F22  1  0.50000000  0.39635800  0.45305600  1
  F  F23  1  0.50000000  0.60364200  0.95305600  1
  F  F24  1  0.63630700  0.00000000  0.00000000  1
  F  F25  1  0.36369300  0.00000000  0.50000000  1
  F  F26  1  0.36369300  0.00000000  0.00000000  1
  F  F27  1  0.63630700  0.00000000  0.50000000  1
  F  F28  1  0.62097000  0.22494700  0.95992700  1
  F  F29  1  0.37903000  0.77505300  0.45992700  1
  F  F30  1  0.62097000  0.77505300  0.04007300  1
  F  F31  1  0.37903000  0.22494700  0.54007300  1
  F  F32  1  0.37903000  0.77505300  0.04007300  1
  F  F33  1  0.62097000  0.22494700  0.54007300  1
  F  F34  1  0.37903000  0.22494700  0.95992700  1
  F  F35  1  0.62097000  0.77505300  0.45992700  1
  F  F36  1  0.33536150  0.41132650  0.75000000  1
  F  F37  1  0.66463850  0.58867350  0.25000000  1
  F  F38  1  0.33536150  0.58867350  0.25000000  1
  F  F39  1  0.66463850  0.41132650  0.75000000  1
  F  F40  1  0.00000000  0.10364200  0.54694400  1
  F  F41  1  0.00000000  0.89635800  0.04694400  1
  F  F42  1  0.00000000  0.89635800  0.45305600  1
  F  F43  1  0.00000000  0.10364200  0.95305600  1
  F  F44  1  0.13630700  0.50000000  0.00000000  1
  F  F45  1  0.86369300  0.50000000  0.50000000  1
  F  F46  1  0.86369300  0.50000000  0.00000000  1
  F  F47  1  0.13630700  0.50000000  0.50000000  1
  F  F48  1  0.12097000  0.72494700  0.95992700  1
  F  F49  1  0.87903000  0.27505300  0.45992700  1
  F  F50  1  0.12097000  0.27505300  0.04007300  1
  F  F51  1  0.87903000  0.72494700  0.54007300  1
  F  F52  1  0.87903000  0.27505300  0.04007300  1
  F  F53  1  0.12097000  0.72494700  0.54007300  1
  F  F54  1  0.87903000  0.72494700  0.95992700  1
  F  F55  1  0.12097000  0.27505300  0.45992700  1
