# generated using pymatgen
data_Ga2TeSe2
_symmetry_space_group_name_H-M   'P 1'
_cell_length_a   7.43501600
_cell_length_b   7.43501600
_cell_length_c   10.99557600
_cell_angle_alpha   90.00000000
_cell_angle_beta   90.00000000
_cell_angle_gamma   90.00000000
_symmetry_Int_Tables_number   1
_chemical_formula_structural   Ga2TeSe2
_chemical_formula_sum   'Ga8 Te4 Se8'
_cell_volume   607.82953578
_cell_formula_units_Z   4
loop_
 _symmetry_equiv_pos_site_id
 _symmetry_equiv_pos_as_xyz
  1  'x, y, z'
loop_
 _atom_site_type_symbol
 _atom_site_label
 _atom_site_symmetry_multiplicity
 _atom_site_fract_x
 _atom_site_fract_y
 _atom_site_fract_z
 _atom_site_occupancy
  Ga  Ga0  1  0.00000000  0.22523100  0.17616900  1
  Ga  Ga1  1  0.27476900  0.00000000  0.92616900  1
  Ga  Ga2  1  0.72523100  0.00000000  0.92616900  1
  Ga  Ga3  1  0.00000000  0.77476900  0.17616900  1
  Ga  Ga4  1  0.50000000  0.72523100  0.67616900  1
  Ga  Ga5  1  0.77476900  0.50000000  0.42616900  1
  Ga  Ga6  1  0.22523100  0.50000000  0.42616900  1
  Ga  Ga7  1  0.50000000  0.27476900  0.67616900  1
  Te  Te8  1  0.00000000  0.00000000  0.78033300  1
  Te  Te9  1  0.00000000  0.50000000  0.03033300  1
  Te  Te10  1  0.50000000  0.50000000  0.28033300  1
  Te  Te11  1  0.50000000  0.00000000  0.53033300  1
  Se  Se12  1  0.50000000  0.75213100  0.89916500  1
  Se  Se13  1  0.24786900  0.00000000  0.14916500  1
  Se  Se14  1  0.75213100  0.00000000  0.14916500  1
  Se  Se15  1  0.50000000  0.24786900  0.89916500  1
  Se  Se16  1  0.00000000  0.25213100  0.39916500  1
  Se  Se17  1  0.74786900  0.50000000  0.64916500  1
  Se  Se18  1  0.25213100  0.50000000  0.64916500  1
  Se  Se19  1  0.00000000  0.74786900  0.39916500  1
