# generated using pymatgen
data_Rb3Mn2Br7
_symmetry_space_group_name_H-M   'P 1'
_cell_length_a   5.40838400
_cell_length_b   5.40838400
_cell_length_c   27.81181000
_cell_angle_alpha   90.00000000
_cell_angle_beta   90.00000000
_cell_angle_gamma   90.00000000
_symmetry_Int_Tables_number   1
_chemical_formula_structural   Rb3Mn2Br7
_chemical_formula_sum   'Rb6 Mn4 Br14'
_cell_volume   813.51261606
_cell_formula_units_Z   2
loop_
 _symmetry_equiv_pos_site_id
 _symmetry_equiv_pos_as_xyz
  1  'x, y, z'
loop_
 _atom_site_type_symbol
 _atom_site_label
 _atom_site_symmetry_multiplicity
 _atom_site_fract_x
 _atom_site_fract_y
 _atom_site_fract_z
 _atom_site_occupancy
  Rb  Rb0  1  0.00000000  0.00000000  0.18082400  1
  Rb  Rb1  1  0.00000000  0.00000000  0.00000000  1
  Rb  Rb2  1  0.50000000  0.50000000  0.31917600  1
  Rb  Rb3  1  0.50000000  0.50000000  0.68082400  1
  Rb  Rb4  1  0.50000000  0.50000000  0.50000000  1
  Rb  Rb5  1  0.00000000  0.00000000  0.81917600  1
  Mn  Mn6  1  0.00000000  0.00000000  0.40008200  1
  Mn  Mn7  1  0.50000000  0.50000000  0.09991800  1
  Mn  Mn8  1  0.50000000  0.50000000  0.90008200  1
  Mn  Mn9  1  0.00000000  0.00000000  0.59991800  1
  Br  Br10  1  0.00000000  0.50000000  0.40408000  1
  Br  Br11  1  0.50000000  0.00000000  0.40408000  1
  Br  Br12  1  0.00000000  0.00000000  0.30555800  1
  Br  Br13  1  0.50000000  0.50000000  0.00000000  1
  Br  Br14  1  0.50000000  0.50000000  0.19444200  1
  Br  Br15  1  0.50000000  0.00000000  0.09592000  1
  Br  Br16  1  0.00000000  0.50000000  0.09592000  1
  Br  Br17  1  0.50000000  0.00000000  0.90408000  1
  Br  Br18  1  0.00000000  0.50000000  0.90408000  1
  Br  Br19  1  0.50000000  0.50000000  0.80555800  1
  Br  Br20  1  0.00000000  0.00000000  0.50000000  1
  Br  Br21  1  0.00000000  0.00000000  0.69444200  1
  Br  Br22  1  0.00000000  0.50000000  0.59592000  1
  Br  Br23  1  0.50000000  0.00000000  0.59592000  1
