# generated using pymatgen
data_Sr2H6Ru
_symmetry_space_group_name_H-M   'P 1'
_cell_length_a   7.63341800
_cell_length_b   7.63341800
_cell_length_c   7.63341800
_cell_angle_alpha   90.00000000
_cell_angle_beta   90.00000000
_cell_angle_gamma   90.00000000
_symmetry_Int_Tables_number   1
_chemical_formula_structural   Sr2H6Ru
_chemical_formula_sum   'Sr8 H24 Ru4'
_cell_volume   444.79217055
_cell_formula_units_Z   4
loop_
 _symmetry_equiv_pos_site_id
 _symmetry_equiv_pos_as_xyz
  1  'x, y, z'
loop_
 _atom_site_type_symbol
 _atom_site_label
 _atom_site_symmetry_multiplicity
 _atom_site_fract_x
 _atom_site_fract_y
 _atom_site_fract_z
 _atom_site_occupancy
  Sr  Sr0  1  0.25000000  0.25000000  0.75000000  1
  Sr  Sr1  1  0.25000000  0.75000000  0.75000000  1
  Sr  Sr2  1  0.25000000  0.75000000  0.25000000  1
  Sr  Sr3  1  0.25000000  0.25000000  0.25000000  1
  Sr  Sr4  1  0.75000000  0.25000000  0.25000000  1
  Sr  Sr5  1  0.75000000  0.75000000  0.25000000  1
  Sr  Sr6  1  0.75000000  0.75000000  0.75000000  1
  Sr  Sr7  1  0.75000000  0.25000000  0.75000000  1
  H  H8  1  0.00000000  0.00000000  0.77435800  1
  H  H9  1  0.50000000  0.72564200  0.00000000  1
  H  H10  1  0.22564200  0.00000000  0.00000000  1
  H  H11  1  0.50000000  0.00000000  0.72564200  1
  H  H12  1  0.50000000  0.27435800  0.00000000  1
  H  H13  1  0.77435800  0.00000000  0.00000000  1
  H  H14  1  0.00000000  0.50000000  0.27435800  1
  H  H15  1  0.50000000  0.22564200  0.50000000  1
  H  H16  1  0.22564200  0.50000000  0.50000000  1
  H  H17  1  0.50000000  0.50000000  0.22564200  1
  H  H18  1  0.50000000  0.77435800  0.50000000  1
  H  H19  1  0.77435800  0.50000000  0.50000000  1
  H  H20  1  0.50000000  0.00000000  0.27435800  1
  H  H21  1  0.00000000  0.72564200  0.50000000  1
  H  H22  1  0.72564200  0.00000000  0.50000000  1
  H  H23  1  0.00000000  0.00000000  0.22564200  1
  H  H24  1  0.00000000  0.27435800  0.50000000  1
  H  H25  1  0.27435800  0.00000000  0.50000000  1
  H  H26  1  0.50000000  0.50000000  0.77435800  1
  H  H27  1  0.00000000  0.22564200  0.00000000  1
  H  H28  1  0.72564200  0.50000000  0.00000000  1
  H  H29  1  0.00000000  0.50000000  0.72564200  1
  H  H30  1  0.00000000  0.77435800  0.00000000  1
  H  H31  1  0.27435800  0.50000000  0.00000000  1
  Ru  Ru32  1  0.00000000  0.00000000  0.00000000  1
  Ru  Ru33  1  0.00000000  0.50000000  0.50000000  1
  Ru  Ru34  1  0.50000000  0.00000000  0.50000000  1
  Ru  Ru35  1  0.50000000  0.50000000  0.00000000  1
