# generated using pymatgen
data_U(PO3)4
_symmetry_space_group_name_H-M   'P 1'
_cell_length_a   11.92248000
_cell_length_b   13.09176200
_cell_length_c   8.44062646
_cell_angle_alpha   90.00000000
_cell_angle_beta   134.61576445
_cell_angle_gamma   90.00000000
_symmetry_Int_Tables_number   1
_chemical_formula_structural   U(PO3)4
_chemical_formula_sum   'U4 P16 O48'
_cell_volume   937.81548100
_cell_formula_units_Z   4
loop_
 _symmetry_equiv_pos_site_id
 _symmetry_equiv_pos_as_xyz
  1  'x, y, z'
loop_
 _atom_site_type_symbol
 _atom_site_label
 _atom_site_symmetry_multiplicity
 _atom_site_fract_x
 _atom_site_fract_y
 _atom_site_fract_z
 _atom_site_occupancy
  U  U0  1  0.12407850  0.21800050  0.00713100  1
  U  U1  1  0.62407850  0.28199950  0.00713100  1
  U  U2  1  0.62407850  0.71800050  0.00713100  1
  U  U3  1  0.12407850  0.78199950  0.00713100  1
  P  P4  1  0.48104900  0.38398800  0.25233100  1
  P  P5  1  0.76619500  0.38412500  0.76083100  1
  P  P6  1  0.24377050  0.38710250  0.48117000  1
  P  P7  1  0.00777250  0.38644450  0.53872200  1
  P  P8  1  0.98104900  0.11601200  0.25233100  1
  P  P9  1  0.74377050  0.11289750  0.48117000  1
  P  P10  1  0.50777250  0.11355550  0.53872200  1
  P  P11  1  0.26619500  0.11587500  0.76083100  1
  P  P12  1  0.98104900  0.88398800  0.25233100  1
  P  P13  1  0.26619500  0.88412500  0.76083100  1
  P  P14  1  0.74377050  0.88710250  0.48117000  1
  P  P15  1  0.50777250  0.88644450  0.53872200  1
  P  P16  1  0.48104900  0.61601200  0.25233100  1
  P  P17  1  0.24377050  0.61289750  0.48117000  1
  P  P18  1  0.00777250  0.61355550  0.53872200  1
  P  P19  1  0.76619500  0.61587500  0.76083100  1
  O  O20  1  0.84497400  0.37423600  0.31060200  1
  O  O21  1  0.71846500  0.37994600  0.88408100  1
  O  O22  1  0.29789800  0.00000000  0.73704800  1
  O  O23  1  0.12034000  0.14947700  0.50588600  1
  O  O24  1  0.18271150  0.31332750  0.30092600  1
  O  O25  1  0.05994600  0.31297300  0.71458300  1
  O  O26  1  0.53389050  0.38073050  0.13537100  1
  O  O27  1  0.21846500  0.12005400  0.88408100  1
  O  O28  1  0.13545050  0.38680650  0.52753300  1
  O  O29  1  0.03389050  0.11926950  0.13537100  1
  O  O30  1  0.83783500  0.17579200  0.15809200  1
  O  O31  1  0.68271150  0.18667250  0.30092600  1
  O  O32  1  0.62034000  0.35052300  0.50588600  1
  O  O33  1  0.90555750  0.32228350  0.84908500  1
  O  O34  1  0.55994600  0.18702700  0.71458300  1
  O  O35  1  0.94705800  0.00000000  0.27281700  1
  O  O36  1  0.71462600  0.00000000  0.38186900  1
  O  O37  1  0.91122950  0.12386050  0.70015700  1
  O  O38  1  0.52718800  0.00000000  0.63090200  1
  O  O39  1  0.40555750  0.17771650  0.84908500  1
  O  O40  1  0.34497400  0.12576400  0.31060200  1
  O  O41  1  0.33783500  0.32420800  0.15809200  1
  O  O42  1  0.63545050  0.11319350  0.52753300  1
  O  O43  1  0.41122950  0.37613950  0.70015700  1
  O  O44  1  0.34497400  0.87423600  0.31060200  1
  O  O45  1  0.21846500  0.87994600  0.88408100  1
  O  O46  1  0.79789800  0.50000000  0.73704800  1
  O  O47  1  0.62034000  0.64947700  0.50588600  1
  O  O48  1  0.68271150  0.81332750  0.30092600  1
  O  O49  1  0.55994600  0.81297300  0.71458300  1
  O  O50  1  0.03389050  0.88073050  0.13537100  1
  O  O51  1  0.71846500  0.62005400  0.88408100  1
  O  O52  1  0.63545050  0.88680650  0.52753300  1
  O  O53  1  0.53389050  0.61926950  0.13537100  1
  O  O54  1  0.33783500  0.67579200  0.15809200  1
  O  O55  1  0.18271150  0.68667250  0.30092600  1
  O  O56  1  0.12034000  0.85052300  0.50588600  1
  O  O57  1  0.40555750  0.82228350  0.84908500  1
  O  O58  1  0.05994600  0.68702700  0.71458300  1
  O  O59  1  0.44705800  0.50000000  0.27281700  1
  O  O60  1  0.21462600  0.50000000  0.38186900  1
  O  O61  1  0.41122950  0.62386050  0.70015700  1
  O  O62  1  0.02718800  0.50000000  0.63090200  1
  O  O63  1  0.90555750  0.67771650  0.84908500  1
  O  O64  1  0.84497400  0.62576400  0.31060200  1
  O  O65  1  0.83783500  0.82420800  0.15809200  1
  O  O66  1  0.13545050  0.61319350  0.52753300  1
  O  O67  1  0.91122950  0.87613950  0.70015700  1
