# generated using pymatgen
data_Li6Br3N
_symmetry_space_group_name_H-M   'P 1'
_cell_length_a   9.04462400
_cell_length_b   9.04462400
_cell_length_c   9.04462400
_cell_angle_alpha   90.00000000
_cell_angle_beta   90.00000000
_cell_angle_gamma   90.00000000
_symmetry_Int_Tables_number   1
_chemical_formula_structural   Li6Br3N
_chemical_formula_sum   'Li24 Br12 N4'
_cell_volume   739.89748600
_cell_formula_units_Z   4
loop_
 _symmetry_equiv_pos_site_id
 _symmetry_equiv_pos_as_xyz
  1  'x, y, z'
loop_
 _atom_site_type_symbol
 _atom_site_label
 _atom_site_symmetry_multiplicity
 _atom_site_fract_x
 _atom_site_fract_y
 _atom_site_fract_z
 _atom_site_occupancy
  Li  Li0  1  0.00000000  0.00000000  0.71245300  1
  Li  Li1  1  0.50000000  0.21245300  0.00000000  1
  Li  Li2  1  0.50000000  0.78754700  0.00000000  1
  Li  Li3  1  0.28754700  0.00000000  0.00000000  1
  Li  Li4  1  0.50000000  0.00000000  0.78754700  1
  Li  Li5  1  0.71245300  0.00000000  0.00000000  1
  Li  Li6  1  0.00000000  0.50000000  0.21245300  1
  Li  Li7  1  0.50000000  0.71245300  0.50000000  1
  Li  Li8  1  0.50000000  0.28754700  0.50000000  1
  Li  Li9  1  0.28754700  0.50000000  0.50000000  1
  Li  Li10  1  0.50000000  0.50000000  0.28754700  1
  Li  Li11  1  0.71245300  0.50000000  0.50000000  1
  Li  Li12  1  0.50000000  0.00000000  0.21245300  1
  Li  Li13  1  0.00000000  0.21245300  0.50000000  1
  Li  Li14  1  0.00000000  0.78754700  0.50000000  1
  Li  Li15  1  0.78754700  0.00000000  0.50000000  1
  Li  Li16  1  0.00000000  0.00000000  0.28754700  1
  Li  Li17  1  0.21245300  0.00000000  0.50000000  1
  Li  Li18  1  0.50000000  0.50000000  0.71245300  1
  Li  Li19  1  0.00000000  0.71245300  0.00000000  1
  Li  Li20  1  0.00000000  0.28754700  0.00000000  1
  Li  Li21  1  0.78754700  0.50000000  0.00000000  1
  Li  Li22  1  0.00000000  0.50000000  0.78754700  1
  Li  Li23  1  0.21245300  0.50000000  0.00000000  1
  Br  Br24  1  0.25000000  0.75000000  0.75000000  1
  Br  Br25  1  0.25000000  0.25000000  0.75000000  1
  Br  Br26  1  0.00000000  0.00000000  0.00000000  1
  Br  Br27  1  0.25000000  0.25000000  0.25000000  1
  Br  Br28  1  0.25000000  0.75000000  0.25000000  1
  Br  Br29  1  0.00000000  0.50000000  0.50000000  1
  Br  Br30  1  0.75000000  0.75000000  0.25000000  1
  Br  Br31  1  0.75000000  0.25000000  0.25000000  1
  Br  Br32  1  0.50000000  0.00000000  0.50000000  1
  Br  Br33  1  0.75000000  0.25000000  0.75000000  1
  Br  Br34  1  0.75000000  0.75000000  0.75000000  1
  Br  Br35  1  0.50000000  0.50000000  0.00000000  1
  N  N36  1  0.50000000  0.00000000  0.00000000  1
  N  N37  1  0.50000000  0.50000000  0.50000000  1
  N  N38  1  0.00000000  0.00000000  0.50000000  1
  N  N39  1  0.00000000  0.50000000  0.00000000  1
