# generated using pymatgen
data_TiP2O7
_symmetry_space_group_name_H-M   'P 1'
_cell_length_a   4.91680000
_cell_length_b   8.13222500
_cell_length_c   7.03485598
_cell_angle_alpha   90.00000000
_cell_angle_beta   105.78907853
_cell_angle_gamma   90.00000000
_symmetry_Int_Tables_number   1
_chemical_formula_structural   TiP2O7
_chemical_formula_sum   'Ti2 P4 O14'
_cell_volume   270.67243549
_cell_formula_units_Z   2
loop_
 _symmetry_equiv_pos_site_id
 _symmetry_equiv_pos_as_xyz
  1  'x, y, z'
loop_
 _atom_site_type_symbol
 _atom_site_label
 _atom_site_symmetry_multiplicity
 _atom_site_fract_x
 _atom_site_fract_y
 _atom_site_fract_z
 _atom_site_occupancy
  Ti  Ti0  1  0.20990500  0.45099400  0.72777200  1
  Ti  Ti1  1  0.79009500  0.95099400  0.27222800  1
  P  P2  1  0.38958100  0.13209400  0.50998300  1
  P  P3  1  0.24563100  0.71529000  0.10667500  1
  P  P4  1  0.75436900  0.21529000  0.89332500  1
  P  P5  1  0.61041900  0.63209400  0.49001700  1
  O  O6  1  0.01254800  0.27443500  0.83281300  1
  O  O7  1  0.16110900  0.61101700  0.91933800  1
  O  O8  1  0.14965800  0.00694900  0.46053800  1
  O  O9  1  0.27954500  0.30667800  0.52274800  1
  O  O10  1  0.42129600  0.62151000  0.62969100  1
  O  O11  1  0.55591900  0.35806300  0.90585700  1
  O  O12  1  0.58104600  0.08692200  0.72887800  1
  O  O13  1  0.41895400  0.58692200  0.27112200  1
  O  O14  1  0.44408100  0.85806300  0.09414300  1
  O  O15  1  0.57870400  0.12151000  0.37030900  1
  O  O16  1  0.72045500  0.80667800  0.47725200  1
  O  O17  1  0.85034200  0.50694900  0.53946200  1
  O  O18  1  0.83889100  0.11101700  0.08066200  1
  O  O19  1  0.98745200  0.77443500  0.16718700  1
