# generated using pymatgen
data_Sr2P6O17
_symmetry_space_group_name_H-M   'P 1'
_cell_length_a   7.30637700
_cell_length_b   13.53360500
_cell_length_c   7.34633933
_cell_angle_alpha   90.00000000
_cell_angle_beta   105.37077928
_cell_angle_gamma   90.00000000
_symmetry_Int_Tables_number   1
_chemical_formula_structural   Sr2P6O17
_chemical_formula_sum   'Sr4 P12 O34'
_cell_volume   700.43448358
_cell_formula_units_Z   2
loop_
 _symmetry_equiv_pos_site_id
 _symmetry_equiv_pos_as_xyz
  1  'x, y, z'
loop_
 _atom_site_type_symbol
 _atom_site_label
 _atom_site_symmetry_multiplicity
 _atom_site_fract_x
 _atom_site_fract_y
 _atom_site_fract_z
 _atom_site_occupancy
  Sr  Sr0  1  0.81464600  0.78248900  0.12539800  1
  Sr  Sr1  1  0.18535400  0.28248900  0.87460200  1
  Sr  Sr2  1  0.21675200  0.99961500  0.17579700  1
  Sr  Sr3  1  0.78324800  0.49961500  0.82420300  1
  P  P4  1  0.67043900  0.75098700  0.61727400  1
  P  P5  1  0.32956100  0.25098700  0.38272600  1
  P  P6  1  0.65740200  0.96488700  0.61689100  1
  P  P7  1  0.34259800  0.46488700  0.38310900  1
  P  P8  1  0.01021800  0.06308800  0.59934900  1
  P  P9  1  0.98978200  0.56308800  0.40065100  1
  P  P10  1  0.76148700  0.24276800  0.47206200  1
  P  P11  1  0.23851300  0.74276800  0.52793800  1
  P  P12  1  0.73383500  0.27108900  0.04929100  1
  P  P13  1  0.26616500  0.77108900  0.95070900  1
  P  P14  1  0.68048500  0.04977700  0.00081400  1
  P  P15  1  0.31951500  0.54977700  0.99918600  1
  O  O16  1  0.74874700  0.68812000  0.78814100  1
  O  O17  1  0.25125300  0.18812000  0.21185900  1
  O  O18  1  0.76254700  0.76154600  0.46133300  1
  O  O19  1  0.23745300  0.26154600  0.53866700  1
  O  O20  1  0.64738700  0.85994900  0.71247800  1
  O  O21  1  0.35261300  0.35994900  0.28752200  1
  O  O22  1  0.51902200  0.97689200  0.43243800  1
  O  O23  1  0.48097800  0.47689200  0.56756200  1
  O  O24  1  0.87235700  0.96935000  0.61118300  1
  O  O25  1  0.12764300  0.46935000  0.38881700  1
  O  O26  1  0.13820300  0.03147600  0.48483600  1
  O  O27  1  0.86179700  0.53147600  0.51516400  1
  O  O28  1  0.07962900  0.10499300  0.79437000  1
  O  O29  1  0.92037100  0.60499300  0.20563000  1
  O  O30  1  0.84690600  0.13636600  0.46730300  1
  O  O31  1  0.15309400  0.63636600  0.53269700  1
  O  O32  1  0.36790300  0.54293800  0.23271400  1
  O  O33  1  0.63209700  0.04293800  0.76728600  1
  O  O34  1  0.16794000  0.47472900  0.91732600  1
  O  O35  1  0.83206000  0.97472900  0.08267400  1
  O  O36  1  0.50482400  0.55198000  0.95293600  1
  O  O37  1  0.49517600  0.05198000  0.04706400  1
  O  O38  1  0.21188400  0.65612100  0.96449900  1
  O  O39  1  0.78811600  0.15612100  0.03550100  1
  O  O40  1  0.10880800  0.83214000  0.98825100  1
  O  O41  1  0.89119200  0.33214000  0.01174900  1
  O  O42  1  0.46589700  0.79308400  0.05524500  1
  O  O43  1  0.53410300  0.29308400  0.94475500  1
  O  O44  1  0.24688400  0.78780500  0.72550600  1
  O  O45  1  0.75311600  0.28780500  0.27449400  1
  O  O46  1  0.44972200  0.72052900  0.52409900  1
  O  O47  1  0.55027800  0.22052900  0.47590100  1
  O  O48  1  0.13864400  0.80708200  0.37050900  1
  O  O49  1  0.86135600  0.30708200  0.62949100  1
