# generated using pymatgen
data_Ba3In2O6
_symmetry_space_group_name_H-M   'P 1'
_cell_length_a   4.25767000
_cell_length_b   4.25767000
_cell_length_c   21.98268800
_cell_angle_alpha   90.00000000
_cell_angle_beta   90.00000000
_cell_angle_gamma   90.00000000
_symmetry_Int_Tables_number   1
_chemical_formula_structural   Ba3In2O6
_chemical_formula_sum   'Ba6 In4 O12'
_cell_volume   398.49675656
_cell_formula_units_Z   2
loop_
 _symmetry_equiv_pos_site_id
 _symmetry_equiv_pos_as_xyz
  1  'x, y, z'
loop_
 _atom_site_type_symbol
 _atom_site_label
 _atom_site_symmetry_multiplicity
 _atom_site_fract_x
 _atom_site_fract_y
 _atom_site_fract_z
 _atom_site_occupancy
  Ba  Ba0  1  0.50000000  0.50000000  0.18302100  1
  Ba  Ba1  1  0.00000000  0.00000000  0.31697900  1
  Ba  Ba2  1  0.50000000  0.50000000  0.00000000  1
  Ba  Ba3  1  0.00000000  0.00000000  0.68302100  1
  Ba  Ba4  1  0.50000000  0.50000000  0.81697900  1
  Ba  Ba5  1  0.00000000  0.00000000  0.50000000  1
  In  In6  1  0.50000000  0.50000000  0.39716300  1
  In  In7  1  0.00000000  0.00000000  0.10283700  1
  In  In8  1  0.00000000  0.00000000  0.89716300  1
  In  In9  1  0.50000000  0.50000000  0.60283700  1
  O  O10  1  0.50000000  0.50000000  0.30137600  1
  O  O11  1  0.00000000  0.00000000  0.19862400  1
  O  O12  1  0.50000000  0.00000000  0.41608700  1
  O  O13  1  0.00000000  0.50000000  0.41608700  1
  O  O14  1  0.00000000  0.50000000  0.08391300  1
  O  O15  1  0.50000000  0.00000000  0.08391300  1
  O  O16  1  0.00000000  0.00000000  0.80137600  1
  O  O17  1  0.50000000  0.50000000  0.69862400  1
  O  O18  1  0.00000000  0.50000000  0.91608700  1
  O  O19  1  0.50000000  0.00000000  0.91608700  1
  O  O20  1  0.50000000  0.00000000  0.58391300  1
  O  O21  1  0.00000000  0.50000000  0.58391300  1
