# generated using pymatgen
data_MgH12SO9
_symmetry_space_group_name_H-M   'P 1'
_cell_length_a   8.84232456
_cell_length_b   8.84232456
_cell_length_c   9.16390958
_cell_angle_alpha   90.00000000
_cell_angle_beta   90.00000000
_cell_angle_gamma   120.00000000
_symmetry_Int_Tables_number   1
_chemical_formula_structural   MgH12SO9
_chemical_formula_sum   'Mg3 H36 S3 O27'
_cell_volume   620.50363607
_cell_formula_units_Z   3
loop_
 _symmetry_equiv_pos_site_id
 _symmetry_equiv_pos_as_xyz
  1  'x, y, z'
loop_
 _atom_site_type_symbol
 _atom_site_label
 _atom_site_symmetry_multiplicity
 _atom_site_fract_x
 _atom_site_fract_y
 _atom_site_fract_z
 _atom_site_occupancy
  Mg  Mg0  1  0.00000000  0.00000000  0.99090300  1
  Mg  Mg1  1  0.66666667  0.33333333  0.32423633  1
  Mg  Mg2  1  0.33333333  0.66666667  0.65756967  1
  H  H3  1  0.73477000  0.65246400  0.44959100  1
  H  H4  1  0.34753600  0.08230600  0.44959100  1
  H  H5  1  0.91769400  0.26523000  0.44959100  1
  H  H6  1  0.02280900  0.18059800  0.24299700  1
  H  H7  1  0.81940200  0.84221100  0.24299700  1
  H  H8  1  0.15778900  0.97719100  0.24299700  1
  H  H9  1  0.23795400  0.36258500  0.49528600  1
  H  H10  1  0.63741500  0.87536900  0.49528600  1
  H  H11  1  0.12463100  0.76204600  0.49528600  1
  H  H12  1  0.44697133  0.48147167  0.49817567  1
  H  H13  1  0.51852833  0.96549967  0.49817567  1
  H  H14  1  0.03450033  0.55302867  0.49817567  1
  H  H15  1  0.40143667  0.98579733  0.78292433  1
  H  H16  1  0.01420267  0.41563933  0.78292433  1
  H  H17  1  0.58436067  0.59856333  0.78292433  1
  H  H18  1  0.68947567  0.51393133  0.57633033  1
  H  H19  1  0.48606867  0.17554433  0.57633033  1
  H  H20  1  0.82445567  0.31052433  0.57633033  1
  H  H21  1  0.90462067  0.69591833  0.82861933  1
  H  H22  1  0.30408167  0.20870233  0.82861933  1
  H  H23  1  0.79129767  0.09537933  0.82861933  1
  H  H24  1  0.11363800  0.81480500  0.83150900  1
  H  H25  1  0.18519500  0.29883300  0.83150900  1
  H  H26  1  0.70116700  0.88636200  0.83150900  1
  H  H27  1  0.06810333  0.31913067  0.11625767  1
  H  H28  1  0.68086933  0.74897267  0.11625767  1
  H  H29  1  0.25102733  0.93189667  0.11625767  1
  H  H30  1  0.35614233  0.84726467  0.90966367  1
  H  H31  1  0.15273533  0.50887767  0.90966367  1
  H  H32  1  0.49112233  0.64385767  0.90966367  1
  H  H33  1  0.57128733  0.02925167  0.16195267  1
  H  H34  1  0.97074833  0.54203567  0.16195267  1
  H  H35  1  0.45796433  0.42871267  0.16195267  1
  H  H36  1  0.78030467  0.14813833  0.16484233  1
  H  H37  1  0.85186167  0.63216633  0.16484233  1
  H  H38  1  0.36783367  0.21969533  0.16484233  1
  S  S39  1  0.00000000  0.00000000  0.49534900  1
  S  S40  1  0.66666667  0.33333333  0.82868233  1
  S  S41  1  0.33333333  0.66666667  0.16201567  1
  O  O42  1  0.66549267  0.52399633  0.47026533  1
  O  O43  1  0.47600367  0.14149633  0.47026533  1
  O  O44  1  0.85850367  0.33450733  0.47026533  1
  O  O45  1  0.33714733  0.46955667  0.53774767  1
  O  O46  1  0.53044333  0.86759067  0.53774767  1
  O  O47  1  0.13240933  0.66285267  0.53774767  1
  O  O48  1  0.04944267  0.17887833  0.42399333  1
  O  O49  1  0.82112167  0.87056433  0.42399333  1
  O  O50  1  0.12943567  0.95055733  0.42399333  1
  O  O51  1  0.33215933  0.85732967  0.80359867  1
  O  O52  1  0.14267033  0.47482967  0.80359867  1
  O  O53  1  0.52517033  0.66784067  0.80359867  1
  O  O54  1  0.00381400  0.80289000  0.87108100  1
  O  O55  1  0.19711000  0.20092400  0.87108100  1
  O  O56  1  0.79907600  0.99618600  0.87108100  1
  O  O57  1  0.71610933  0.51221167  0.75732667  1
  O  O58  1  0.48778833  0.20389767  0.75732667  1
  O  O59  1  0.79610233  0.28389067  0.75732667  1
  O  O60  1  0.99882600  0.19066300  0.13693200  1
  O  O61  1  0.80933700  0.80816300  0.13693200  1
  O  O62  1  0.19183700  0.00117400  0.13693200  1
  O  O63  1  0.67048067  0.13622333  0.20441433  1
  O  O64  1  0.86377667  0.53425733  0.20441433  1
  O  O65  1  0.46574267  0.32951933  0.20441433  1
  O  O66  1  0.38277600  0.84554500  0.09066000  1
  O  O67  1  0.15445500  0.53723100  0.09066000  1
  O  O68  1  0.46276900  0.61722400  0.09066000  1
