# generated using pymatgen
data_Ca(SmS2)2
_symmetry_space_group_name_H-M   'P 1'
_cell_length_a   8.48919800
_cell_length_b   8.48919800
_cell_length_c   8.52707200
_cell_angle_alpha   90.00000000
_cell_angle_beta   90.00000000
_cell_angle_gamma   90.00000000
_symmetry_Int_Tables_number   1
_chemical_formula_structural   Ca(SmS2)2
_chemical_formula_sum   'Ca4 Sm8 S16'
_cell_volume   614.51608663
_cell_formula_units_Z   4
loop_
 _symmetry_equiv_pos_site_id
 _symmetry_equiv_pos_as_xyz
  1  'x, y, z'
loop_
 _atom_site_type_symbol
 _atom_site_label
 _atom_site_symmetry_multiplicity
 _atom_site_fract_x
 _atom_site_fract_y
 _atom_site_fract_z
 _atom_site_occupancy
  Ca  Ca0  1  0.00000000  0.50000000  0.25000000  1
  Ca  Ca1  1  0.00000000  0.00000000  0.00000000  1
  Ca  Ca2  1  0.50000000  0.00000000  0.75000000  1
  Ca  Ca3  1  0.50000000  0.50000000  0.50000000  1
  Sm  Sm4  1  0.25000000  0.62837600  0.87500000  1
  Sm  Sm5  1  0.12837600  0.25000000  0.62500000  1
  Sm  Sm6  1  0.25000000  0.87162400  0.37500000  1
  Sm  Sm7  1  0.37162400  0.25000000  0.12500000  1
  Sm  Sm8  1  0.75000000  0.12837600  0.37500000  1
  Sm  Sm9  1  0.62837600  0.75000000  0.12500000  1
  Sm  Sm10  1  0.75000000  0.37162400  0.87500000  1
  Sm  Sm11  1  0.87162400  0.75000000  0.62500000  1
  S  S12  1  0.82231950  0.42626350  0.55582150  1
  S  S13  1  0.07373650  0.17768050  0.30582150  1
  S  S14  1  0.32231950  0.57373650  0.19417850  1
  S  S15  1  0.42626350  0.17768050  0.44417850  1
  S  S16  1  0.42626350  0.32231950  0.80582150  1
  S  S17  1  0.17768050  0.92626350  0.69417850  1
  S  S18  1  0.07373650  0.32231950  0.94417850  1
  S  S19  1  0.67768050  0.07373650  0.05582150  1
  S  S20  1  0.32231950  0.92626350  0.05582150  1
  S  S21  1  0.57373650  0.67768050  0.80582150  1
  S  S22  1  0.82231950  0.07373650  0.69417850  1
  S  S23  1  0.92626350  0.67768050  0.94417850  1
  S  S24  1  0.92626350  0.82231950  0.30582150  1
  S  S25  1  0.67768050  0.42626350  0.19417850  1
  S  S26  1  0.57373650  0.82231950  0.44417850  1
  S  S27  1  0.17768050  0.57373650  0.55582150  1
