# generated using pymatgen
data_LiMn(PO3)4
_symmetry_space_group_name_H-M   'P 1'
_cell_length_a   9.41470800
_cell_length_b   13.58506800
_cell_length_c   7.75565011
_cell_angle_alpha   90.00000000
_cell_angle_beta   98.93778932
_cell_angle_gamma   90.00000000
_symmetry_Int_Tables_number   1
_chemical_formula_structural   LiMn(PO3)4
_chemical_formula_sum   'Li4 Mn4 P16 O48'
_cell_volume   979.89880998
_cell_formula_units_Z   4
loop_
 _symmetry_equiv_pos_site_id
 _symmetry_equiv_pos_as_xyz
  1  'x, y, z'
loop_
 _atom_site_type_symbol
 _atom_site_label
 _atom_site_symmetry_multiplicity
 _atom_site_fract_x
 _atom_site_fract_y
 _atom_site_fract_z
 _atom_site_occupancy
  Li  Li0  1  0.64524050  0.15035250  0.71684300  1
  Li  Li1  1  0.64524050  0.84964750  0.21684300  1
  Li  Li2  1  0.14524050  0.65035250  0.71684300  1
  Li  Li3  1  0.14524050  0.34964750  0.21684300  1
  Mn  Mn4  1  0.50397050  0.63487450  0.75611500  1
  Mn  Mn5  1  0.50397050  0.36512550  0.25611500  1
  Mn  Mn6  1  0.00397050  0.13487450  0.75611500  1
  Mn  Mn7  1  0.00397050  0.86512550  0.25611500  1
  P  P8  1  0.40518900  0.84105700  0.86790000  1
  P  P9  1  0.86508700  0.07499000  0.33617800  1
  P  P10  1  0.86508700  0.92501000  0.83617800  1
  P  P11  1  0.13144750  0.92323150  0.67851300  1
  P  P12  1  0.13144750  0.07676850  0.17851300  1
  P  P13  1  0.60052350  0.16057350  0.11267900  1
  P  P14  1  0.40518900  0.15894300  0.36790000  1
  P  P15  1  0.60052350  0.83942650  0.61267900  1
  P  P16  1  0.90518900  0.34105700  0.86790000  1
  P  P17  1  0.36508700  0.57499000  0.33617800  1
  P  P18  1  0.36508700  0.42501000  0.83617800  1
  P  P19  1  0.63144750  0.42323150  0.67851300  1
  P  P20  1  0.63144750  0.57676850  0.17851300  1
  P  P21  1  0.10052350  0.66057350  0.11267900  1
  P  P22  1  0.90518900  0.65894300  0.36790000  1
  P  P23  1  0.10052350  0.33942650  0.61267900  1
  O  O24  1  0.74228250  0.09608950  0.17516200  1
  O  O25  1  0.74228250  0.90391050  0.67516200  1
  O  O26  1  0.14801800  0.86797400  0.51711400  1
  O  O27  1  0.11487350  0.96581650  0.16251200  1
  O  O28  1  0.36639250  0.26590450  0.31100300  1
  O  O29  1  0.50098850  0.37757550  0.76505900  1
  O  O30  1  0.47990000  0.85777500  0.04633100  1
  O  O31  1  0.11487350  0.03418350  0.66251200  1
  O  O32  1  0.36639250  0.73409550  0.81100300  1
  O  O33  1  0.62726800  0.26547400  0.18172800  1
  O  O34  1  0.25942950  0.90291850  0.83667600  1
  O  O35  1  0.88109350  0.03703250  0.84272000  1
  O  O36  1  0.56071500  0.85621400  0.42403200  1
  O  O37  1  0.25942950  0.09708150  0.33667600  1
  O  O38  1  0.14801800  0.13202600  0.01711400  1
  O  O39  1  0.50098850  0.62242450  0.26505900  1
  O  O40  1  0.47990000  0.14222500  0.54633100  1
  O  O41  1  0.48815900  0.10957200  0.22215300  1
  O  O42  1  0.88109350  0.96296750  0.34272000  1
  O  O43  1  0.62726800  0.73452600  0.68172800  1
  O  O44  1  0.48815900  0.89042800  0.72215300  1
  O  O45  1  0.83973150  0.12475150  0.49980400  1
  O  O46  1  0.56071500  0.14378600  0.92403200  1
  O  O47  1  0.83973150  0.87524850  0.99980400  1
  O  O48  1  0.24228250  0.59608950  0.17516200  1
  O  O49  1  0.24228250  0.40391050  0.67516200  1
  O  O50  1  0.64801800  0.36797400  0.51711400  1
  O  O51  1  0.61487350  0.46581650  0.16251200  1
  O  O52  1  0.86639250  0.76590450  0.31100300  1
  O  O53  1  0.00098850  0.87757550  0.76505900  1
  O  O54  1  0.97990000  0.35777500  0.04633100  1
  O  O55  1  0.61487350  0.53418350  0.66251200  1
  O  O56  1  0.86639250  0.23409550  0.81100300  1
  O  O57  1  0.12726800  0.76547400  0.18172800  1
  O  O58  1  0.75942950  0.40291850  0.83667600  1
  O  O59  1  0.38109350  0.53703250  0.84272000  1
  O  O60  1  0.06071500  0.35621400  0.42403200  1
  O  O61  1  0.75942950  0.59708150  0.33667600  1
  O  O62  1  0.64801800  0.63202600  0.01711400  1
  O  O63  1  0.00098850  0.12242450  0.26505900  1
  O  O64  1  0.97990000  0.64222500  0.54633100  1
  O  O65  1  0.98815900  0.60957200  0.22215300  1
  O  O66  1  0.38109350  0.46296750  0.34272000  1
  O  O67  1  0.12726800  0.23452600  0.68172800  1
  O  O68  1  0.98815900  0.39042800  0.72215300  1
  O  O69  1  0.33973150  0.62475150  0.49980400  1
  O  O70  1  0.06071500  0.64378600  0.92403200  1
  O  O71  1  0.33973150  0.37524850  0.99980400  1
