# generated using pymatgen
data_Ta9(FeS3)2
_symmetry_space_group_name_H-M   'P 1'
_cell_length_a   10.43575977
_cell_length_b   10.43575977
_cell_length_c   6.59228500
_cell_angle_alpha   90.00000000
_cell_angle_beta   90.00000000
_cell_angle_gamma   120.00000000
_symmetry_Int_Tables_number   1
_chemical_formula_structural   Ta9(FeS3)2
_chemical_formula_sum   'Ta18 Fe4 S12'
_cell_volume   621.74850900
_cell_formula_units_Z   2
loop_
 _symmetry_equiv_pos_site_id
 _symmetry_equiv_pos_as_xyz
  1  'x, y, z'
loop_
 _atom_site_type_symbol
 _atom_site_label
 _atom_site_symmetry_multiplicity
 _atom_site_fract_x
 _atom_site_fract_y
 _atom_site_fract_z
 _atom_site_occupancy
  Ta  Ta0  1  0.78306167  0.52706633  0.00000000  1
  Ta  Ta1  1  0.74400467  0.21693833  0.00000000  1
  Ta  Ta2  1  0.47293367  0.25599533  0.00000000  1
  Ta  Ta3  1  0.25599533  0.47293367  0.00000000  1
  Ta  Ta4  1  0.52706633  0.78306167  0.00000000  1
  Ta  Ta5  1  0.21693833  0.74400467  0.00000000  1
  Ta  Ta6  1  0.73531767  0.19074333  0.50000000  1
  Ta  Ta7  1  0.80925667  0.54457433  0.50000000  1
  Ta  Ta8  1  0.45542567  0.26468233  0.50000000  1
  Ta  Ta9  1  0.26468233  0.45542567  0.50000000  1
  Ta  Ta10  1  0.54457433  0.80925667  0.50000000  1
  Ta  Ta11  1  0.19074333  0.73531767  0.50000000  1
  Ta  Ta12  1  0.45988950  0.00000000  0.75398600  1
  Ta  Ta13  1  0.54011050  0.54011050  0.24601400  1
  Ta  Ta14  1  0.00000000  0.45988950  0.24601400  1
  Ta  Ta15  1  0.00000000  0.45988950  0.75398600  1
  Ta  Ta16  1  0.54011050  0.54011050  0.75398600  1
  Ta  Ta17  1  0.45988950  0.00000000  0.24601400  1
  Fe  Fe18  1  0.66666667  0.33333333  0.28316300  1
  Fe  Fe19  1  0.66666667  0.33333333  0.71683700  1
  Fe  Fe20  1  0.33333333  0.66666667  0.71683700  1
  Fe  Fe21  1  0.33333333  0.66666667  0.28316300  1
  S  S22  1  0.70115950  0.00000000  0.76645800  1
  S  S23  1  0.29884050  0.29884050  0.23354200  1
  S  S24  1  0.00000000  0.70115950  0.23354200  1
  S  S25  1  0.00000000  0.70115950  0.76645800  1
  S  S26  1  0.29884050  0.29884050  0.76645800  1
  S  S27  1  0.70115950  0.00000000  0.23354200  1
  S  S28  1  0.00000000  0.27910250  0.50000000  1
  S  S29  1  0.72089750  0.72089750  0.50000000  1
  S  S30  1  0.27910250  0.00000000  0.50000000  1
  S  S31  1  0.00000000  0.27673350  0.00000000  1
  S  S32  1  0.72326650  0.72326650  0.00000000  1
  S  S33  1  0.27673350  0.00000000  0.00000000  1
