# generated using pymatgen
data_LiMn4(PO4)3
_symmetry_space_group_name_H-M   'P 1'
_cell_length_a   8.65953807
_cell_length_b   8.65953807
_cell_length_c   25.23832252
_cell_angle_alpha   90.00000000
_cell_angle_beta   90.00000000
_cell_angle_gamma   120.00000000
_symmetry_Int_Tables_number   1
_chemical_formula_structural   LiMn4(PO4)3
_chemical_formula_sum   'Li6 Mn24 P18 O72'
_cell_volume   1639.00609794
_cell_formula_units_Z   6
loop_
 _symmetry_equiv_pos_site_id
 _symmetry_equiv_pos_as_xyz
  1  'x, y, z'
loop_
 _atom_site_type_symbol
 _atom_site_label
 _atom_site_symmetry_multiplicity
 _atom_site_fract_x
 _atom_site_fract_y
 _atom_site_fract_z
 _atom_site_occupancy
  Li  Li0  1  0.66666667  0.33333333  0.29088833  1
  Li  Li1  1  0.33333333  0.66666667  0.12422167  1
  Li  Li2  1  0.33333333  0.66666667  0.62422167  1
  Li  Li3  1  0.00000000  0.00000000  0.45755500  1
  Li  Li4  1  0.00000000  0.00000000  0.95755500  1
  Li  Li5  1  0.66666667  0.33333333  0.79088833  1
  Mn  Mn6  1  0.31671033  0.26877767  0.01373767  1
  Mn  Mn7  1  0.73122233  0.04793267  0.01373767  1
  Mn  Mn8  1  0.66666667  0.33333333  0.12151233  1
  Mn  Mn9  1  0.06455567  0.34995633  0.18040433  1
  Mn  Mn10  1  0.95206733  0.68328967  0.01373767  1
  Mn  Mn11  1  0.28540067  0.93544433  0.18040433  1
  Mn  Mn12  1  0.65004367  0.71459933  0.18040433  1
  Mn  Mn13  1  0.00000000  0.00000000  0.28817900  1
  Mn  Mn14  1  0.98337700  0.60211100  0.34707100  1
  Mn  Mn15  1  0.39788900  0.38126600  0.34707100  1
  Mn  Mn16  1  0.33333333  0.66666667  0.45484567  1
  Mn  Mn17  1  0.73122233  0.68328967  0.51373767  1
  Mn  Mn18  1  0.61873400  0.01662300  0.34707100  1
  Mn  Mn19  1  0.95206733  0.26877767  0.51373767  1
  Mn  Mn20  1  0.31671033  0.04793267  0.51373767  1
  Mn  Mn21  1  0.66666667  0.33333333  0.62151233  1
  Mn  Mn22  1  0.65004367  0.93544433  0.68040433  1
  Mn  Mn23  1  0.06455567  0.71459933  0.68040433  1
  Mn  Mn24  1  0.00000000  0.00000000  0.78817900  1
  Mn  Mn25  1  0.39788900  0.01662300  0.84707100  1
  Mn  Mn26  1  0.28540067  0.34995633  0.68040433  1
  Mn  Mn27  1  0.61873400  0.60211100  0.84707100  1
  Mn  Mn28  1  0.98337700  0.38126600  0.84707100  1
  Mn  Mn29  1  0.33333333  0.66666667  0.95484567  1
  P  P30  1  0.03321800  0.37326200  0.05020600  1
  P  P31  1  0.96007133  0.63344867  0.21687267  1
  P  P32  1  0.36655133  0.32662267  0.21687267  1
  P  P33  1  0.62673800  0.65995600  0.05020600  1
  P  P34  1  0.34004400  0.96678200  0.05020600  1
  P  P35  1  0.67337733  0.03992867  0.21687267  1
  P  P36  1  0.69988467  0.70659533  0.38353933  1
  P  P37  1  0.62673800  0.96678200  0.55020600  1
  P  P38  1  0.03321800  0.65995600  0.55020600  1
  P  P39  1  0.29340467  0.99328933  0.38353933  1
  P  P40  1  0.00671067  0.30011533  0.38353933  1
  P  P41  1  0.34004400  0.37326200  0.55020600  1
  P  P42  1  0.36655133  0.03992867  0.71687267  1
  P  P43  1  0.29340467  0.30011533  0.88353933  1
  P  P44  1  0.69988467  0.99328933  0.88353933  1
  P  P45  1  0.96007133  0.32662267  0.71687267  1
  P  P46  1  0.67337733  0.63344867  0.71687267  1
  P  P47  1  0.00671067  0.70659533  0.88353933  1
  O  O48  1  0.45527167  0.17206833  0.06172633  1
  O  O49  1  0.42463633  0.21984867  0.17948667  1
  O  O50  1  0.78015133  0.20478767  0.17948667  1
  O  O51  1  0.82793167  0.28320333  0.06172633  1
  O  O52  1  0.71679667  0.54472833  0.06172633  1
  O  O53  1  0.05631800  0.22726800  0.02189200  1
  O  O54  1  0.79521233  0.57536367  0.17948667  1
  O  O55  1  0.16126500  0.21139500  0.22839300  1
  O  O56  1  0.90406100  0.52526500  0.26854200  1
  O  O57  1  0.14140167  0.42927233  0.10187533  1
  O  O58  1  0.09130300  0.53812100  0.01282000  1
  O  O59  1  0.10606533  0.61034867  0.18855867  1
  O  O60  1  0.47473500  0.37879600  0.26854200  1
  O  O61  1  0.38965133  0.49571667  0.18855867  1
  O  O62  1  0.46187900  0.55318200  0.01282000  1
  O  O63  1  0.17095000  0.94368200  0.02189200  1
  O  O64  1  0.28787067  0.85859833  0.10187533  1
  O  O65  1  0.57072767  0.71212933  0.10187533  1
  O  O66  1  0.44681800  0.90869700  0.01282000  1
  O  O67  1  0.50428333  0.89393467  0.18855867  1
  O  O68  1  0.77273200  0.82905000  0.02189200  1
  O  O69  1  0.62120400  0.09593900  0.26854200  1
  O  O70  1  0.78860500  0.94987000  0.22839300  1
  O  O71  1  0.05013000  0.83873500  0.22839300  1
  O  O72  1  0.12193833  0.50540167  0.39505967  1
  O  O73  1  0.09130300  0.55318200  0.51282000  1
  O  O74  1  0.44681800  0.53812100  0.51282000  1
  O  O75  1  0.49459833  0.61653667  0.39505967  1
  O  O76  1  0.38346333  0.87806167  0.39505967  1
  O  O77  1  0.72298467  0.56060133  0.35522533  1
  O  O78  1  0.46187900  0.90869700  0.51282000  1
  O  O79  1  0.82793167  0.54472833  0.56172633  1
  O  O80  1  0.57072767  0.85859833  0.60187533  1
  O  O81  1  0.80806833  0.76260567  0.43520867  1
  O  O82  1  0.75796967  0.87145433  0.34615333  1
  O  O83  1  0.77273200  0.94368200  0.52189200  1
  O  O84  1  0.14140167  0.71212933  0.60187533  1
  O  O85  1  0.05631800  0.82905000  0.52189200  1
  O  O86  1  0.12854567  0.88651533  0.34615333  1
  O  O87  1  0.83761667  0.27701533  0.35522533  1
  O  O88  1  0.95453733  0.19193167  0.43520867  1
  O  O89  1  0.23739433  0.04546267  0.43520867  1
  O  O90  1  0.11348467  0.24203033  0.34615333  1
  O  O91  1  0.17095000  0.22726800  0.52189200  1
  O  O92  1  0.43939867  0.16238333  0.35522533  1
  O  O93  1  0.28787067  0.42927233  0.60187533  1
  O  O94  1  0.45527167  0.28320333  0.56172633  1
  O  O95  1  0.71679667  0.17206833  0.56172633  1
  O  O96  1  0.78860500  0.83873500  0.72839300  1
  O  O97  1  0.75796967  0.88651533  0.84615333  1
  O  O98  1  0.11348467  0.87145433  0.84615333  1
  O  O99  1  0.16126500  0.94987000  0.72839300  1
  O  O100  1  0.05013000  0.21139500  0.72839300  1
  O  O101  1  0.38965133  0.89393467  0.68855867  1
  O  O102  1  0.12854567  0.24203033  0.84615333  1
  O  O103  1  0.49459833  0.87806167  0.89505967  1
  O  O104  1  0.23739433  0.19193167  0.93520867  1
  O  O105  1  0.47473500  0.09593900  0.76854200  1
  O  O106  1  0.42463633  0.20478767  0.67948667  1
  O  O107  1  0.43939867  0.27701533  0.85522533  1
  O  O108  1  0.80806833  0.04546267  0.93520867  1
  O  O109  1  0.72298467  0.16238333  0.85522533  1
  O  O110  1  0.79521233  0.21984867  0.67948667  1
  O  O111  1  0.50428333  0.61034867  0.68855867  1
  O  O112  1  0.62120400  0.52526500  0.76854200  1
  O  O113  1  0.90406100  0.37879600  0.76854200  1
  O  O114  1  0.78015133  0.57536367  0.67948667  1
  O  O115  1  0.83761667  0.56060133  0.85522533  1
  O  O116  1  0.10606533  0.49571667  0.68855867  1
  O  O117  1  0.95453733  0.76260567  0.93520867  1
  O  O118  1  0.12193833  0.61653667  0.89505967  1
  O  O119  1  0.38346333  0.50540167  0.89505967  1
