# generated using pymatgen
data_BaCeO3
_symmetry_space_group_name_H-M   'P 1'
_cell_length_a   6.27355600
_cell_length_b   6.32287600
_cell_length_c   8.85167200
_cell_angle_alpha   90.00000000
_cell_angle_beta   90.00000000
_cell_angle_gamma   90.00000000
_symmetry_Int_Tables_number   1
_chemical_formula_structural   BaCeO3
_chemical_formula_sum   'Ba4 Ce4 O12'
_cell_volume   351.11853559
_cell_formula_units_Z   4
loop_
 _symmetry_equiv_pos_site_id
 _symmetry_equiv_pos_as_xyz
  1  'x, y, z'
loop_
 _atom_site_type_symbol
 _atom_site_label
 _atom_site_symmetry_multiplicity
 _atom_site_fract_x
 _atom_site_fract_y
 _atom_site_fract_z
 _atom_site_occupancy
  Ba  Ba0  1  0.00000000  0.01024100  0.75000000  1
  Ba  Ba1  1  0.00000000  0.98975900  0.25000000  1
  Ba  Ba2  1  0.50000000  0.51024100  0.25000000  1
  Ba  Ba3  1  0.50000000  0.48975900  0.75000000  1
  Ce  Ce4  1  0.50000000  0.00000000  0.00000000  1
  Ce  Ce5  1  0.50000000  0.00000000  0.50000000  1
  Ce  Ce6  1  0.00000000  0.50000000  0.50000000  1
  Ce  Ce7  1  0.00000000  0.50000000  0.00000000  1
  O  O8  1  0.25000000  0.25000000  0.54575600  1
  O  O9  1  0.25000000  0.75000000  0.45424400  1
  O  O10  1  0.75000000  0.75000000  0.45424400  1
  O  O11  1  0.75000000  0.25000000  0.54575600  1
  O  O12  1  0.50000000  0.91894800  0.75000000  1
  O  O13  1  0.50000000  0.08105200  0.25000000  1
  O  O14  1  0.75000000  0.75000000  0.04575600  1
  O  O15  1  0.75000000  0.25000000  0.95424400  1
  O  O16  1  0.25000000  0.25000000  0.95424400  1
  O  O17  1  0.25000000  0.75000000  0.04575600  1
  O  O18  1  0.00000000  0.41894800  0.25000000  1
  O  O19  1  0.00000000  0.58105200  0.75000000  1
