# generated using pymatgen
data_DyTlS2
_symmetry_space_group_name_H-M   'P 1'
_cell_length_a   4.03388602
_cell_length_b   4.03388602
_cell_length_c   22.59560347
_cell_angle_alpha   90.00000000
_cell_angle_beta   90.00000000
_cell_angle_gamma   120.00000000
_symmetry_Int_Tables_number   1
_chemical_formula_structural   DyTlS2
_chemical_formula_sum   'Dy3 Tl3 S6'
_cell_volume   318.42108764
_cell_formula_units_Z   3
loop_
 _symmetry_equiv_pos_site_id
 _symmetry_equiv_pos_as_xyz
  1  'x, y, z'
loop_
 _atom_site_type_symbol
 _atom_site_label
 _atom_site_symmetry_multiplicity
 _atom_site_fract_x
 _atom_site_fract_y
 _atom_site_fract_z
 _atom_site_occupancy
  Dy  Dy0  1  0.00000000  0.00000000  0.00000000  1
  Dy  Dy1  1  0.66666667  0.33333333  0.33333333  1
  Dy  Dy2  1  0.33333333  0.66666667  0.66666667  1
  Tl  Tl3  1  0.33333333  0.66666667  0.16666667  1
  Tl  Tl4  1  1.00000000  1.00000000  0.50000000  1
  Tl  Tl5  1  0.66666667  0.33333333  0.83333333  1
  S  S6  1  0.00000000  0.00000000  0.26745100  1
  S  S7  1  0.66666667  0.33333333  0.06588233  1
  S  S8  1  0.66666667  0.33333333  0.60078433  1
  S  S9  1  0.33333333  0.66666667  0.39921567  1
  S  S10  1  0.33333333  0.66666667  0.93411767  1
  S  S11  1  0.00000000  0.00000000  0.73254900  1
