# generated using pymatgen
data_Y2S3
_symmetry_space_group_name_H-M   'P 1'
_cell_length_a   8.35316800
_cell_length_b   8.35316800
_cell_length_c   24.96047400
_cell_angle_alpha   90.00000000
_cell_angle_beta   90.00000000
_cell_angle_gamma   90.00000000
_symmetry_Int_Tables_number   1
_chemical_formula_structural   Y2S3
_chemical_formula_sum   'Y32 S48'
_cell_volume   1741.62744783
_cell_formula_units_Z   16
loop_
 _symmetry_equiv_pos_site_id
 _symmetry_equiv_pos_as_xyz
  1  'x, y, z'
loop_
 _atom_site_type_symbol
 _atom_site_label
 _atom_site_symmetry_multiplicity
 _atom_site_fract_x
 _atom_site_fract_y
 _atom_site_fract_z
 _atom_site_occupancy
  Y  Y0  1  0.23970250  0.13953950  0.71138300  1
  Y  Y1  1  0.76029750  0.86046050  0.71138300  1
  Y  Y2  1  0.50000000  0.50000000  0.66488800  1
  Y  Y3  1  0.88160250  0.25000000  0.62500000  1
  Y  Y4  1  0.76029750  0.63953950  0.53861700  1
  Y  Y5  1  0.50000000  0.00000000  0.58511200  1
  Y  Y6  1  0.11839750  0.75000000  0.62500000  1
  Y  Y7  1  0.23970250  0.36046050  0.53861700  1
  Y  Y8  1  0.86046050  0.26029750  0.96138300  1
  Y  Y9  1  0.50000000  0.00000000  0.91488800  1
  Y  Y10  1  0.75000000  0.61839750  0.87500000  1
  Y  Y11  1  0.25000000  0.38160250  0.87500000  1
  Y  Y12  1  0.13953950  0.73970250  0.96138300  1
  Y  Y13  1  0.00000000  0.00000000  0.83511200  1
  Y  Y14  1  0.36046050  0.73970250  0.78861700  1
  Y  Y15  1  0.63953950  0.26029750  0.78861700  1
  Y  Y16  1  0.73970250  0.63953950  0.21138300  1
  Y  Y17  1  0.26029750  0.36046050  0.21138300  1
  Y  Y18  1  0.00000000  0.00000000  0.16488800  1
  Y  Y19  1  0.38160250  0.75000000  0.12500000  1
  Y  Y20  1  0.26029750  0.13953950  0.03861700  1
  Y  Y21  1  0.00000000  0.50000000  0.08511200  1
  Y  Y22  1  0.61839750  0.25000000  0.12500000  1
  Y  Y23  1  0.73970250  0.86046050  0.03861700  1
  Y  Y24  1  0.36046050  0.76029750  0.46138300  1
  Y  Y25  1  0.00000000  0.50000000  0.41488800  1
  Y  Y26  1  0.25000000  0.11839750  0.37500000  1
  Y  Y27  1  0.75000000  0.88160250  0.37500000  1
  Y  Y28  1  0.63953950  0.23970250  0.46138300  1
  Y  Y29  1  0.50000000  0.50000000  0.33511200  1
  Y  Y30  1  0.86046050  0.23970250  0.28861700  1
  Y  Y31  1  0.13953950  0.76029750  0.28861700  1
  S  S32  1  0.43455450  0.81935450  0.68436000  1
  S  S33  1  0.18373450  0.42983550  0.64380100  1
  S  S34  1  0.56544550  0.18064550  0.68436000  1
  S  S35  1  0.56544550  0.31935450  0.56564000  1
  S  S36  1  0.43455450  0.68064550  0.56564000  1
  S  S37  1  0.81626550  0.57016450  0.64380100  1
  S  S38  1  0.92079950  0.32617850  0.51732600  1
  S  S39  1  0.81626550  0.92983550  0.60619900  1
  S  S40  1  0.17382150  0.42079950  0.98267400  1
  S  S41  1  0.07920050  0.67382150  0.51732600  1
  S  S42  1  0.18373450  0.07016450  0.60619900  1
  S  S43  1  0.57016450  0.31626550  0.89380100  1
  S  S44  1  0.42983550  0.68373450  0.89380100  1
  S  S45  1  0.82617850  0.57920050  0.98267400  1
  S  S46  1  0.92983550  0.31626550  0.85619900  1
  S  S47  1  0.81935450  0.93455450  0.93436000  1
  S  S48  1  0.68064550  0.93455450  0.81564000  1
  S  S49  1  0.07016450  0.68373450  0.85619900  1
  S  S50  1  0.18064550  0.06544550  0.93436000  1
  S  S51  1  0.07920050  0.82617850  0.73267400  1
  S  S52  1  0.92079950  0.17382150  0.73267400  1
  S  S53  1  0.31935450  0.06544550  0.81564000  1
  S  S54  1  0.32617850  0.42079950  0.76732600  1
  S  S55  1  0.67382150  0.57920050  0.76732600  1
  S  S56  1  0.93455450  0.31935450  0.18436000  1
  S  S57  1  0.68373450  0.92983550  0.14380100  1
  S  S58  1  0.06544550  0.68064550  0.18436000  1
  S  S59  1  0.06544550  0.81935450  0.06564000  1
  S  S60  1  0.93455450  0.18064550  0.06564000  1
  S  S61  1  0.31626550  0.07016450  0.14380100  1
  S  S62  1  0.42079950  0.82617850  0.01732600  1
  S  S63  1  0.31626550  0.42983550  0.10619900  1
  S  S64  1  0.67382150  0.92079950  0.48267400  1
  S  S65  1  0.57920050  0.17382150  0.01732600  1
  S  S66  1  0.68373450  0.57016450  0.10619900  1
  S  S67  1  0.07016450  0.81626550  0.39380100  1
  S  S68  1  0.92983550  0.18373450  0.39380100  1
  S  S69  1  0.32617850  0.07920050  0.48267400  1
  S  S70  1  0.42983550  0.81626550  0.35619900  1
  S  S71  1  0.31935450  0.43455450  0.43436000  1
  S  S72  1  0.18064550  0.43455450  0.31564000  1
  S  S73  1  0.57016450  0.18373450  0.35619900  1
  S  S74  1  0.68064550  0.56544550  0.43436000  1
  S  S75  1  0.57920050  0.32617850  0.23267400  1
  S  S76  1  0.42079950  0.67382150  0.23267400  1
  S  S77  1  0.81935450  0.56544550  0.31564000  1
  S  S78  1  0.82617850  0.92079950  0.26732600  1
  S  S79  1  0.17382150  0.07920050  0.26732600  1
