# generated using pymatgen
data_LiCr2(PO4)3
_symmetry_space_group_name_H-M   'P 1'
_cell_length_a   8.35371920
_cell_length_b   8.36971448
_cell_length_c   8.71615783
_cell_angle_alpha   61.62657239
_cell_angle_beta   61.99717290
_cell_angle_gamma   60.27803417
_symmetry_Int_Tables_number   1
_chemical_formula_structural   LiCr2(PO4)3
_chemical_formula_sum   'Li2 Cr4 P6 O24'
_cell_volume   443.31119228
_cell_formula_units_Z   2
loop_
 _symmetry_equiv_pos_site_id
 _symmetry_equiv_pos_as_xyz
  1  'x, y, z'
loop_
 _atom_site_type_symbol
 _atom_site_label
 _atom_site_symmetry_multiplicity
 _atom_site_fract_x
 _atom_site_fract_y
 _atom_site_fract_z
 _atom_site_occupancy
  Li  Li0  1  0.46909768  0.17845668  0.57937033  1
  Li  Li1  1  0.53090232  0.82154332  0.42062967  1
  Cr  Cr2  1  0.65190606  0.14144557  0.07229859  1
  Cr  Cr3  1  0.14579096  0.64584803  0.56493197  1
  Cr  Cr4  1  0.85420904  0.35415197  0.43506803  1
  Cr  Cr5  1  0.34809394  0.85855443  0.92770141  1
  P  P6  1  0.02698477  0.25591562  0.75376631  1
  P  P7  1  0.74786165  0.97218409  0.74711580  1
  P  P8  1  0.25213835  0.02781591  0.25288420  1
  P  P9  1  0.97301523  0.74408438  0.24623369  1
  P  P10  1  0.53321706  0.46232696  0.25220317  1
  P  P11  1  0.46678294  0.53767304  0.74779683  1
  O  O12  1  0.69805978  0.47663803  0.27562906  1
  O  O13  1  0.51317312  0.37894821  0.91885836  1
  O  O14  1  0.04799365  0.17377756  0.30054317  1
  O  O15  1  0.76348195  0.88506859  0.24839062  1
  O  O16  1  0.23651805  0.11493141  0.75160938  1
  O  O17  1  0.35828252  0.46006432  0.43087541  1
  O  O18  1  0.48682688  0.62105179  0.08114164  1
  O  O19  1  0.59733176  0.25554416  0.24503479  1
  O  O20  1  0.59041331  0.90981394  0.76891978  1
  O  O21  1  0.88619495  0.19527952  0.94484526  1
  O  O22  1  0.64171748  0.53993568  0.56912459  1
  O  O23  1  0.71221627  0.17174442  0.59140119  1
  O  O24  1  0.00821591  0.46521792  0.70670238  1
  O  O25  1  0.40958669  0.09018606  0.23108022  1
  O  O26  1  0.71172019  0.99508881  0.92800288  1
  O  O27  1  0.95200635  0.82622244  0.69945683  1
  O  O28  1  0.40266824  0.74445584  0.75496521  1
  O  O29  1  0.28827981  0.00491119  0.07199712  1
  O  O30  1  0.98288644  0.23231331  0.61274852  1
  O  O31  1  0.99178409  0.53478208  0.29329762  1
  O  O32  1  0.28778373  0.82825558  0.40859881  1
  O  O33  1  0.30194022  0.52336197  0.72437094  1
  O  O34  1  0.11380505  0.80472048  0.05515474  1
  O  O35  1  0.01711356  0.76768669  0.38725148  1
