# generated using pymatgen
data_CaC2S2(OF)6
_symmetry_space_group_name_H-M   'P 1'
_cell_length_a   5.76698823
_cell_length_b   5.76698823
_cell_length_c   31.41495875
_cell_angle_alpha   90.00000000
_cell_angle_beta   90.00000000
_cell_angle_gamma   120.00000000
_symmetry_Int_Tables_number   1
_chemical_formula_structural   CaC2S2(OF)6
_chemical_formula_sum   'Ca3 C6 S6 O18 F18'
_cell_volume   904.82638514
_cell_formula_units_Z   3
loop_
 _symmetry_equiv_pos_site_id
 _symmetry_equiv_pos_as_xyz
  1  'x, y, z'
loop_
 _atom_site_type_symbol
 _atom_site_label
 _atom_site_symmetry_multiplicity
 _atom_site_fract_x
 _atom_site_fract_y
 _atom_site_fract_z
 _atom_site_occupancy
  Ca  Ca0  1  0.00000000  0.00000000  0.00000000  1
  Ca  Ca1  1  0.66666667  0.33333333  0.33333333  1
  Ca  Ca2  1  0.33333333  0.66666667  0.66666667  1
  C  C3  1  0.00000000  0.00000000  0.21989500  1
  C  C4  1  0.66666667  0.33333333  0.11343833  1
  C  C5  1  0.66666667  0.33333333  0.55322833  1
  C  C6  1  0.33333333  0.66666667  0.44677167  1
  C  C7  1  0.33333333  0.66666667  0.88656167  1
  C  C8  1  0.00000000  0.00000000  0.78010500  1
  S  S9  1  0.00000000  0.00000000  0.27948500  1
  S  S10  1  0.66666667  0.33333333  0.05384833  1
  S  S11  1  0.66666667  0.33333333  0.61281833  1
  S  S12  1  0.33333333  0.66666667  0.38718167  1
  S  S13  1  0.33333333  0.66666667  0.94615167  1
  S  S14  1  0.00000000  0.00000000  0.72051500  1
  O  O15  1  0.80616467  0.18961933  0.04245833  1
  O  O16  1  0.38345467  0.19383533  0.04245833  1
  O  O17  1  0.81038067  0.61654533  0.04245833  1
  O  O18  1  0.85628600  0.71678800  0.29087500  1
  O  O19  1  0.28321200  0.13949800  0.29087500  1
  O  O20  1  0.86050200  0.14371400  0.29087500  1
  O  O21  1  0.47283133  0.52295267  0.37579167  1
  O  O22  1  0.05012133  0.52716867  0.37579167  1
  O  O23  1  0.47704733  0.94987867  0.37579167  1
  O  O24  1  0.52295267  0.05012133  0.62420833  1
  O  O25  1  0.94987867  0.47283133  0.62420833  1
  O  O26  1  0.52716867  0.47704733  0.62420833  1
  O  O27  1  0.13949800  0.85628600  0.70912500  1
  O  O28  1  0.71678800  0.86050200  0.70912500  1
  O  O29  1  0.14371400  0.28321200  0.70912500  1
  O  O30  1  0.18961933  0.38345467  0.95754167  1
  O  O31  1  0.61654533  0.80616467  0.95754167  1
  O  O32  1  0.19383533  0.81038067  0.95754167  1
  F  F33  1  0.07976400  0.24899300  0.20535200  1
  F  F34  1  0.75100700  0.83077100  0.20535200  1
  F  F35  1  0.16922900  0.92023600  0.20535200  1
  F  F36  1  0.49743767  0.41309733  0.12798133  1
  F  F37  1  0.91565967  0.50256233  0.12798133  1
  F  F38  1  0.58690267  0.08434033  0.12798133  1
  F  F39  1  0.74643067  0.58232633  0.53868533  1
  F  F40  1  0.41767367  0.16410433  0.53868533  1
  F  F41  1  0.83589567  0.25356933  0.53868533  1
  F  F42  1  0.16410433  0.74643067  0.46131467  1
  F  F43  1  0.58232633  0.83589567  0.46131467  1
  F  F44  1  0.25356933  0.41767367  0.46131467  1
  F  F45  1  0.41309733  0.91565967  0.87201867  1
  F  F46  1  0.08434033  0.49743767  0.87201867  1
  F  F47  1  0.50256233  0.58690267  0.87201867  1
  F  F48  1  0.83077100  0.07976400  0.79464800  1
  F  F49  1  0.24899300  0.16922900  0.79464800  1
  F  F50  1  0.92023600  0.75100700  0.79464800  1
