# generated using pymatgen
data_Be(N3O7)2
_symmetry_space_group_name_H-M   'P 1'
_cell_length_a   6.35789000
_cell_length_b   13.77997000
_cell_length_c   24.97194000
_cell_angle_alpha   90.00000000
_cell_angle_beta   90.00000000
_cell_angle_gamma   90.00000000
_symmetry_Int_Tables_number   1
_chemical_formula_structural   Be(N3O7)2
_chemical_formula_sum   'Be8 N48 O112'
_cell_volume   2187.82995695
_cell_formula_units_Z   8
loop_
 _symmetry_equiv_pos_site_id
 _symmetry_equiv_pos_as_xyz
  1  'x, y, z'
loop_
 _atom_site_type_symbol
 _atom_site_label
 _atom_site_symmetry_multiplicity
 _atom_site_fract_x
 _atom_site_fract_y
 _atom_site_fract_z
 _atom_site_occupancy
  Be  Be0  1  0.40235900  0.00000000  0.50000000  1
  Be  Be1  1  0.65235900  0.25000000  0.75000000  1
  Be  Be2  1  0.90235900  0.00000000  0.00000000  1
  Be  Be3  1  0.15235900  0.25000000  0.25000000  1
  Be  Be4  1  0.90235900  0.50000000  0.50000000  1
  Be  Be5  1  0.15235900  0.75000000  0.75000000  1
  Be  Be6  1  0.40235900  0.50000000  0.00000000  1
  Be  Be7  1  0.65235900  0.75000000  0.25000000  1
  N  N8  1  0.68901250  0.09521450  0.55662300  1
  N  N9  1  0.68901250  0.40478550  0.94337700  1
  N  N10  1  0.93901250  0.15478550  0.80662300  1
  N  N11  1  0.93901250  0.34521450  0.69337700  1
  N  N12  1  0.63469300  0.09890350  0.94437550  1
  N  N13  1  0.63469300  0.40109650  0.55562450  1
  N  N14  1  0.38469300  0.15109650  0.69437550  1
  N  N15  1  0.38469300  0.34890350  0.80562450  1
  N  N16  1  0.23040000  0.47596600  0.68066300  1
  N  N17  1  0.23040000  0.02403400  0.81933700  1
  N  N18  1  0.98040000  0.27403400  0.93066300  1
  N  N19  1  0.98040000  0.22596600  0.56933700  1
  N  N20  1  0.18901250  0.09521450  0.05662300  1
  N  N21  1  0.18901250  0.40478550  0.44337700  1
  N  N22  1  0.43901250  0.15478550  0.30662300  1
  N  N23  1  0.43901250  0.34521450  0.19337700  1
  N  N24  1  0.13469300  0.09890350  0.44437550  1
  N  N25  1  0.13469300  0.40109650  0.05562450  1
  N  N26  1  0.88469300  0.15109650  0.19437550  1
  N  N27  1  0.88469300  0.34890350  0.30562450  1
  N  N28  1  0.73040000  0.47596600  0.18066300  1
  N  N29  1  0.73040000  0.02403400  0.31933700  1
  N  N30  1  0.48040000  0.27403400  0.43066300  1
  N  N31  1  0.48040000  0.22596600  0.06933700  1
  N  N32  1  0.18901250  0.59521450  0.55662300  1
  N  N33  1  0.18901250  0.90478550  0.94337700  1
  N  N34  1  0.43901250  0.65478550  0.80662300  1
  N  N35  1  0.43901250  0.84521450  0.69337700  1
  N  N36  1  0.13469300  0.59890350  0.94437550  1
  N  N37  1  0.13469300  0.90109650  0.55562450  1
  N  N38  1  0.88469300  0.65109650  0.69437550  1
  N  N39  1  0.88469300  0.84890350  0.80562450  1
  N  N40  1  0.73040000  0.97596600  0.68066300  1
  N  N41  1  0.73040000  0.52403400  0.81933700  1
  N  N42  1  0.48040000  0.77403400  0.93066300  1
  N  N43  1  0.48040000  0.72596600  0.56933700  1
  N  N44  1  0.68901250  0.59521450  0.05662300  1
  N  N45  1  0.68901250  0.90478550  0.44337700  1
  N  N46  1  0.93901250  0.65478550  0.30662300  1
  N  N47  1  0.93901250  0.84521450  0.19337700  1
  N  N48  1  0.63469300  0.59890350  0.44437550  1
  N  N49  1  0.63469300  0.90109650  0.05562450  1
  N  N50  1  0.38469300  0.65109650  0.19437550  1
  N  N51  1  0.38469300  0.84890350  0.30562450  1
  N  N52  1  0.23040000  0.97596600  0.18066300  1
  N  N53  1  0.23040000  0.52403400  0.31933700  1
  N  N54  1  0.98040000  0.77403400  0.43066300  1
  N  N55  1  0.98040000  0.72596600  0.06933700  1
  O  O56  1  0.54112600  0.03179650  0.55469350  1
  O  O57  1  0.54112600  0.46820350  0.94530650  1
  O  O58  1  0.79112600  0.21820350  0.80469350  1
  O  O59  1  0.79112600  0.28179650  0.69530650  1
  O  O60  1  0.76483000  0.13126800  0.51490000  1
  O  O61  1  0.76483000  0.36873200  0.98510000  1
  O  O62  1  0.01483000  0.11873200  0.76490000  1
  O  O63  1  0.01483000  0.38126800  0.73510000  1
  O  O64  1  0.75657100  0.11872950  0.60236850  1
  O  O65  1  0.75657100  0.38127050  0.89763150  1
  O  O66  1  0.00657100  0.13127050  0.85236850  1
  O  O67  1  0.00657100  0.36872950  0.64763150  1
  O  O68  1  0.78287250  0.09940150  0.98266600  1
  O  O69  1  0.78287250  0.40059850  0.51733400  1
  O  O70  1  0.53287250  0.15059850  0.73266600  1
  O  O71  1  0.53287250  0.34940150  0.76733400  1
  O  O72  1  0.58306100  0.01943000  0.92474700  1
  O  O73  1  0.58306100  0.48057000  0.57525300  1
  O  O74  1  0.33306100  0.23057000  0.67474700  1
  O  O75  1  0.33306100  0.26943000  0.82525300  1
  O  O76  1  0.55946300  0.17795650  0.93162350  1
  O  O77  1  0.55946300  0.32204350  0.56837650  1
  O  O78  1  0.30946300  0.07204350  0.68162350  1
  O  O79  1  0.30946300  0.42795650  0.81837650  1
  O  O80  1  0.39669250  0.45019400  0.67777650  1
  O  O81  1  0.39669250  0.04980600  0.82222350  1
  O  O82  1  0.14669250  0.29980600  0.92777650  1
  O  O83  1  0.14669250  0.20019400  0.57222350  1
  O  O84  1  0.04112600  0.03179650  0.05469350  1
  O  O85  1  0.04112600  0.46820350  0.44530650  1
  O  O86  1  0.29112600  0.21820350  0.30469350  1
  O  O87  1  0.29112600  0.28179650  0.19530650  1
  O  O88  1  0.26483000  0.13126800  0.01490000  1
  O  O89  1  0.26483000  0.36873200  0.48510000  1
  O  O90  1  0.51483000  0.11873200  0.26490000  1
  O  O91  1  0.51483000  0.38126800  0.23510000  1
  O  O92  1  0.25657100  0.11872950  0.10236850  1
  O  O93  1  0.25657100  0.38127050  0.39763150  1
  O  O94  1  0.50657100  0.13127050  0.35236850  1
  O  O95  1  0.50657100  0.36872950  0.14763150  1
  O  O96  1  0.28287250  0.09940150  0.48266600  1
  O  O97  1  0.28287250  0.40059850  0.01733400  1
  O  O98  1  0.03287250  0.15059850  0.23266600  1
  O  O99  1  0.03287250  0.34940150  0.26733400  1
  O  O100  1  0.08306100  0.01943000  0.42474700  1
  O  O101  1  0.08306100  0.48057000  0.07525300  1
  O  O102  1  0.83306100  0.23057000  0.17474700  1
  O  O103  1  0.83306100  0.26943000  0.32525300  1
  O  O104  1  0.05946300  0.17795650  0.43162350  1
  O  O105  1  0.05946300  0.32204350  0.06837650  1
  O  O106  1  0.80946300  0.07204350  0.18162350  1
  O  O107  1  0.80946300  0.42795650  0.31837650  1
  O  O108  1  0.89669250  0.45019400  0.17777650  1
  O  O109  1  0.89669250  0.04980600  0.32222350  1
  O  O110  1  0.64669250  0.29980600  0.42777650  1
  O  O111  1  0.64669250  0.20019400  0.07222350  1
  O  O112  1  0.04112600  0.53179650  0.55469350  1
  O  O113  1  0.04112600  0.96820350  0.94530650  1
  O  O114  1  0.29112600  0.71820350  0.80469350  1
  O  O115  1  0.29112600  0.78179650  0.69530650  1
  O  O116  1  0.26483000  0.63126800  0.51490000  1
  O  O117  1  0.26483000  0.86873200  0.98510000  1
  O  O118  1  0.51483000  0.61873200  0.76490000  1
  O  O119  1  0.51483000  0.88126800  0.73510000  1
  O  O120  1  0.25657100  0.61872950  0.60236850  1
  O  O121  1  0.25657100  0.88127050  0.89763150  1
  O  O122  1  0.50657100  0.63127050  0.85236850  1
  O  O123  1  0.50657100  0.86872950  0.64763150  1
  O  O124  1  0.28287250  0.59940150  0.98266600  1
  O  O125  1  0.28287250  0.90059850  0.51733400  1
  O  O126  1  0.03287250  0.65059850  0.73266600  1
  O  O127  1  0.03287250  0.84940150  0.76733400  1
  O  O128  1  0.08306100  0.51943000  0.92474700  1
  O  O129  1  0.08306100  0.98057000  0.57525300  1
  O  O130  1  0.83306100  0.73057000  0.67474700  1
  O  O131  1  0.83306100  0.76943000  0.82525300  1
  O  O132  1  0.05946300  0.67795650  0.93162350  1
  O  O133  1  0.05946300  0.82204350  0.56837650  1
  O  O134  1  0.80946300  0.57204350  0.68162350  1
  O  O135  1  0.80946300  0.92795650  0.81837650  1
  O  O136  1  0.89669250  0.95019400  0.67777650  1
  O  O137  1  0.89669250  0.54980600  0.82222350  1
  O  O138  1  0.64669250  0.79980600  0.92777650  1
  O  O139  1  0.64669250  0.70019400  0.57222350  1
  O  O140  1  0.54112600  0.53179650  0.05469350  1
  O  O141  1  0.54112600  0.96820350  0.44530650  1
  O  O142  1  0.79112600  0.71820350  0.30469350  1
  O  O143  1  0.79112600  0.78179650  0.19530650  1
  O  O144  1  0.76483000  0.63126800  0.01490000  1
  O  O145  1  0.76483000  0.86873200  0.48510000  1
  O  O146  1  0.01483000  0.61873200  0.26490000  1
  O  O147  1  0.01483000  0.88126800  0.23510000  1
  O  O148  1  0.75657100  0.61872950  0.10236850  1
  O  O149  1  0.75657100  0.88127050  0.39763150  1
  O  O150  1  0.00657100  0.63127050  0.35236850  1
  O  O151  1  0.00657100  0.86872950  0.14763150  1
  O  O152  1  0.78287250  0.59940150  0.48266600  1
  O  O153  1  0.78287250  0.90059850  0.01733400  1
  O  O154  1  0.53287250  0.65059850  0.23266600  1
  O  O155  1  0.53287250  0.84940150  0.26733400  1
  O  O156  1  0.58306100  0.51943000  0.42474700  1
  O  O157  1  0.58306100  0.98057000  0.07525300  1
  O  O158  1  0.33306100  0.73057000  0.17474700  1
  O  O159  1  0.33306100  0.76943000  0.32525300  1
  O  O160  1  0.55946300  0.67795650  0.43162350  1
  O  O161  1  0.55946300  0.82204350  0.06837650  1
  O  O162  1  0.30946300  0.57204350  0.18162350  1
  O  O163  1  0.30946300  0.92795650  0.31837650  1
  O  O164  1  0.39669250  0.95019400  0.17777650  1
  O  O165  1  0.39669250  0.54980600  0.32222350  1
  O  O166  1  0.14669250  0.79980600  0.42777650  1
  O  O167  1  0.14669250  0.70019400  0.07222350  1
