# generated using pymatgen
data_Li3TaO4
_symmetry_space_group_name_H-M   'P 1'
_cell_length_a   8.59198200
_cell_length_b   8.60351800
_cell_length_c   9.39920013
_cell_angle_alpha   90.00000000
_cell_angle_beta   116.95285446
_cell_angle_gamma   90.00000000
_symmetry_Int_Tables_number   1
_chemical_formula_structural   Li3TaO4
_chemical_formula_sum   'Li24 Ta8 O32'
_cell_volume   619.33141285
_cell_formula_units_Z   8
loop_
 _symmetry_equiv_pos_site_id
 _symmetry_equiv_pos_as_xyz
  1  'x, y, z'
loop_
 _atom_site_type_symbol
 _atom_site_label
 _atom_site_symmetry_multiplicity
 _atom_site_fract_x
 _atom_site_fract_y
 _atom_site_fract_z
 _atom_site_occupancy
  Li  Li0  1  0.18147350  0.87601050  0.36443700  1
  Li  Li1  1  0.81852650  0.12398950  0.63556300  1
  Li  Li2  1  0.18147350  0.12398950  0.86443700  1
  Li  Li3  1  0.81852650  0.87601050  0.13556300  1
  Li  Li4  1  0.31255350  0.88019950  0.11461900  1
  Li  Li5  1  0.68744650  0.88019950  0.38538100  1
  Li  Li6  1  0.68744650  0.11980050  0.88538100  1
  Li  Li7  1  0.31255350  0.11980050  0.61461900  1
  Li  Li8  1  0.54193600  0.89707000  0.62509700  1
  Li  Li9  1  0.45806400  0.89707000  0.87490300  1
  Li  Li10  1  0.45806400  0.10293000  0.37490300  1
  Li  Li11  1  0.54193600  0.10293000  0.12509700  1
  Li  Li12  1  0.68147350  0.37601050  0.36443700  1
  Li  Li13  1  0.31852650  0.62398950  0.63556300  1
  Li  Li14  1  0.68147350  0.62398950  0.86443700  1
  Li  Li15  1  0.31852650  0.37601050  0.13556300  1
  Li  Li16  1  0.81255350  0.38019950  0.11461900  1
  Li  Li17  1  0.18744650  0.38019950  0.38538100  1
  Li  Li18  1  0.18744650  0.61980050  0.88538100  1
  Li  Li19  1  0.81255350  0.61980050  0.61461900  1
  Li  Li20  1  0.04193600  0.39707000  0.62509700  1
  Li  Li21  1  0.95806400  0.39707000  0.87490300  1
  Li  Li22  1  0.95806400  0.60293000  0.37490300  1
  Li  Li23  1  0.04193600  0.60293000  0.12509700  1
  Ta  Ta24  1  0.57899050  0.64083850  0.12478900  1
  Ta  Ta25  1  0.42100950  0.64083850  0.37521100  1
  Ta  Ta26  1  0.42100950  0.35916150  0.87521100  1
  Ta  Ta27  1  0.57899050  0.35916150  0.62478900  1
  Ta  Ta28  1  0.07899050  0.14083850  0.12478900  1
  Ta  Ta29  1  0.92100950  0.14083850  0.37521100  1
  Ta  Ta30  1  0.92100950  0.85916150  0.87521100  1
  Ta  Ta31  1  0.07899050  0.85916150  0.62478900  1
  O  O32  1  0.44261650  0.39036850  0.38835300  1
  O  O33  1  0.44261650  0.60963150  0.88835300  1
  O  O34  1  0.55738350  0.39036850  0.11164700  1
  O  O35  1  0.55738350  0.60963150  0.61164700  1
  O  O36  1  0.16494500  0.87673000  0.86159000  1
  O  O37  1  0.83505500  0.87673000  0.63841000  1
  O  O38  1  0.83505500  0.12327000  0.13841000  1
  O  O39  1  0.16494500  0.12327000  0.36159000  1
  O  O40  1  0.43993500  0.86143100  0.38245400  1
  O  O41  1  0.56006500  0.86143100  0.11754600  1
  O  O42  1  0.56006500  0.13856900  0.61754600  1
  O  O43  1  0.43993500  0.13856900  0.88245400  1
  O  O44  1  0.69661350  0.87524950  0.86753600  1
  O  O45  1  0.30338650  0.87524950  0.63246400  1
  O  O46  1  0.30338650  0.12475050  0.13246400  1
  O  O47  1  0.69661350  0.12475050  0.36753600  1
  O  O48  1  0.94261650  0.89036850  0.38835300  1
  O  O49  1  0.94261650  0.10963150  0.88835300  1
  O  O50  1  0.05738350  0.89036850  0.11164700  1
  O  O51  1  0.05738350  0.10963150  0.61164700  1
  O  O52  1  0.66494500  0.37673000  0.86159000  1
  O  O53  1  0.33505500  0.37673000  0.63841000  1
  O  O54  1  0.33505500  0.62327000  0.13841000  1
  O  O55  1  0.66494500  0.62327000  0.36159000  1
  O  O56  1  0.93993500  0.36143100  0.38245400  1
  O  O57  1  0.06006500  0.36143100  0.11754600  1
  O  O58  1  0.06006500  0.63856900  0.61754600  1
  O  O59  1  0.93993500  0.63856900  0.88245400  1
  O  O60  1  0.19661350  0.37524950  0.86753600  1
  O  O61  1  0.80338650  0.37524950  0.63246400  1
  O  O62  1  0.80338650  0.62475050  0.13246400  1
  O  O63  1  0.19661350  0.62475050  0.36753600  1
