# generated using pymatgen
data_Sm2CdS4
_symmetry_space_group_name_H-M   'P 1'
_cell_length_a   8.41293200
_cell_length_b   8.41293200
_cell_length_c   8.76932800
_cell_angle_alpha   90.00000000
_cell_angle_beta   90.00000000
_cell_angle_gamma   90.00000000
_symmetry_Int_Tables_number   1
_chemical_formula_structural   Sm2CdS4
_chemical_formula_sum   'Sm8 Cd4 S16'
_cell_volume   620.67045339
_cell_formula_units_Z   4
loop_
 _symmetry_equiv_pos_site_id
 _symmetry_equiv_pos_as_xyz
  1  'x, y, z'
loop_
 _atom_site_type_symbol
 _atom_site_label
 _atom_site_symmetry_multiplicity
 _atom_site_fract_x
 _atom_site_fract_y
 _atom_site_fract_z
 _atom_site_occupancy
  Sm  Sm0  1  0.75000000  0.36104300  0.37500000  1
  Sm  Sm1  1  0.13895700  0.25000000  0.12500000  1
  Sm  Sm2  1  0.75000000  0.13895700  0.87500000  1
  Sm  Sm3  1  0.36104300  0.25000000  0.62500000  1
  Sm  Sm4  1  0.25000000  0.86104300  0.87500000  1
  Sm  Sm5  1  0.63895700  0.75000000  0.62500000  1
  Sm  Sm6  1  0.25000000  0.63895700  0.37500000  1
  Sm  Sm7  1  0.86104300  0.75000000  0.12500000  1
  Cd  Cd8  1  0.00000000  0.00000000  0.50000000  1
  Cd  Cd9  1  0.50000000  0.00000000  0.25000000  1
  Cd  Cd10  1  0.50000000  0.50000000  0.00000000  1
  Cd  Cd11  1  0.00000000  0.50000000  0.75000000  1
  S  S12  1  0.80638250  0.06895250  0.18556050  1
  S  S13  1  0.30638250  0.93104750  0.56443950  1
  S  S14  1  0.43104750  0.30638250  0.31443950  1
  S  S15  1  0.43104750  0.19361750  0.93556050  1
  S  S16  1  0.19361750  0.56895250  0.06443950  1
  S  S17  1  0.56895250  0.69361750  0.31443950  1
  S  S18  1  0.19361750  0.93104750  0.18556050  1
  S  S19  1  0.06895250  0.30638250  0.43556050  1
  S  S20  1  0.30638250  0.56895250  0.68556050  1
  S  S21  1  0.80638250  0.43104750  0.06443950  1
  S  S22  1  0.93104750  0.80638250  0.81443950  1
  S  S23  1  0.93104750  0.69361750  0.43556050  1
  S  S24  1  0.69361750  0.06895250  0.56443950  1
  S  S25  1  0.06895250  0.19361750  0.81443950  1
  S  S26  1  0.69361750  0.43104750  0.68556050  1
  S  S27  1  0.56895250  0.80638250  0.93556050  1
