# generated using pymatgen
data_AgBiSe2
_symmetry_space_group_name_H-M   'P 1'
_cell_length_a   5.86246800
_cell_length_b   5.86246800
_cell_length_c   11.88298800
_cell_angle_alpha   90.00000000
_cell_angle_beta   90.00000000
_cell_angle_gamma   90.00000000
_symmetry_Int_Tables_number   1
_chemical_formula_structural   AgBiSe2
_chemical_formula_sum   'Ag4 Bi4 Se8'
_cell_volume   408.40084206
_cell_formula_units_Z   4
loop_
 _symmetry_equiv_pos_site_id
 _symmetry_equiv_pos_as_xyz
  1  'x, y, z'
loop_
 _atom_site_type_symbol
 _atom_site_label
 _atom_site_symmetry_multiplicity
 _atom_site_fract_x
 _atom_site_fract_y
 _atom_site_fract_z
 _atom_site_occupancy
  Ag  Ag0  1  0.50000000  0.50000000  0.00000000  1
  Ag  Ag1  1  0.50000000  0.00000000  0.25000000  1
  Ag  Ag2  1  0.00000000  0.00000000  0.50000000  1
  Ag  Ag3  1  0.00000000  0.50000000  0.75000000  1
  Bi  Bi4  1  0.00000000  0.00000000  0.00000000  1
  Bi  Bi5  1  0.00000000  0.50000000  0.25000000  1
  Bi  Bi6  1  0.50000000  0.50000000  0.50000000  1
  Bi  Bi7  1  0.50000000  0.00000000  0.75000000  1
  Se  Se8  1  0.50000000  0.50000000  0.24963900  1
  Se  Se9  1  0.00000000  0.00000000  0.25036100  1
  Se  Se10  1  0.50000000  0.00000000  0.00036100  1
  Se  Se11  1  0.50000000  0.00000000  0.49963900  1
  Se  Se12  1  0.00000000  0.00000000  0.74963900  1
  Se  Se13  1  0.50000000  0.50000000  0.75036100  1
  Se  Se14  1  0.00000000  0.50000000  0.50036100  1
  Se  Se15  1  0.00000000  0.50000000  0.99963900  1
