# generated using pymatgen
data_La5TlS8
_symmetry_space_group_name_H-M   'P 1'
_cell_length_a   8.87436800
_cell_length_b   8.87436800
_cell_length_c   8.73437000
_cell_angle_alpha   90.00000000
_cell_angle_beta   90.00000000
_cell_angle_gamma   90.00000000
_symmetry_Int_Tables_number   1
_chemical_formula_structural   La5TlS8
_chemical_formula_sum   'La10 Tl2 S16'
_cell_volume   687.87013336
_cell_formula_units_Z   2
loop_
 _symmetry_equiv_pos_site_id
 _symmetry_equiv_pos_as_xyz
  1  'x, y, z'
loop_
 _atom_site_type_symbol
 _atom_site_label
 _atom_site_symmetry_multiplicity
 _atom_site_fract_x
 _atom_site_fract_y
 _atom_site_fract_z
 _atom_site_occupancy
  La  La0  1  0.36713450  0.24830750  0.86958750  1
  La  La1  1  0.50000000  0.00000000  0.25000000  1
  La  La2  1  0.25169250  0.86713450  0.63041250  1
  La  La3  1  0.13286550  0.25169250  0.36958750  1
  La  La4  1  0.24830750  0.63286550  0.13041250  1
  La  La5  1  0.86713450  0.74830750  0.36958750  1
  La  La6  1  0.00000000  0.50000000  0.75000000  1
  La  La7  1  0.75169250  0.36713450  0.13041250  1
  La  La8  1  0.63286550  0.75169250  0.86958750  1
  La  La9  1  0.74830750  0.13286550  0.63041250  1
  Tl  Tl10  1  0.00000000  0.00000000  0.00000000  1
  Tl  Tl11  1  0.50000000  0.50000000  0.50000000  1
  S  S12  1  0.07578450  0.18323850  0.68690350  1
  S  S13  1  0.83888450  0.42173550  0.44880450  1
  S  S14  1  0.07826450  0.33888450  0.05119550  1
  S  S15  1  0.66111550  0.07826450  0.94880450  1
  S  S16  1  0.18323850  0.92421550  0.31309650  1
  S  S17  1  0.42421550  0.31676150  0.18690350  1
  S  S18  1  0.31676150  0.57578450  0.81309650  1
  S  S19  1  0.42173550  0.16111550  0.55119550  1
  S  S20  1  0.57578450  0.68323850  0.18690350  1
  S  S21  1  0.33888450  0.92173550  0.94880450  1
  S  S22  1  0.57826450  0.83888450  0.55119550  1
  S  S23  1  0.16111550  0.57826450  0.44880450  1
  S  S24  1  0.68323850  0.42421550  0.81309650  1
  S  S25  1  0.92421550  0.81676150  0.68690350  1
  S  S26  1  0.81676150  0.07578450  0.31309650  1
  S  S27  1  0.92173550  0.66111550  0.05119550  1
