# generated using pymatgen
data_Zn2SiO4
_symmetry_space_group_name_H-M   'P 1'
_cell_length_a   14.15064366
_cell_length_b   14.15064366
_cell_length_c   9.42073025
_cell_angle_alpha   90.00000000
_cell_angle_beta   90.00000000
_cell_angle_gamma   120.00000000
_symmetry_Int_Tables_number   1
_chemical_formula_structural   Zn2SiO4
_chemical_formula_sum   'Zn36 Si18 O72'
_cell_volume   1633.68224749
_cell_formula_units_Z   18
loop_
 _symmetry_equiv_pos_site_id
 _symmetry_equiv_pos_as_xyz
  1  'x, y, z'
loop_
 _atom_site_type_symbol
 _atom_site_label
 _atom_site_symmetry_multiplicity
 _atom_site_fract_x
 _atom_site_fract_y
 _atom_site_fract_z
 _atom_site_occupancy
  Zn  Zn0  1  0.02166000  0.80806800  0.41825200  1
  Zn  Zn1  1  0.19193200  0.21359200  0.41825200  1
  Zn  Zn2  1  0.78640800  0.97834000  0.41825200  1
  Zn  Zn3  1  0.97834000  0.19193200  0.58174800  1
  Zn  Zn4  1  0.80806800  0.78640800  0.58174800  1
  Zn  Zn5  1  0.21359200  0.02166000  0.58174800  1
  Zn  Zn6  1  0.54227533  0.68174767  0.58261567  1
  Zn  Zn7  1  0.13947233  0.45772467  0.58261567  1
  Zn  Zn8  1  0.31825233  0.86052767  0.58261567  1
  Zn  Zn9  1  0.45772467  0.31825233  0.41738433  1
  Zn  Zn10  1  0.86052767  0.54227533  0.41738433  1
  Zn  Zn11  1  0.68174767  0.13947233  0.41738433  1
  Zn  Zn12  1  0.68832667  0.14140133  0.75158533  1
  Zn  Zn13  1  0.85859867  0.54692533  0.75158533  1
  Zn  Zn14  1  0.45307467  0.31167333  0.75158533  1
  Zn  Zn15  1  0.64500667  0.52526533  0.91508133  1
  Zn  Zn16  1  0.47473467  0.11974133  0.91508133  1
  Zn  Zn17  1  0.88025867  0.35499333  0.91508133  1
  Zn  Zn18  1  0.20894200  0.01508100  0.91594900  1
  Zn  Zn19  1  0.80613900  0.79105800  0.91594900  1
  Zn  Zn20  1  0.98491900  0.19386100  0.91594900  1
  Zn  Zn21  1  0.12439133  0.65158567  0.75071767  1
  Zn  Zn22  1  0.52719433  0.87560867  0.75071767  1
  Zn  Zn23  1  0.34841433  0.47280567  0.75071767  1
  Zn  Zn24  1  0.35499333  0.47473467  0.08491867  1
  Zn  Zn25  1  0.52526533  0.88025867  0.08491867  1
  Zn  Zn26  1  0.11974133  0.64500667  0.08491867  1
  Zn  Zn27  1  0.31167333  0.85859867  0.24841467  1
  Zn  Zn28  1  0.14140133  0.45307467  0.24841467  1
  Zn  Zn29  1  0.54692533  0.68832667  0.24841467  1
  Zn  Zn30  1  0.87560867  0.34841433  0.24928233  1
  Zn  Zn31  1  0.47280567  0.12439133  0.24928233  1
  Zn  Zn32  1  0.65158567  0.52719433  0.24928233  1
  Zn  Zn33  1  0.79105800  0.98491900  0.08405100  1
  Zn  Zn34  1  0.19386100  0.20894200  0.08405100  1
  Zn  Zn35  1  0.01508100  0.80613900  0.08405100  1
  Si  Si36  1  0.21029500  0.01427200  0.24947500  1
  Si  Si37  1  0.80397700  0.78970500  0.24947500  1
  Si  Si38  1  0.98572800  0.19602300  0.24947500  1
  Si  Si39  1  0.78970500  0.98572800  0.75052500  1
  Si  Si40  1  0.19602300  0.21029500  0.75052500  1
  Si  Si41  1  0.01427200  0.80397700  0.75052500  1
  Si  Si42  1  0.87696167  0.34760533  0.58280833  1
  Si  Si43  1  0.47064367  0.12303833  0.58280833  1
  Si  Si44  1  0.65239467  0.52935633  0.58280833  1
  Si  Si45  1  0.45637167  0.31906133  0.08385833  1
  Si  Si46  1  0.86268967  0.54362833  0.08385833  1
  Si  Si47  1  0.68093867  0.13731033  0.08385833  1
  Si  Si48  1  0.54362833  0.68093867  0.91614167  1
  Si  Si49  1  0.13731033  0.45637167  0.91614167  1
  Si  Si50  1  0.31906133  0.86268967  0.91614167  1
  Si  Si51  1  0.12303833  0.65239467  0.41719167  1
  Si  Si52  1  0.52935633  0.87696167  0.41719167  1
  Si  Si53  1  0.34760533  0.47064367  0.41719167  1
  O  O54  1  0.10411567  0.88894933  0.24911933  1
  O  O55  1  0.11105067  0.21516633  0.24911933  1
  O  O56  1  0.78483367  0.89588433  0.24911933  1
  O  O57  1  0.89588433  0.11105067  0.75088067  1
  O  O58  1  0.88894933  0.78483367  0.75088067  1
  O  O59  1  0.21516633  0.10411567  0.75088067  1
  O  O60  1  0.08025967  0.87387533  0.60743233  1
  O  O61  1  0.12612467  0.20638433  0.60743233  1
  O  O62  1  0.79361567  0.91974033  0.60743233  1
  O  O63  1  0.91974033  0.12612467  0.39256767  1
  O  O64  1  0.87387533  0.79361567  0.39256767  1
  O  O65  1  0.20638433  0.08025967  0.39256767  1
  O  O66  1  0.40915933  0.53695667  0.56296767  1
  O  O67  1  0.46304333  0.87220267  0.56296767  1
  O  O68  1  0.12779733  0.59084067  0.56296767  1
  O  O69  1  0.59084067  0.46304333  0.43703233  1
  O  O70  1  0.53695667  0.12779733  0.43703233  1
  O  O71  1  0.87220267  0.40915933  0.43703233  1
  O  O72  1  0.98734033  0.33603667  0.58493367  1
  O  O73  1  0.34869633  0.01265967  0.58493367  1
  O  O74  1  0.66396333  0.65130367  0.58493367  1
  O  O75  1  0.01265967  0.66396333  0.41506633  1
  O  O76  1  0.65130367  0.98734033  0.41506633  1
  O  O77  1  0.33603667  0.34869633  0.41506633  1
  O  O78  1  0.77078233  0.22228267  0.58245267  1
  O  O79  1  0.77771733  0.54849967  0.58245267  1
  O  O80  1  0.45150033  0.22921767  0.58245267  1
  O  O81  1  0.56255100  0.44438400  0.08421400  1
  O  O82  1  0.55561600  0.11816700  0.08421400  1
  O  O83  1  0.88183300  0.43744900  0.08421400  1
  O  O84  1  0.74692633  0.20720867  0.94076567  1
  O  O85  1  0.79279133  0.53971767  0.94076567  1
  O  O86  1  0.46028233  0.25307367  0.94076567  1
  O  O87  1  0.58640700  0.45945800  0.72590100  1
  O  O88  1  0.54054200  0.12694900  0.72590100  1
  O  O89  1  0.87305100  0.41359300  0.72590100  1
  O  O90  1  0.07582600  0.87029000  0.89630100  1
  O  O91  1  0.12971000  0.20553600  0.89630100  1
  O  O92  1  0.79446400  0.92417400  0.89630100  1
  O  O93  1  0.25750733  0.79637667  0.77036567  1
  O  O94  1  0.20362333  0.46113067  0.77036567  1
  O  O95  1  0.53886933  0.74249267  0.77036567  1
  O  O96  1  0.65400700  0.66937000  0.91826700  1
  O  O97  1  0.01536300  0.34599300  0.91826700  1
  O  O98  1  0.33063000  0.98463700  0.91826700  1
  O  O99  1  0.67932633  0.99729667  0.74839967  1
  O  O100  1  0.31797033  0.32067367  0.74839967  1
  O  O101  1  0.00270333  0.68202967  0.74839967  1
  O  O102  1  0.43744900  0.55561600  0.91578600  1
  O  O103  1  0.44438400  0.88183300  0.91578600  1
  O  O104  1  0.11816700  0.56255100  0.91578600  1
  O  O105  1  0.22921767  0.77771733  0.41754733  1
  O  O106  1  0.22228267  0.45150033  0.41754733  1
  O  O107  1  0.54849967  0.77078233  0.41754733  1
  O  O108  1  0.41359300  0.54054200  0.27409900  1
  O  O109  1  0.45945800  0.87305100  0.27409900  1
  O  O110  1  0.12694900  0.58640700  0.27409900  1
  O  O111  1  0.25307367  0.79279133  0.05923433  1
  O  O112  1  0.20720867  0.46028233  0.05923433  1
  O  O113  1  0.53971767  0.74692633  0.05923433  1
  O  O114  1  0.74249267  0.20362333  0.22963433  1
  O  O115  1  0.79637667  0.53886933  0.22963433  1
  O  O116  1  0.46113067  0.25750733  0.22963433  1
  O  O117  1  0.92417400  0.12971000  0.10369900  1
  O  O118  1  0.87029000  0.79446400  0.10369900  1
  O  O119  1  0.20553600  0.07582600  0.10369900  1
  O  O120  1  0.32067367  0.00270333  0.25160033  1
  O  O121  1  0.68202967  0.67932633  0.25160033  1
  O  O122  1  0.99729667  0.31797033  0.25160033  1
  O  O123  1  0.34599300  0.33063000  0.08173300  1
  O  O124  1  0.98463700  0.65400700  0.08173300  1
  O  O125  1  0.66937000  0.01536300  0.08173300  1
