# generated using pymatgen
data_Sm3Sb5O12
_symmetry_space_group_name_H-M   'P 1'
_cell_length_a   11.05412600
_cell_length_b   11.05412600
_cell_length_c   11.05412600
_cell_angle_alpha   90.00000000
_cell_angle_beta   90.00000000
_cell_angle_gamma   90.00000000
_symmetry_Int_Tables_number   1
_chemical_formula_structural   Sm3Sb5O12
_chemical_formula_sum   'Sm12 Sb20 O48'
_cell_volume   1350.74457416
_cell_formula_units_Z   4
loop_
 _symmetry_equiv_pos_site_id
 _symmetry_equiv_pos_as_xyz
  1  'x, y, z'
loop_
 _atom_site_type_symbol
 _atom_site_label
 _atom_site_symmetry_multiplicity
 _atom_site_fract_x
 _atom_site_fract_y
 _atom_site_fract_z
 _atom_site_occupancy
  Sm  Sm0  1  0.00000000  0.25000000  0.50000000  1
  Sm  Sm1  1  0.50000000  0.00000000  0.25000000  1
  Sm  Sm2  1  0.00000000  0.50000000  0.25000000  1
  Sm  Sm3  1  0.25000000  0.50000000  0.00000000  1
  Sm  Sm4  1  0.25000000  0.00000000  0.50000000  1
  Sm  Sm5  1  0.50000000  0.25000000  0.00000000  1
  Sm  Sm6  1  0.50000000  0.75000000  0.00000000  1
  Sm  Sm7  1  0.00000000  0.50000000  0.75000000  1
  Sm  Sm8  1  0.50000000  0.00000000  0.75000000  1
  Sm  Sm9  1  0.75000000  0.00000000  0.50000000  1
  Sm  Sm10  1  0.75000000  0.50000000  0.00000000  1
  Sm  Sm11  1  0.00000000  0.75000000  0.50000000  1
  Sb  Sb12  1  0.25449150  0.25449150  0.25449150  1
  Sb  Sb13  1  0.24550850  0.75449150  0.24550850  1
  Sb  Sb14  1  0.75449150  0.24550850  0.24550850  1
  Sb  Sb15  1  0.24550850  0.24550850  0.75449150  1
  Sb  Sb16  1  0.71799900  0.00000000  0.00000000  1
  Sb  Sb17  1  0.28200100  0.00000000  0.00000000  1
  Sb  Sb18  1  0.00000000  0.28200100  0.00000000  1
  Sb  Sb19  1  0.00000000  0.71799900  0.00000000  1
  Sb  Sb20  1  0.00000000  0.00000000  0.28200100  1
  Sb  Sb21  1  0.00000000  0.00000000  0.71799900  1
  Sb  Sb22  1  0.75449150  0.75449150  0.75449150  1
  Sb  Sb23  1  0.74550850  0.25449150  0.74550850  1
  Sb  Sb24  1  0.25449150  0.74550850  0.74550850  1
  Sb  Sb25  1  0.74550850  0.74550850  0.25449150  1
  Sb  Sb26  1  0.21799900  0.50000000  0.50000000  1
  Sb  Sb27  1  0.78200100  0.50000000  0.50000000  1
  Sb  Sb28  1  0.50000000  0.78200100  0.50000000  1
  Sb  Sb29  1  0.50000000  0.21799900  0.50000000  1
  Sb  Sb30  1  0.50000000  0.50000000  0.78200100  1
  Sb  Sb31  1  0.50000000  0.50000000  0.21799900  1
  O  O32  1  0.13784900  0.66318100  0.86215100  1
  O  O33  1  0.36215100  0.36215100  0.83681900  1
  O  O34  1  0.66318100  0.86215100  0.13784900  1
  O  O35  1  0.33681900  0.13784900  0.13784900  1
  O  O36  1  0.86215100  0.13784900  0.66318100  1
  O  O37  1  0.13784900  0.33681900  0.13784900  1
  O  O38  1  0.36215100  0.83681900  0.36215100  1
  O  O39  1  0.13784900  0.86215100  0.66318100  1
  O  O40  1  0.13784900  0.13784900  0.33681900  1
  O  O41  1  0.66318100  0.13784900  0.86215100  1
  O  O42  1  0.83681900  0.36215100  0.36215100  1
  O  O43  1  0.86215100  0.66318100  0.13784900  1
  O  O44  1  0.90013750  0.39328950  0.09986250  1
  O  O45  1  0.09986250  0.09986250  0.60671050  1
  O  O46  1  0.39328950  0.09986250  0.90013750  1
  O  O47  1  0.10671050  0.40013750  0.40013750  1
  O  O48  1  0.09986250  0.39328950  0.90013750  1
  O  O49  1  0.60671050  0.09986250  0.09986250  1
  O  O50  1  0.39328950  0.90013750  0.09986250  1
  O  O51  1  0.40013750  0.40013750  0.10671050  1
  O  O52  1  0.90013750  0.09986250  0.39328950  1
  O  O53  1  0.09986250  0.60671050  0.09986250  1
  O  O54  1  0.40013750  0.10671050  0.40013750  1
  O  O55  1  0.09986250  0.90013750  0.39328950  1
  O  O56  1  0.63784900  0.16318100  0.36215100  1
  O  O57  1  0.86215100  0.86215100  0.33681900  1
  O  O58  1  0.16318100  0.36215100  0.63784900  1
  O  O59  1  0.83681900  0.63784900  0.63784900  1
  O  O60  1  0.36215100  0.63784900  0.16318100  1
  O  O61  1  0.63784900  0.83681900  0.63784900  1
  O  O62  1  0.86215100  0.33681900  0.86215100  1
  O  O63  1  0.63784900  0.36215100  0.16318100  1
  O  O64  1  0.63784900  0.63784900  0.83681900  1
  O  O65  1  0.16318100  0.63784900  0.36215100  1
  O  O66  1  0.33681900  0.86215100  0.86215100  1
  O  O67  1  0.36215100  0.16318100  0.63784900  1
  O  O68  1  0.40013750  0.89328950  0.59986250  1
  O  O69  1  0.59986250  0.59986250  0.10671050  1
  O  O70  1  0.89328950  0.59986250  0.40013750  1
  O  O71  1  0.60671050  0.90013750  0.90013750  1
  O  O72  1  0.59986250  0.89328950  0.40013750  1
  O  O73  1  0.10671050  0.59986250  0.59986250  1
  O  O74  1  0.89328950  0.40013750  0.59986250  1
  O  O75  1  0.90013750  0.90013750  0.60671050  1
  O  O76  1  0.40013750  0.59986250  0.89328950  1
  O  O77  1  0.59986250  0.10671050  0.59986250  1
  O  O78  1  0.90013750  0.60671050  0.90013750  1
  O  O79  1  0.59986250  0.40013750  0.89328950  1
