# generated using pymatgen
data_Nd(ClO4)3
_symmetry_space_group_name_H-M   'P 1'
_cell_length_a   9.52112644
_cell_length_b   9.52112644
_cell_length_c   5.86479400
_cell_angle_alpha   90.00000000
_cell_angle_beta   90.00000000
_cell_angle_gamma   120.00000000
_symmetry_Int_Tables_number   1
_chemical_formula_structural   Nd(ClO4)3
_chemical_formula_sum   'Nd2 Cl6 O24'
_cell_volume   460.42623205
_cell_formula_units_Z   2
loop_
 _symmetry_equiv_pos_site_id
 _symmetry_equiv_pos_as_xyz
  1  'x, y, z'
loop_
 _atom_site_type_symbol
 _atom_site_label
 _atom_site_symmetry_multiplicity
 _atom_site_fract_x
 _atom_site_fract_y
 _atom_site_fract_z
 _atom_site_occupancy
  Nd  Nd0  1  0.33333333  0.66666667  0.25000000  1
  Nd  Nd1  1  0.66666667  0.33333333  0.75000000  1
  Cl  Cl2  1  0.70662000  0.09301600  0.25000000  1
  Cl  Cl3  1  0.61360400  0.70662000  0.75000000  1
  Cl  Cl4  1  0.09301600  0.38639600  0.75000000  1
  Cl  Cl5  1  0.90698400  0.61360400  0.25000000  1
  Cl  Cl6  1  0.38639600  0.29338000  0.25000000  1
  Cl  Cl7  1  0.29338000  0.90698400  0.75000000  1
  O  O8  1  0.80626600  0.02143900  0.25000000  1
  O  O9  1  0.78482700  0.80626600  0.75000000  1
  O  O10  1  0.02143900  0.21517300  0.75000000  1
  O  O11  1  0.97856100  0.78482700  0.25000000  1
  O  O12  1  0.21517300  0.19373400  0.25000000  1
  O  O13  1  0.19373400  0.97856100  0.75000000  1
  O  O14  1  0.25917400  0.80277600  0.54830200  1
  O  O15  1  0.45639800  0.25917400  0.04830200  1
  O  O16  1  0.46714200  0.02787700  0.75000000  1
  O  O17  1  0.43926500  0.46714200  0.25000000  1
  O  O18  1  0.02787700  0.56073500  0.25000000  1
  O  O19  1  0.97212300  0.43926500  0.75000000  1
  O  O20  1  0.56073500  0.53285800  0.75000000  1
  O  O21  1  0.53285800  0.97212300  0.25000000  1
  O  O22  1  0.25917400  0.80277600  0.95169800  1
  O  O23  1  0.45639800  0.25917400  0.45169800  1
  O  O24  1  0.80277600  0.54360200  0.45169800  1
  O  O25  1  0.19722400  0.45639800  0.95169800  1
  O  O26  1  0.54360200  0.74082600  0.95169800  1
  O  O27  1  0.74082600  0.19722400  0.45169800  1
  O  O28  1  0.74082600  0.19722400  0.04830200  1
  O  O29  1  0.54360200  0.74082600  0.54830200  1
  O  O30  1  0.19722400  0.45639800  0.54830200  1
  O  O31  1  0.80277600  0.54360200  0.04830200  1
