# generated using pymatgen
data_Sr11(CdSb2)6
_symmetry_space_group_name_H-M   'P 1'
_cell_length_a   33.36269000
_cell_length_b   4.83053400
_cell_length_c   12.76217451
_cell_angle_alpha   90.00000000
_cell_angle_beta   109.92350606
_cell_angle_gamma   90.00000000
_symmetry_Int_Tables_number   1
_chemical_formula_structural   Sr11(CdSb2)6
_chemical_formula_sum   'Sr22 Cd12 Sb24'
_cell_volume   1933.64745325
_cell_formula_units_Z   2
loop_
 _symmetry_equiv_pos_site_id
 _symmetry_equiv_pos_as_xyz
  1  'x, y, z'
loop_
 _atom_site_type_symbol
 _atom_site_label
 _atom_site_symmetry_multiplicity
 _atom_site_fract_x
 _atom_site_fract_y
 _atom_site_fract_z
 _atom_site_occupancy
  Sr  Sr0  1  0.48102100  0.50000000  0.31888500  1
  Sr  Sr1  1  0.01897900  0.00000000  0.68111500  1
  Sr  Sr2  1  0.38641600  0.50000000  0.49393600  1
  Sr  Sr3  1  0.11358400  0.00000000  0.50606400  1
  Sr  Sr4  1  0.37379200  0.50000000  0.98446500  1
  Sr  Sr5  1  0.12620800  0.00000000  0.01553500  1
  Sr  Sr6  1  0.29941900  0.50000000  0.65686400  1
  Sr  Sr7  1  0.20058100  0.00000000  0.34313600  1
  Sr  Sr8  1  0.22187200  0.50000000  0.86675100  1
  Sr  Sr9  1  0.27812800  0.00000000  0.13324900  1
  Sr  Sr10  1  0.00000000  0.00000000  0.00000000  1
  Sr  Sr11  1  0.98102100  0.00000000  0.31888500  1
  Sr  Sr12  1  0.51897900  0.50000000  0.68111500  1
  Sr  Sr13  1  0.88641600  0.00000000  0.49393600  1
  Sr  Sr14  1  0.61358400  0.50000000  0.50606400  1
  Sr  Sr15  1  0.87379200  0.00000000  0.98446500  1
  Sr  Sr16  1  0.62620800  0.50000000  0.01553500  1
  Sr  Sr17  1  0.79941900  0.00000000  0.65686400  1
  Sr  Sr18  1  0.70058100  0.50000000  0.34313600  1
  Sr  Sr19  1  0.72187200  0.00000000  0.86675100  1
  Sr  Sr20  1  0.77812800  0.50000000  0.13324900  1
  Sr  Sr21  1  0.50000000  0.50000000  0.00000000  1
  Cd  Cd22  1  0.45247100  0.00000000  0.75519400  1
  Cd  Cd23  1  0.39963000  0.00000000  0.25486300  1
  Cd  Cd24  1  0.10037000  0.50000000  0.74513700  1
  Cd  Cd25  1  0.04752900  0.50000000  0.24480600  1
  Cd  Cd26  1  0.21906500  0.00000000  0.66664700  1
  Cd  Cd27  1  0.28093500  0.50000000  0.33335300  1
  Cd  Cd28  1  0.95247100  0.50000000  0.75519400  1
  Cd  Cd29  1  0.89963000  0.50000000  0.25486300  1
  Cd  Cd30  1  0.60037000  0.00000000  0.74513700  1
  Cd  Cd31  1  0.54752900  0.00000000  0.24480600  1
  Cd  Cd32  1  0.71906500  0.50000000  0.66664700  1
  Cd  Cd33  1  0.78093500  0.00000000  0.33335300  1
  Sb  Sb34  1  0.04655900  0.50000000  0.88441400  1
  Sb  Sb35  1  0.45344100  0.00000000  0.11558600  1
  Sb  Sb36  1  0.04300700  0.50000000  0.50035100  1
  Sb  Sb37  1  0.45699300  0.00000000  0.49964900  1
  Sb  Sb38  1  0.29515200  0.00000000  0.86520200  1
  Sb  Sb39  1  0.20484800  0.50000000  0.13479800  1
  Sb  Sb40  1  0.30921700  0.00000000  0.47044300  1
  Sb  Sb41  1  0.19078300  0.50000000  0.52955700  1
  Sb  Sb42  1  0.34997100  0.50000000  0.21640500  1
  Sb  Sb43  1  0.09005400  0.00000000  0.23268400  1
  Sb  Sb44  1  0.40994600  0.50000000  0.76731600  1
  Sb  Sb45  1  0.15002900  0.00000000  0.78359500  1
  Sb  Sb46  1  0.54655900  0.00000000  0.88441400  1
  Sb  Sb47  1  0.95344100  0.50000000  0.11558600  1
  Sb  Sb48  1  0.54300700  0.00000000  0.50035100  1
  Sb  Sb49  1  0.95699300  0.50000000  0.49964900  1
  Sb  Sb50  1  0.79515200  0.50000000  0.86520200  1
  Sb  Sb51  1  0.70484800  0.00000000  0.13479800  1
  Sb  Sb52  1  0.80921700  0.50000000  0.47044300  1
  Sb  Sb53  1  0.69078300  0.00000000  0.52955700  1
  Sb  Sb54  1  0.84997100  0.00000000  0.21640500  1
  Sb  Sb55  1  0.59005400  0.50000000  0.23268400  1
  Sb  Sb56  1  0.90994600  0.00000000  0.76731600  1
  Sb  Sb57  1  0.65002900  0.50000000  0.78359500  1
