# generated using pymatgen
data_CdPbF6
_symmetry_space_group_name_H-M   'P 1'
_cell_length_a   5.67046545
_cell_length_b   5.67046545
_cell_length_c   15.23629141
_cell_angle_alpha   90.00000000
_cell_angle_beta   90.00000000
_cell_angle_gamma   120.00000000
_symmetry_Int_Tables_number   1
_chemical_formula_structural   CdPbF6
_chemical_formula_sum   'Cd3 Pb3 F18'
_cell_volume   424.27487977
_cell_formula_units_Z   3
loop_
 _symmetry_equiv_pos_site_id
 _symmetry_equiv_pos_as_xyz
  1  'x, y, z'
loop_
 _atom_site_type_symbol
 _atom_site_label
 _atom_site_symmetry_multiplicity
 _atom_site_fract_x
 _atom_site_fract_y
 _atom_site_fract_z
 _atom_site_occupancy
  Cd  Cd0  1  0.33333333  0.66666667  0.16666667  1
  Cd  Cd1  1  1.00000000  0.00000000  0.50000000  1
  Cd  Cd2  1  0.66666667  0.33333333  0.83333333  1
  Pb  Pb3  1  0.00000000  0.00000000  0.00000000  1
  Pb  Pb4  1  0.66666667  0.33333333  0.33333333  1
  Pb  Pb5  1  0.33333333  0.66666667  0.66666667  1
  F  F6  1  0.28061267  0.32260333  0.07966733  1
  F  F7  1  0.67739667  0.95800933  0.07966733  1
  F  F8  1  0.04199067  0.71938733  0.07966733  1
  F  F9  1  0.62467600  0.61394600  0.25366600  1
  F  F10  1  0.98927000  0.37532400  0.25366600  1
  F  F11  1  0.38605400  0.01073000  0.25366600  1
  F  F12  1  0.94727933  0.65593667  0.41300067  1
  F  F13  1  0.34406333  0.29134267  0.41300067  1
  F  F14  1  0.70865733  0.05272067  0.41300067  1
  F  F15  1  0.29134267  0.94727933  0.58699933  1
  F  F16  1  0.65593667  0.70865733  0.58699933  1
  F  F17  1  0.05272067  0.34406333  0.58699933  1
  F  F18  1  0.61394600  0.98927000  0.74633400  1
  F  F19  1  0.01073000  0.62467600  0.74633400  1
  F  F20  1  0.37532400  0.38605400  0.74633400  1
  F  F21  1  0.95800933  0.28061267  0.92033267  1
  F  F22  1  0.32260333  0.04199067  0.92033267  1
  F  F23  1  0.71938733  0.67739667  0.92033267  1
