# generated using pymatgen
data_Ta2FeO6
_symmetry_space_group_name_H-M   'P 1'
_cell_length_a   4.82484500
_cell_length_b   4.82484500
_cell_length_c   9.27804000
_cell_angle_alpha   90.00000000
_cell_angle_beta   90.00000000
_cell_angle_gamma   90.00000000
_symmetry_Int_Tables_number   1
_chemical_formula_structural   Ta2FeO6
_chemical_formula_sum   'Ta4 Fe2 O12'
_cell_volume   215.98469257
_cell_formula_units_Z   2
loop_
 _symmetry_equiv_pos_site_id
 _symmetry_equiv_pos_as_xyz
  1  'x, y, z'
loop_
 _atom_site_type_symbol
 _atom_site_label
 _atom_site_symmetry_multiplicity
 _atom_site_fract_x
 _atom_site_fract_y
 _atom_site_fract_z
 _atom_site_occupancy
  Ta  Ta0  1  0.50000000  0.50000000  0.16937500  1
  Ta  Ta1  1  0.00000000  0.00000000  0.66937500  1
  Ta  Ta2  1  0.00000000  0.00000000  0.33062500  1
  Ta  Ta3  1  0.50000000  0.50000000  0.83062500  1
  Fe  Fe4  1  0.00000000  0.00000000  0.00000000  1
  Fe  Fe5  1  0.50000000  0.50000000  0.50000000  1
  O  O6  1  0.18731850  0.18731850  0.50000000  1
  O  O7  1  0.31268150  0.68731850  0.00000000  1
  O  O8  1  0.68731850  0.31268150  0.00000000  1
  O  O9  1  0.81268150  0.81268150  0.50000000  1
  O  O10  1  0.20688650  0.20688650  0.18052000  1
  O  O11  1  0.79311350  0.79311350  0.18052000  1
  O  O12  1  0.79311350  0.79311350  0.81948000  1
  O  O13  1  0.70688650  0.29311350  0.31948000  1
  O  O14  1  0.29311350  0.70688650  0.31948000  1
  O  O15  1  0.29311350  0.70688650  0.68052000  1
  O  O16  1  0.70688650  0.29311350  0.68052000  1
  O  O17  1  0.20688650  0.20688650  0.81948000  1
