# generated using pymatgen
data_Y(PO3)3
_symmetry_space_group_name_H-M   'P 1'
_cell_length_a   7.09810300
_cell_length_b   9.80218200
_cell_length_c   11.14837098
_cell_angle_alpha   90.00000000
_cell_angle_beta   92.07682315
_cell_angle_gamma   90.00000000
_symmetry_Int_Tables_number   1
_chemical_formula_structural   Y(PO3)3
_chemical_formula_sum   'Y4 P12 O36'
_cell_volume   775.15955430
_cell_formula_units_Z   4
loop_
 _symmetry_equiv_pos_site_id
 _symmetry_equiv_pos_as_xyz
  1  'x, y, z'
loop_
 _atom_site_type_symbol
 _atom_site_label
 _atom_site_symmetry_multiplicity
 _atom_site_fract_x
 _atom_site_fract_y
 _atom_site_fract_z
 _atom_site_occupancy
  Y  Y0  1  0.32549700  0.25000000  0.53726700  1
  Y  Y1  1  0.67450300  0.75000000  0.46273300  1
  Y  Y2  1  0.81066400  0.75000000  0.98051900  1
  Y  Y3  1  0.18933600  0.25000000  0.01948100  1
  P  P4  1  0.67940700  0.25000000  0.10388900  1
  P  P5  1  0.32059300  0.75000000  0.89611100  1
  P  P6  1  0.18572500  0.75000000  0.37393800  1
  P  P7  1  0.81427500  0.25000000  0.62606200  1
  P  P8  1  0.82736400  0.53370300  0.71582500  1
  P  P9  1  0.17263600  0.03370300  0.28417500  1
  P  P10  1  0.17263600  0.46629700  0.28417500  1
  P  P11  1  0.82736400  0.96629700  0.71582500  1
  P  P12  1  0.23267300  0.48955300  0.76808600  1
  P  P13  1  0.76732700  0.98955300  0.23191400  1
  P  P14  1  0.76732700  0.51044700  0.23191400  1
  P  P15  1  0.23267300  0.01044700  0.76808600  1
  O  O16  1  0.34647500  0.62523800  0.80348500  1
  O  O17  1  0.65352500  0.12523800  0.19651500  1
  O  O18  1  0.65352500  0.37476200  0.19651500  1
  O  O19  1  0.34647500  0.87476200  0.80348500  1
  O  O20  1  0.79588800  0.37194300  0.72224200  1
  O  O21  1  0.20411200  0.87194300  0.27775800  1
  O  O22  1  0.20411200  0.62805700  0.27775800  1
  O  O23  1  0.79588800  0.12805700  0.72224200  1
  O  O24  1  0.12632900  0.75000000  0.94481400  1
  O  O25  1  0.87367100  0.25000000  0.05518600  1
  O  O26  1  0.00732500  0.25000000  0.57558600  1
  O  O27  1  0.99267500  0.75000000  0.42441400  1
  O  O28  1  0.48888500  0.75000000  0.98125500  1
  O  O29  1  0.51111500  0.25000000  0.01874500  1
  O  O30  1  0.64574200  0.25000000  0.54046300  1
  O  O31  1  0.35425800  0.75000000  0.45953700  1
  O  O32  1  0.78099400  0.91078900  0.83624200  1
  O  O33  1  0.21900600  0.41078900  0.16375800  1
  O  O34  1  0.21900600  0.08921100  0.16375800  1
  O  O35  1  0.78099400  0.58921100  0.83624200  1
  O  O36  1  0.17388100  0.08513000  0.87837700  1
  O  O37  1  0.82611900  0.58513000  0.12162300  1
  O  O38  1  0.82611900  0.91487000  0.12162300  1
  O  O39  1  0.17388100  0.41487000  0.87837700  1
  O  O40  1  0.73050800  0.90809300  0.60565700  1
  O  O41  1  0.26949200  0.40809300  0.39434300  1
  O  O42  1  0.26949200  0.09190700  0.39434300  1
  O  O43  1  0.73050800  0.59190700  0.60565700  1
  O  O44  1  0.05026900  0.94995800  0.69551400  1
  O  O45  1  0.94973100  0.44995800  0.30448600  1
  O  O46  1  0.94973100  0.05004200  0.30448600  1
  O  O47  1  0.05026900  0.55004200  0.69551400  1
  O  O48  1  0.34823200  0.08544600  0.67967900  1
  O  O49  1  0.65176800  0.58544600  0.32032100  1
  O  O50  1  0.65176800  0.91455400  0.32032100  1
  O  O51  1  0.34823200  0.41455400  0.67967900  1
