# generated using pymatgen
data_Pr2Se3
_symmetry_space_group_name_H-M   'P 1'
_cell_length_a   9.00906600
_cell_length_b   9.00906600
_cell_length_c   26.99720600
_cell_angle_alpha   90.00000000
_cell_angle_beta   90.00000000
_cell_angle_gamma   90.00000000
_symmetry_Int_Tables_number   1
_chemical_formula_structural   Pr2Se3
_chemical_formula_sum   'Pr32 Se48'
_cell_volume   2191.18152502
_cell_formula_units_Z   16
loop_
 _symmetry_equiv_pos_site_id
 _symmetry_equiv_pos_as_xyz
  1  'x, y, z'
loop_
 _atom_site_type_symbol
 _atom_site_label
 _atom_site_symmetry_multiplicity
 _atom_site_fract_x
 _atom_site_fract_y
 _atom_site_fract_z
 _atom_site_occupancy
  Pr  Pr0  1  0.00000000  0.00000000  0.16665400  1
  Pr  Pr1  1  0.38031400  0.75000000  0.12500000  1
  Pr  Pr2  1  0.25742000  0.13387500  0.03987600  1
  Pr  Pr3  1  0.00000000  0.50000000  0.08334600  1
  Pr  Pr4  1  0.74258000  0.86612500  0.03987600  1
  Pr  Pr5  1  0.61968600  0.25000000  0.12500000  1
  Pr  Pr6  1  0.36612500  0.75742000  0.46012400  1
  Pr  Pr7  1  0.25000000  0.11968600  0.37500000  1
  Pr  Pr8  1  0.00000000  0.50000000  0.41665400  1
  Pr  Pr9  1  0.75000000  0.88031400  0.37500000  1
  Pr  Pr10  1  0.63387500  0.24258000  0.46012400  1
  Pr  Pr11  1  0.50000000  0.50000000  0.33334600  1
  Pr  Pr12  1  0.86612500  0.24258000  0.28987600  1
  Pr  Pr13  1  0.74258000  0.63387500  0.21012400  1
  Pr  Pr14  1  0.25742000  0.36612500  0.21012400  1
  Pr  Pr15  1  0.13387500  0.75742000  0.28987600  1
  Pr  Pr16  1  0.50000000  0.50000000  0.66665400  1
  Pr  Pr17  1  0.88031400  0.25000000  0.62500000  1
  Pr  Pr18  1  0.75742000  0.63387500  0.53987600  1
  Pr  Pr19  1  0.50000000  0.00000000  0.58334600  1
  Pr  Pr20  1  0.24258000  0.36612500  0.53987600  1
  Pr  Pr21  1  0.11968600  0.75000000  0.62500000  1
  Pr  Pr22  1  0.86612500  0.25742000  0.96012400  1
  Pr  Pr23  1  0.75000000  0.61968600  0.87500000  1
  Pr  Pr24  1  0.50000000  0.00000000  0.91665400  1
  Pr  Pr25  1  0.25000000  0.38031400  0.87500000  1
  Pr  Pr26  1  0.13387500  0.74258000  0.96012400  1
  Pr  Pr27  1  0.00000000  0.00000000  0.83334600  1
  Pr  Pr28  1  0.36612500  0.74258000  0.78987600  1
  Pr  Pr29  1  0.24258000  0.13387500  0.71012400  1
  Pr  Pr30  1  0.75742000  0.86612500  0.71012400  1
  Pr  Pr31  1  0.63387500  0.25742000  0.78987600  1
  Se  Se32  1  0.92704600  0.32592300  0.18283700  1
  Se  Se33  1  0.67939500  0.92606800  0.14645800  1
  Se  Se34  1  0.07295400  0.67407700  0.18283700  1
  Se  Se35  1  0.07295400  0.82592300  0.06716300  1
  Se  Se36  1  0.92704600  0.17407700  0.06716300  1
  Se  Se37  1  0.32060500  0.07393200  0.14645800  1
  Se  Se38  1  0.41936950  0.82845050  0.01589850  1
  Se  Se39  1  0.32060500  0.42606800  0.10354200  1
  Se  Se40  1  0.67154950  0.91936950  0.48410150  1
  Se  Se41  1  0.58063050  0.17154950  0.01589850  1
  Se  Se42  1  0.67939500  0.57393200  0.10354200  1
  Se  Se43  1  0.07393200  0.82060500  0.39645800  1
  Se  Se44  1  0.92606800  0.17939500  0.39645800  1
  Se  Se45  1  0.32845050  0.08063050  0.48410150  1
  Se  Se46  1  0.42606800  0.82060500  0.35354200  1
  Se  Se47  1  0.32592300  0.42704600  0.43283700  1
  Se  Se48  1  0.17407700  0.42704600  0.31716300  1
  Se  Se49  1  0.57393200  0.17939500  0.35354200  1
  Se  Se50  1  0.67407700  0.57295400  0.43283700  1
  Se  Se51  1  0.58063050  0.32845050  0.23410150  1
  Se  Se52  1  0.41936950  0.67154950  0.23410150  1
  Se  Se53  1  0.82592300  0.57295400  0.31716300  1
  Se  Se54  1  0.82845050  0.91936950  0.26589850  1
  Se  Se55  1  0.17154950  0.08063050  0.26589850  1
  Se  Se56  1  0.42704600  0.82592300  0.68283700  1
  Se  Se57  1  0.17939500  0.42606800  0.64645800  1
  Se  Se58  1  0.57295400  0.17407700  0.68283700  1
  Se  Se59  1  0.57295400  0.32592300  0.56716300  1
  Se  Se60  1  0.42704600  0.67407700  0.56716300  1
  Se  Se61  1  0.82060500  0.57393200  0.64645800  1
  Se  Se62  1  0.91936950  0.32845050  0.51589850  1
  Se  Se63  1  0.82060500  0.92606800  0.60354200  1
  Se  Se64  1  0.17154950  0.41936950  0.98410150  1
  Se  Se65  1  0.08063050  0.67154950  0.51589850  1
  Se  Se66  1  0.17939500  0.07393200  0.60354200  1
  Se  Se67  1  0.57393200  0.32060500  0.89645800  1
  Se  Se68  1  0.42606800  0.67939500  0.89645800  1
  Se  Se69  1  0.82845050  0.58063050  0.98410150  1
  Se  Se70  1  0.92606800  0.32060500  0.85354200  1
  Se  Se71  1  0.82592300  0.92704600  0.93283700  1
  Se  Se72  1  0.67407700  0.92704600  0.81716300  1
  Se  Se73  1  0.07393200  0.67939500  0.85354200  1
  Se  Se74  1  0.17407700  0.07295400  0.93283700  1
  Se  Se75  1  0.08063050  0.82845050  0.73410150  1
  Se  Se76  1  0.91936950  0.17154950  0.73410150  1
  Se  Se77  1  0.32592300  0.07295400  0.81716300  1
  Se  Se78  1  0.32845050  0.41936950  0.76589850  1
  Se  Se79  1  0.67154950  0.58063050  0.76589850  1
