# generated using pymatgen
data_LiMnP2O7
_symmetry_space_group_name_H-M   'P 1'
_cell_length_a   9.46956200
_cell_length_b   8.07970000
_cell_length_c   13.77180152
_cell_angle_alpha   90.00000000
_cell_angle_beta   108.98051751
_cell_angle_gamma   90.00000000
_symmetry_Int_Tables_number   1
_chemical_formula_structural   LiMnP2O7
_chemical_formula_sum   'Li8 Mn8 P16 O56'
_cell_volume   996.40699645
_cell_formula_units_Z   8
loop_
 _symmetry_equiv_pos_site_id
 _symmetry_equiv_pos_as_xyz
  1  'x, y, z'
loop_
 _atom_site_type_symbol
 _atom_site_label
 _atom_site_symmetry_multiplicity
 _atom_site_fract_x
 _atom_site_fract_y
 _atom_site_fract_z
 _atom_site_occupancy
  Li  Li0  1  0.21947300  0.38532700  0.86516600  1
  Li  Li1  1  0.71947300  0.11467300  0.36516600  1
  Li  Li2  1  0.78052700  0.38532700  0.63483400  1
  Li  Li3  1  0.28052700  0.11467300  0.13483400  1
  Li  Li4  1  0.71947300  0.88532700  0.86516600  1
  Li  Li5  1  0.21947300  0.61467300  0.36516600  1
  Li  Li6  1  0.28052700  0.88532700  0.63483400  1
  Li  Li7  1  0.78052700  0.61467300  0.13483400  1
  Mn  Mn8  1  0.75335550  0.00767850  0.14000000  1
  Mn  Mn9  1  0.74664450  0.50767850  0.36000000  1
  Mn  Mn10  1  0.75335550  0.99232150  0.64000000  1
  Mn  Mn11  1  0.74664450  0.49232150  0.86000000  1
  Mn  Mn12  1  0.25335550  0.50767850  0.14000000  1
  Mn  Mn13  1  0.24664450  0.00767850  0.36000000  1
  Mn  Mn14  1  0.25335550  0.49232150  0.64000000  1
  Mn  Mn15  1  0.24664450  0.99232150  0.86000000  1
  P  P16  1  0.94111850  0.82297450  0.36728100  1
  P  P17  1  0.94788300  0.70462700  0.57586900  1
  P  P18  1  0.05211700  0.70462700  0.92413100  1
  P  P19  1  0.94111850  0.17702550  0.86728100  1
  P  P20  1  0.55888150  0.32297450  0.13271900  1
  P  P21  1  0.44788300  0.79537300  0.07586900  1
  P  P22  1  0.55211700  0.79537300  0.42413100  1
  P  P23  1  0.55888150  0.67702550  0.63271900  1
  P  P24  1  0.44111850  0.32297450  0.36728100  1
  P  P25  1  0.44788300  0.20462700  0.57586900  1
  P  P26  1  0.55211700  0.20462700  0.92413100  1
  P  P27  1  0.44111850  0.67702550  0.86728100  1
  P  P28  1  0.05888150  0.82297450  0.13271900  1
  P  P29  1  0.94788300  0.29537300  0.07586900  1
  P  P30  1  0.05211700  0.29537300  0.42413100  1
  P  P31  1  0.05888150  0.17702550  0.63271900  1
  O  O32  1  0.10886050  0.83407750  0.37731200  1
  O  O33  1  0.89113950  0.83407750  0.12268800  1
  O  O34  1  0.11793200  0.68042500  0.62806400  1
  O  O35  1  0.88762450  0.65007750  0.32202900  1
  O  O36  1  0.11570350  0.80634650  0.85411000  1
  O  O37  1  0.84540300  0.96509500  0.31124200  1
  O  O38  1  0.93508350  0.83094850  0.48187100  1
  O  O39  1  0.13988250  0.54798550  0.96603400  1
  O  O40  1  0.86011750  0.54798550  0.53396600  1
  O  O41  1  0.56491650  0.33094850  0.01812900  1
  O  O42  1  0.88429650  0.80634650  0.64589000  1
  O  O43  1  0.15459700  0.96509500  0.18875800  1
  O  O44  1  0.61793200  0.81957500  0.12806400  1
  O  O45  1  0.61237550  0.15007750  0.17797100  1
  O  O46  1  0.88762450  0.34992250  0.82202900  1
  O  O47  1  0.88206800  0.68042500  0.87193600  1
  O  O48  1  0.34540300  0.53490500  0.81124200  1
  O  O49  1  0.61570350  0.69365350  0.35411000  1
  O  O50  1  0.93508350  0.16905150  0.98187100  1
  O  O51  1  0.63988250  0.95201450  0.46603400  1
  O  O52  1  0.36011750  0.95201450  0.03396600  1
  O  O53  1  0.56491650  0.66905150  0.51812900  1
  O  O54  1  0.65459700  0.53490500  0.68875800  1
  O  O55  1  0.38429650  0.69365350  0.14589000  1
  O  O56  1  0.61237550  0.84992250  0.67797100  1
  O  O57  1  0.38206800  0.81957500  0.37193600  1
  O  O58  1  0.60886050  0.66592250  0.87731200  1
  O  O59  1  0.39113950  0.66592250  0.62268800  1
  O  O60  1  0.60886050  0.33407750  0.37731200  1
  O  O61  1  0.39113950  0.33407750  0.12268800  1
  O  O62  1  0.61793200  0.18042500  0.62806400  1
  O  O63  1  0.38762450  0.15007750  0.32202900  1
  O  O64  1  0.61570350  0.30634650  0.85411000  1
  O  O65  1  0.34540300  0.46509500  0.31124200  1
  O  O66  1  0.43508350  0.33094850  0.48187100  1
  O  O67  1  0.63988250  0.04798550  0.96603400  1
  O  O68  1  0.36011750  0.04798550  0.53396600  1
  O  O69  1  0.06491650  0.83094850  0.01812900  1
  O  O70  1  0.38429650  0.30634650  0.64589000  1
  O  O71  1  0.65459700  0.46509500  0.18875800  1
  O  O72  1  0.11793200  0.31957500  0.12806400  1
  O  O73  1  0.11237550  0.65007750  0.17797100  1
  O  O74  1  0.38762450  0.84992250  0.82202900  1
  O  O75  1  0.38206800  0.18042500  0.87193600  1
  O  O76  1  0.84540300  0.03490500  0.81124200  1
  O  O77  1  0.11570350  0.19365350  0.35411000  1
  O  O78  1  0.43508350  0.66905150  0.98187100  1
  O  O79  1  0.13988250  0.45201450  0.46603400  1
  O  O80  1  0.86011750  0.45201450  0.03396600  1
  O  O81  1  0.06491650  0.16905150  0.51812900  1
  O  O82  1  0.15459700  0.03490500  0.68875800  1
  O  O83  1  0.88429650  0.19365350  0.14589000  1
  O  O84  1  0.11237550  0.34992250  0.67797100  1
  O  O85  1  0.88206800  0.31957500  0.37193600  1
  O  O86  1  0.10886050  0.16592250  0.87731200  1
  O  O87  1  0.89113950  0.16592250  0.62268800  1
