# generated using pymatgen
data_Ta2Mn3O8
_symmetry_space_group_name_H-M   'P 1'
_cell_length_a   11.41221200
_cell_length_b   11.41221200
_cell_length_c   9.94759000
_cell_angle_alpha   90.00000000
_cell_angle_beta   90.00000000
_cell_angle_gamma   90.00000000
_symmetry_Int_Tables_number   1
_chemical_formula_structural   Ta2Mn3O8
_chemical_formula_sum   'Ta16 Mn24 O64'
_cell_volume   1295.56002321
_cell_formula_units_Z   8
loop_
 _symmetry_equiv_pos_site_id
 _symmetry_equiv_pos_as_xyz
  1  'x, y, z'
loop_
 _atom_site_type_symbol
 _atom_site_label
 _atom_site_symmetry_multiplicity
 _atom_site_fract_x
 _atom_site_fract_y
 _atom_site_fract_z
 _atom_site_occupancy
  Ta  Ta0  1  0.80403900  0.92388700  0.75449400  1
  Ta  Ta1  1  0.42388700  0.19596100  0.00449400  1
  Ta  Ta2  1  0.07611300  0.30403900  0.50449400  1
  Ta  Ta3  1  0.69596100  0.57611300  0.25449400  1
  Ta  Ta4  1  0.69596100  0.07611300  0.49550600  1
  Ta  Ta5  1  0.57611300  0.30403900  0.74550600  1
  Ta  Ta6  1  0.92388700  0.19596100  0.24550600  1
  Ta  Ta7  1  0.80403900  0.42388700  0.99550600  1
  Ta  Ta8  1  0.30403900  0.42388700  0.25449400  1
  Ta  Ta9  1  0.92388700  0.69596100  0.50449400  1
  Ta  Ta10  1  0.57611300  0.80403900  0.00449400  1
  Ta  Ta11  1  0.19596100  0.07611300  0.75449400  1
  Ta  Ta12  1  0.19596100  0.57611300  0.99550600  1
  Ta  Ta13  1  0.07611300  0.80403900  0.24550600  1
  Ta  Ta14  1  0.42388700  0.69596100  0.74550600  1
  Ta  Ta15  1  0.30403900  0.92388700  0.49550600  1
  Mn  Mn16  1  0.50000000  0.00000000  0.75000000  1
  Mn  Mn17  1  0.00000000  0.00000000  0.50000000  1
  Mn  Mn18  1  0.50000000  0.00000000  0.25000000  1
  Mn  Mn19  1  0.50000000  0.50000000  0.50000000  1
  Mn  Mn20  1  0.29540950  0.38712050  0.71984350  1
  Mn  Mn21  1  0.38712050  0.20459050  0.46984350  1
  Mn  Mn22  1  0.11287950  0.29540950  0.96984350  1
  Mn  Mn23  1  0.20459050  0.11287950  0.21984350  1
  Mn  Mn24  1  0.70459050  0.11287950  0.03015650  1
  Mn  Mn25  1  0.61287950  0.29540950  0.28015650  1
  Mn  Mn26  1  0.88712050  0.20459050  0.78015650  1
  Mn  Mn27  1  0.79540950  0.38712050  0.53015650  1
  Mn  Mn28  1  0.00000000  0.50000000  0.25000000  1
  Mn  Mn29  1  0.50000000  0.50000000  0.00000000  1
  Mn  Mn30  1  0.00000000  0.50000000  0.75000000  1
  Mn  Mn31  1  0.00000000  0.00000000  0.00000000  1
  Mn  Mn32  1  0.79540950  0.88712050  0.21984350  1
  Mn  Mn33  1  0.88712050  0.70459050  0.96984350  1
  Mn  Mn34  1  0.61287950  0.79540950  0.46984350  1
  Mn  Mn35  1  0.70459050  0.61287950  0.71984350  1
  Mn  Mn36  1  0.20459050  0.61287950  0.53015650  1
  Mn  Mn37  1  0.11287950  0.79540950  0.78015650  1
  Mn  Mn38  1  0.38712050  0.70459050  0.28015650  1
  Mn  Mn39  1  0.29540950  0.88712050  0.03015650  1
  O  O40  1  0.70873400  0.82542400  0.87048300  1
  O  O41  1  0.82542400  0.79126600  0.62048300  1
  O  O42  1  0.67457600  0.70873400  0.12048300  1
  O  O43  1  0.79126600  0.67457600  0.37048300  1
  O  O44  1  0.79126600  0.17457600  0.37951700  1
  O  O45  1  0.67457600  0.20873400  0.62951700  1
  O  O46  1  0.82542400  0.29126600  0.12951700  1
  O  O47  1  0.70873400  0.32542400  0.87951700  1
  O  O48  1  0.06244100  0.69633500  0.62045700  1
  O  O49  1  0.69633500  0.43755900  0.37045700  1
  O  O50  1  0.80366500  0.06244100  0.87045700  1
  O  O51  1  0.93755900  0.30366500  0.62045700  1
  O  O52  1  0.43755900  0.30366500  0.62954300  1
  O  O53  1  0.30366500  0.06244100  0.37954300  1
  O  O54  1  0.69633500  0.93755900  0.37954300  1
  O  O55  1  0.06244100  0.19633500  0.12954300  1
  O  O56  1  0.64705300  0.96192300  0.64351000  1
  O  O57  1  0.46192300  0.35294700  0.89351000  1
  O  O58  1  0.03807700  0.14705300  0.39351000  1
  O  O59  1  0.85294700  0.53807700  0.14351000  1
  O  O60  1  0.94784300  0.37086100  0.90760100  1
  O  O61  1  0.37086100  0.55215700  0.65760100  1
  O  O62  1  0.62913900  0.44784300  0.65760100  1
  O  O63  1  0.55215700  0.12913900  0.40760100  1
  O  O64  1  0.55215700  0.62913900  0.34239900  1
  O  O65  1  0.62913900  0.94784300  0.09239900  1
  O  O66  1  0.87086100  0.55215700  0.59239900  1
  O  O67  1  0.44784300  0.37086100  0.34239900  1
  O  O68  1  0.64705300  0.46192300  0.10649000  1
  O  O69  1  0.96192300  0.35294700  0.35649000  1
  O  O70  1  0.53807700  0.14705300  0.85649000  1
  O  O71  1  0.85294700  0.03807700  0.60649000  1
  O  O72  1  0.20873400  0.32542400  0.37048300  1
  O  O73  1  0.32542400  0.29126600  0.12048300  1
  O  O74  1  0.17457600  0.20873400  0.62048300  1
  O  O75  1  0.29126600  0.17457600  0.87048300  1
  O  O76  1  0.29126600  0.67457600  0.87951700  1
  O  O77  1  0.17457600  0.70873400  0.12951700  1
  O  O78  1  0.32542400  0.79126600  0.62951700  1
  O  O79  1  0.20873400  0.82542400  0.37951700  1
  O  O80  1  0.56244100  0.19633500  0.12045700  1
  O  O81  1  0.19633500  0.93755900  0.87045700  1
  O  O82  1  0.30366500  0.56244100  0.37045700  1
  O  O83  1  0.43755900  0.80366500  0.12045700  1
  O  O84  1  0.93755900  0.80366500  0.12954300  1
  O  O85  1  0.80366500  0.56244100  0.87954300  1
  O  O86  1  0.19633500  0.43755900  0.87954300  1
  O  O87  1  0.56244100  0.69633500  0.62954300  1
  O  O88  1  0.14705300  0.46192300  0.14351000  1
  O  O89  1  0.96192300  0.85294700  0.39351000  1
  O  O90  1  0.53807700  0.64705300  0.89351000  1
  O  O91  1  0.35294700  0.03807700  0.64351000  1
  O  O92  1  0.44784300  0.87086100  0.40760100  1
  O  O93  1  0.87086100  0.05215700  0.15760100  1
  O  O94  1  0.12913900  0.94784300  0.15760100  1
  O  O95  1  0.05215700  0.62913900  0.90760100  1
  O  O96  1  0.05215700  0.12913900  0.84239900  1
  O  O97  1  0.12913900  0.44784300  0.59239900  1
  O  O98  1  0.37086100  0.05215700  0.09239900  1
  O  O99  1  0.94784300  0.87086100  0.84239900  1
  O  O100  1  0.14705300  0.96192300  0.60649000  1
  O  O101  1  0.46192300  0.85294700  0.85649000  1
  O  O102  1  0.03807700  0.64705300  0.35649000  1
  O  O103  1  0.35294700  0.53807700  0.10649000  1
