# generated using pymatgen
data_Sr(NdSe2)2
_symmetry_space_group_name_H-M   'P 1'
_cell_length_a   9.07282200
_cell_length_b   9.07282200
_cell_length_c   9.06720600
_cell_angle_alpha   90.00000000
_cell_angle_beta   90.00000000
_cell_angle_gamma   90.00000000
_symmetry_Int_Tables_number   1
_chemical_formula_structural   Sr(NdSe2)2
_chemical_formula_sum   'Sr4 Nd8 Se16'
_cell_volume   746.37702715
_cell_formula_units_Z   4
loop_
 _symmetry_equiv_pos_site_id
 _symmetry_equiv_pos_as_xyz
  1  'x, y, z'
loop_
 _atom_site_type_symbol
 _atom_site_label
 _atom_site_symmetry_multiplicity
 _atom_site_fract_x
 _atom_site_fract_y
 _atom_site_fract_z
 _atom_site_occupancy
  Sr  Sr0  1  0.00000000  0.00000000  0.50000000  1
  Sr  Sr1  1  0.50000000  0.00000000  0.75000000  1
  Sr  Sr2  1  0.50000000  0.50000000  0.00000000  1
  Sr  Sr3  1  0.00000000  0.50000000  0.25000000  1
  Nd  Nd4  1  0.87374600  0.75000000  0.87500000  1
  Nd  Nd5  1  0.62625400  0.75000000  0.37500000  1
  Nd  Nd6  1  0.75000000  0.37374600  0.62500000  1
  Nd  Nd7  1  0.75000000  0.12625400  0.12500000  1
  Nd  Nd8  1  0.37374600  0.25000000  0.37500000  1
  Nd  Nd9  1  0.12625400  0.25000000  0.87500000  1
  Nd  Nd10  1  0.25000000  0.87374600  0.12500000  1
  Nd  Nd11  1  0.25000000  0.62625400  0.62500000  1
  Se  Se12  1  0.67296750  0.07599350  0.44202050  1
  Se  Se13  1  0.67296750  0.42400650  0.30797950  1
  Se  Se14  1  0.42400650  0.32703250  0.69202050  1
  Se  Se15  1  0.07599350  0.32703250  0.55797950  1
  Se  Se16  1  0.82703250  0.07599350  0.80797950  1
  Se  Se17  1  0.07599350  0.17296750  0.19202050  1
  Se  Se18  1  0.42400650  0.17296750  0.05797950  1
  Se  Se19  1  0.82703250  0.42400650  0.94202050  1
  Se  Se20  1  0.17296750  0.57599350  0.94202050  1
  Se  Se21  1  0.17296750  0.92400650  0.80797950  1
  Se  Se22  1  0.92400650  0.82703250  0.19202050  1
  Se  Se23  1  0.57599350  0.82703250  0.05797950  1
  Se  Se24  1  0.32703250  0.57599350  0.30797950  1
  Se  Se25  1  0.57599350  0.67296750  0.69202050  1
  Se  Se26  1  0.92400650  0.67296750  0.55797950  1
  Se  Se27  1  0.32703250  0.92400650  0.44202050  1
