# generated using pymatgen
data_La2S3
_symmetry_space_group_name_H-M   'P 1'
_cell_length_a   8.76579000
_cell_length_b   8.76579000
_cell_length_c   26.16510200
_cell_angle_alpha   90.00000000
_cell_angle_beta   90.00000000
_cell_angle_gamma   90.00000000
_symmetry_Int_Tables_number   1
_chemical_formula_structural   La2S3
_chemical_formula_sum   'La32 S48'
_cell_volume   2010.50221728
_cell_formula_units_Z   16
loop_
 _symmetry_equiv_pos_site_id
 _symmetry_equiv_pos_as_xyz
  1  'x, y, z'
loop_
 _atom_site_type_symbol
 _atom_site_label
 _atom_site_symmetry_multiplicity
 _atom_site_fract_x
 _atom_site_fract_y
 _atom_site_fract_z
 _atom_site_occupancy
  La  La0  1  0.00000000  0.00000000  0.16500700  1
  La  La1  1  0.37935900  0.75000000  0.12500000  1
  La  La2  1  0.25864250  0.14031750  0.03875450  1
  La  La3  1  0.00000000  0.50000000  0.08499300  1
  La  La4  1  0.74135750  0.85968250  0.03875450  1
  La  La5  1  0.62064100  0.25000000  0.12500000  1
  La  La6  1  0.35968250  0.75864250  0.46124550  1
  La  La7  1  0.25000000  0.12064100  0.37500000  1
  La  La8  1  0.00000000  0.50000000  0.41500700  1
  La  La9  1  0.75000000  0.87935900  0.37500000  1
  La  La10  1  0.64031750  0.24135750  0.46124550  1
  La  La11  1  0.50000000  0.50000000  0.33499300  1
  La  La12  1  0.85968250  0.24135750  0.28875450  1
  La  La13  1  0.74135750  0.64031750  0.21124550  1
  La  La14  1  0.25864250  0.35968250  0.21124550  1
  La  La15  1  0.14031750  0.75864250  0.28875450  1
  La  La16  1  0.50000000  0.50000000  0.66500700  1
  La  La17  1  0.87935900  0.25000000  0.62500000  1
  La  La18  1  0.75864250  0.64031750  0.53875450  1
  La  La19  1  0.50000000  0.00000000  0.58499300  1
  La  La20  1  0.24135750  0.35968250  0.53875450  1
  La  La21  1  0.12064100  0.75000000  0.62500000  1
  La  La22  1  0.85968250  0.25864250  0.96124550  1
  La  La23  1  0.75000000  0.62064100  0.87500000  1
  La  La24  1  0.50000000  0.00000000  0.91500700  1
  La  La25  1  0.25000000  0.37935900  0.87500000  1
  La  La26  1  0.14031750  0.74135750  0.96124550  1
  La  La27  1  0.00000000  0.00000000  0.83499300  1
  La  La28  1  0.35968250  0.74135750  0.78875450  1
  La  La29  1  0.24135750  0.14031750  0.71124550  1
  La  La30  1  0.75864250  0.85968250  0.71124550  1
  La  La31  1  0.64031750  0.25864250  0.78875450  1
  S  S32  1  0.68238150  0.92718950  0.14464150  1
  S  S33  1  0.07104900  0.67648000  0.18318200  1
  S  S34  1  0.07104900  0.82352000  0.06681800  1
  S  S35  1  0.92895100  0.32352000  0.18318200  1
  S  S36  1  0.92895100  0.17648000  0.06681800  1
  S  S37  1  0.68238150  0.57281050  0.10535850  1
  S  S38  1  0.31761850  0.07281050  0.14464150  1
  S  S39  1  0.31761850  0.42718950  0.10535850  1
  S  S40  1  0.66709900  0.91922100  0.48339000  1
  S  S41  1  0.58077900  0.16709900  0.01661000  1
  S  S42  1  0.07281050  0.81761850  0.39464150  1
  S  S43  1  0.41922100  0.83290100  0.01661000  1
  S  S44  1  0.92718950  0.18238150  0.39464150  1
  S  S45  1  0.33290100  0.08077900  0.48339000  1
  S  S46  1  0.67648000  0.57104900  0.43318200  1
  S  S47  1  0.32352000  0.42895100  0.43318200  1
  S  S48  1  0.17648000  0.42895100  0.31681800  1
  S  S49  1  0.57281050  0.18238150  0.35535850  1
  S  S50  1  0.42718950  0.81761850  0.35535850  1
  S  S51  1  0.58077900  0.33290100  0.23339000  1
  S  S52  1  0.41922100  0.66709900  0.23339000  1
  S  S53  1  0.82352000  0.57104900  0.31681800  1
  S  S54  1  0.16709900  0.08077900  0.26661000  1
  S  S55  1  0.83290100  0.91922100  0.26661000  1
  S  S56  1  0.18238150  0.42718950  0.64464150  1
  S  S57  1  0.57104900  0.17648000  0.68318200  1
  S  S58  1  0.57104900  0.32352000  0.56681800  1
  S  S59  1  0.42895100  0.82352000  0.68318200  1
  S  S60  1  0.42895100  0.67648000  0.56681800  1
  S  S61  1  0.18238150  0.07281050  0.60535850  1
  S  S62  1  0.81761850  0.57281050  0.64464150  1
  S  S63  1  0.81761850  0.92718950  0.60535850  1
  S  S64  1  0.16709900  0.41922100  0.98339000  1
  S  S65  1  0.08077900  0.66709900  0.51661000  1
  S  S66  1  0.57281050  0.31761850  0.89464150  1
  S  S67  1  0.91922100  0.33290100  0.51661000  1
  S  S68  1  0.42718950  0.68238150  0.89464150  1
  S  S69  1  0.83290100  0.58077900  0.98339000  1
  S  S70  1  0.17648000  0.07104900  0.93318200  1
  S  S71  1  0.82352000  0.92895100  0.93318200  1
  S  S72  1  0.67648000  0.92895100  0.81681800  1
  S  S73  1  0.07281050  0.68238150  0.85535850  1
  S  S74  1  0.92718950  0.31761850  0.85535850  1
  S  S75  1  0.08077900  0.83290100  0.73339000  1
  S  S76  1  0.91922100  0.16709900  0.73339000  1
  S  S77  1  0.32352000  0.07104900  0.81681800  1
  S  S78  1  0.66709900  0.58077900  0.76661000  1
  S  S79  1  0.33290100  0.41922100  0.76661000  1
