# generated using pymatgen
data_LiV2P3O11
_symmetry_space_group_name_H-M   'P 1'
_cell_length_a   11.68743400
_cell_length_b   8.70108000
_cell_length_c   8.82018156
_cell_angle_alpha   90.00000000
_cell_angle_beta   114.62349909
_cell_angle_gamma   90.00000000
_symmetry_Int_Tables_number   1
_chemical_formula_structural   LiV2P3O11
_chemical_formula_sum   'Li4 V8 P12 O44'
_cell_volume   815.38917009
_cell_formula_units_Z   4
loop_
 _symmetry_equiv_pos_site_id
 _symmetry_equiv_pos_as_xyz
  1  'x, y, z'
loop_
 _atom_site_type_symbol
 _atom_site_label
 _atom_site_symmetry_multiplicity
 _atom_site_fract_x
 _atom_site_fract_y
 _atom_site_fract_z
 _atom_site_occupancy
  Li  Li0  1  0.25088900  0.73442500  0.73929400  1
  Li  Li1  1  0.74911100  0.73442500  0.26070600  1
  Li  Li2  1  0.75088900  0.23442500  0.73929400  1
  Li  Li3  1  0.24911100  0.23442500  0.26070600  1
  V  V4  1  0.87593400  0.23835200  0.20754800  1
  V  V5  1  0.12390050  0.76124650  0.29145200  1
  V  V6  1  0.87609950  0.76124650  0.70854800  1
  V  V7  1  0.12406600  0.23835200  0.79245200  1
  V  V8  1  0.37593400  0.73835200  0.20754800  1
  V  V9  1  0.62390050  0.26124650  0.29145200  1
  V  V10  1  0.37609950  0.26124650  0.70854800  1
  V  V11  1  0.62406600  0.73835200  0.79245200  1
  P  P12  1  0.11201750  0.56349350  0.96418400  1
  P  P13  1  0.11251550  0.43557450  0.46470800  1
  P  P14  1  0.88798250  0.56349350  0.03581600  1
  P  P15  1  0.00000000  0.04348300  0.00000000  1
  P  P16  1  0.00000000  0.95666600  0.50000000  1
  P  P17  1  0.88748450  0.43557450  0.53529200  1
  P  P18  1  0.61201750  0.06349350  0.96418400  1
  P  P19  1  0.61251550  0.93557450  0.46470800  1
  P  P20  1  0.38798250  0.06349350  0.03581600  1
  P  P21  1  0.50000000  0.54348300  0.00000000  1
  P  P22  1  0.50000000  0.45666600  0.50000000  1
  P  P23  1  0.38748450  0.93557450  0.53529200  1
  O  O24  1  0.81297750  0.57244550  0.55323100  1
  O  O25  1  0.56933900  0.55420300  0.65651300  1
  O  O26  1  0.18628500  0.42895900  0.94211000  1
  O  O27  1  0.94006950  0.32895450  0.68551100  1
  O  O28  1  0.00000000  0.51044800  0.50000000  1
  O  O29  1  0.05820550  0.67066150  0.81400900  1
  O  O30  1  0.89694800  0.14845800  0.01517100  1
  O  O31  1  0.18813650  0.65590450  0.12643400  1
  O  O32  1  0.18847550  0.34338550  0.62694200  1
  O  O33  1  0.00000000  0.48797400  0.00000000  1
  O  O34  1  0.43066100  0.55420300  0.34348700  1
  O  O35  1  0.89728550  0.85112050  0.51585800  1
  O  O36  1  0.05993050  0.32895450  0.31448900  1
  O  O37  1  0.94179450  0.67066150  0.18599100  1
  O  O38  1  0.42979450  0.44704650  0.84254400  1
  O  O39  1  0.81152450  0.34338550  0.37305800  1
  O  O40  1  0.10305200  0.14845800  0.98482900  1
  O  O41  1  0.57020550  0.44704650  0.15745600  1
  O  O42  1  0.81186350  0.65590450  0.87356600  1
  O  O43  1  0.18702250  0.57244550  0.44676900  1
  O  O44  1  0.10271450  0.85112050  0.48414200  1
  O  O45  1  0.81371500  0.42895900  0.05789000  1
  O  O46  1  0.31297750  0.07244550  0.55323100  1
  O  O47  1  0.06933900  0.05420300  0.65651300  1
  O  O48  1  0.68628500  0.92895900  0.94211000  1
  O  O49  1  0.44006950  0.82895450  0.68551100  1
  O  O50  1  0.50000000  0.01044800  0.50000000  1
  O  O51  1  0.55820550  0.17066150  0.81400900  1
  O  O52  1  0.39694800  0.64845800  0.01517100  1
  O  O53  1  0.68813650  0.15590450  0.12643400  1
  O  O54  1  0.68847550  0.84338550  0.62694200  1
  O  O55  1  0.50000000  0.98797400  0.00000000  1
  O  O56  1  0.93066100  0.05420300  0.34348700  1
  O  O57  1  0.39728550  0.35112050  0.51585800  1
  O  O58  1  0.55993050  0.82895450  0.31448900  1
  O  O59  1  0.44179450  0.17066150  0.18599100  1
  O  O60  1  0.92979450  0.94704650  0.84254400  1
  O  O61  1  0.31152450  0.84338550  0.37305800  1
  O  O62  1  0.60305200  0.64845800  0.98482900  1
  O  O63  1  0.07020550  0.94704650  0.15745600  1
  O  O64  1  0.31186350  0.15590450  0.87356600  1
  O  O65  1  0.68702250  0.07244550  0.44676900  1
  O  O66  1  0.60271450  0.35112050  0.48414200  1
  O  O67  1  0.31371500  0.92895900  0.05789000  1
