# generated using pymatgen
data_BeI2
_symmetry_space_group_name_H-M   'P 1'
_cell_length_a   12.99428200
_cell_length_b   12.99428200
_cell_length_c   21.38633400
_cell_angle_alpha   90.00000000
_cell_angle_beta   90.00000000
_cell_angle_gamma   90.00000000
_symmetry_Int_Tables_number   1
_chemical_formula_structural   BeI2
_chemical_formula_sum   'Be32 I64'
_cell_volume   3611.11168173
_cell_formula_units_Z   32
loop_
 _symmetry_equiv_pos_site_id
 _symmetry_equiv_pos_as_xyz
  1  'x, y, z'
loop_
 _atom_site_type_symbol
 _atom_site_label
 _atom_site_symmetry_multiplicity
 _atom_site_fract_x
 _atom_site_fract_y
 _atom_site_fract_z
 _atom_site_occupancy
  Be  Be0  1  0.41966150  0.12391450  0.31329650  1
  Be  Be1  1  0.37608550  0.41966150  0.06329650  1
  Be  Be2  1  0.62391450  0.58033850  0.06329650  1
  Be  Be3  1  0.41966150  0.37608550  0.43670350  1
  Be  Be4  1  0.58033850  0.62391450  0.43670350  1
  Be  Be5  1  0.12391450  0.41966150  0.18670350  1
  Be  Be6  1  0.87608550  0.58033850  0.18670350  1
  Be  Be7  1  0.58033850  0.87608550  0.31329650  1
  Be  Be8  1  0.08033850  0.87608550  0.43670350  1
  Be  Be9  1  0.62391450  0.08033850  0.18670350  1
  Be  Be10  1  0.37608550  0.91966150  0.18670350  1
  Be  Be11  1  0.08033850  0.62391450  0.31329650  1
  Be  Be12  1  0.91966150  0.37608550  0.31329650  1
  Be  Be13  1  0.87608550  0.08033850  0.06329650  1
  Be  Be14  1  0.12391450  0.91966150  0.06329650  1
  Be  Be15  1  0.91966150  0.12391450  0.43670350  1
  Be  Be16  1  0.91966150  0.62391450  0.81329650  1
  Be  Be17  1  0.87608550  0.91966150  0.56329650  1
  Be  Be18  1  0.12391450  0.08033850  0.56329650  1
  Be  Be19  1  0.91966150  0.87608550  0.93670350  1
  Be  Be20  1  0.08033850  0.12391450  0.93670350  1
  Be  Be21  1  0.62391450  0.91966150  0.68670350  1
  Be  Be22  1  0.37608550  0.08033850  0.68670350  1
  Be  Be23  1  0.08033850  0.37608550  0.81329650  1
  Be  Be24  1  0.58033850  0.37608550  0.93670350  1
  Be  Be25  1  0.12391450  0.58033850  0.68670350  1
  Be  Be26  1  0.87608550  0.41966150  0.68670350  1
  Be  Be27  1  0.58033850  0.12391450  0.81329650  1
  Be  Be28  1  0.41966150  0.87608550  0.81329650  1
  Be  Be29  1  0.37608550  0.58033850  0.56329650  1
  Be  Be30  1  0.62391450  0.41966150  0.56329650  1
  Be  Be31  1  0.41966150  0.62391450  0.93670350  1
  I  I32  1  0.54269700  0.21440800  0.24901500  1
  I  I33  1  0.78559200  0.04269700  0.49901500  1
  I  I34  1  0.21440800  0.95730300  0.49901500  1
  I  I35  1  0.04269700  0.78559200  0.00098500  1
  I  I36  1  0.95730300  0.21440800  0.00098500  1
  I  I37  1  0.21440800  0.54269700  0.25098500  1
  I  I38  1  0.78559200  0.45730300  0.25098500  1
  I  I39  1  0.45730300  0.78559200  0.24901500  1
  I  I40  1  0.45730300  0.28559200  0.00098500  1
  I  I41  1  0.71440800  0.95730300  0.25098500  1
  I  I42  1  0.28559200  0.04269700  0.25098500  1
  I  I43  1  0.95730300  0.71440800  0.24901500  1
  I  I44  1  0.04269700  0.28559200  0.24901500  1
  I  I45  1  0.28559200  0.45730300  0.49901500  1
  I  I46  1  0.71440800  0.54269700  0.49901500  1
  I  I47  1  0.54269700  0.71440800  0.00098500  1
  I  I48  1  0.50000000  0.00000000  0.38273000  1
  I  I49  1  0.50000000  0.50000000  0.13273000  1
  I  I50  1  0.50000000  0.50000000  0.36727000  1
  I  I51  1  0.00000000  0.50000000  0.11727000  1
  I  I52  1  0.00000000  0.00000000  0.36727000  1
  I  I53  1  0.50000000  0.00000000  0.11727000  1
  I  I54  1  0.00000000  0.50000000  0.38273000  1
  I  I55  1  0.00000000  0.00000000  0.13273000  1
  I  I56  1  0.32278800  0.25000000  0.37500000  1
  I  I57  1  0.25000000  0.32278800  0.12500000  1
  I  I58  1  0.75000000  0.67721200  0.12500000  1
  I  I59  1  0.67721200  0.75000000  0.37500000  1
  I  I60  1  0.17721200  0.75000000  0.37500000  1
  I  I61  1  0.75000000  0.17721200  0.12500000  1
  I  I62  1  0.25000000  0.82278800  0.12500000  1
  I  I63  1  0.82278800  0.25000000  0.37500000  1
  I  I64  1  0.04269700  0.71440800  0.74901500  1
  I  I65  1  0.28559200  0.54269700  0.99901500  1
  I  I66  1  0.71440800  0.45730300  0.99901500  1
  I  I67  1  0.54269700  0.28559200  0.50098500  1
  I  I68  1  0.45730300  0.71440800  0.50098500  1
  I  I69  1  0.71440800  0.04269700  0.75098500  1
  I  I70  1  0.28559200  0.95730300  0.75098500  1
  I  I71  1  0.95730300  0.28559200  0.74901500  1
  I  I72  1  0.95730300  0.78559200  0.50098500  1
  I  I73  1  0.21440800  0.45730300  0.75098500  1
  I  I74  1  0.78559200  0.54269700  0.75098500  1
  I  I75  1  0.45730300  0.21440800  0.74901500  1
  I  I76  1  0.54269700  0.78559200  0.74901500  1
  I  I77  1  0.78559200  0.95730300  0.99901500  1
  I  I78  1  0.21440800  0.04269700  0.99901500  1
  I  I79  1  0.04269700  0.21440800  0.50098500  1
  I  I80  1  0.00000000  0.50000000  0.88273000  1
  I  I81  1  0.00000000  0.00000000  0.63273000  1
  I  I82  1  0.00000000  0.00000000  0.86727000  1
  I  I83  1  0.50000000  0.00000000  0.61727000  1
  I  I84  1  0.50000000  0.50000000  0.86727000  1
  I  I85  1  0.00000000  0.50000000  0.61727000  1
  I  I86  1  0.50000000  0.00000000  0.88273000  1
  I  I87  1  0.50000000  0.50000000  0.63273000  1
  I  I88  1  0.82278800  0.75000000  0.87500000  1
  I  I89  1  0.75000000  0.82278800  0.62500000  1
  I  I90  1  0.25000000  0.17721200  0.62500000  1
  I  I91  1  0.17721200  0.25000000  0.87500000  1
  I  I92  1  0.67721200  0.25000000  0.87500000  1
  I  I93  1  0.25000000  0.67721200  0.62500000  1
  I  I94  1  0.75000000  0.32278800  0.62500000  1
  I  I95  1  0.32278800  0.75000000  0.87500000  1
