# generated using pymatgen
data_Al2CdSe4
_symmetry_space_group_name_H-M   'P 1'
_cell_length_a   10.97048600
_cell_length_b   10.97048600
_cell_length_c   10.97048600
_cell_angle_alpha   90.00000000
_cell_angle_beta   90.00000000
_cell_angle_gamma   90.00000000
_symmetry_Int_Tables_number   1
_chemical_formula_structural   Al2CdSe4
_chemical_formula_sum   'Al16 Cd8 Se32'
_cell_volume   1320.31513781
_cell_formula_units_Z   8
loop_
 _symmetry_equiv_pos_site_id
 _symmetry_equiv_pos_as_xyz
  1  'x, y, z'
loop_
 _atom_site_type_symbol
 _atom_site_label
 _atom_site_symmetry_multiplicity
 _atom_site_fract_x
 _atom_site_fract_y
 _atom_site_fract_z
 _atom_site_occupancy
  Al  Al0  1  0.12500000  0.62500000  0.12500000  1
  Al  Al1  1  0.12500000  0.87500000  0.37500000  1
  Al  Al2  1  0.37500000  0.62500000  0.37500000  1
  Al  Al3  1  0.37500000  0.87500000  0.12500000  1
  Al  Al4  1  0.12500000  0.12500000  0.62500000  1
  Al  Al5  1  0.12500000  0.37500000  0.87500000  1
  Al  Al6  1  0.37500000  0.12500000  0.87500000  1
  Al  Al7  1  0.37500000  0.37500000  0.62500000  1
  Al  Al8  1  0.62500000  0.62500000  0.62500000  1
  Al  Al9  1  0.62500000  0.87500000  0.87500000  1
  Al  Al10  1  0.87500000  0.62500000  0.87500000  1
  Al  Al11  1  0.87500000  0.87500000  0.62500000  1
  Al  Al12  1  0.62500000  0.12500000  0.12500000  1
  Al  Al13  1  0.62500000  0.37500000  0.37500000  1
  Al  Al14  1  0.87500000  0.12500000  0.37500000  1
  Al  Al15  1  0.87500000  0.37500000  0.12500000  1
  Cd  Cd16  1  0.25000000  0.25000000  0.25000000  1
  Cd  Cd17  1  0.50000000  0.00000000  0.50000000  1
  Cd  Cd18  1  0.25000000  0.75000000  0.75000000  1
  Cd  Cd19  1  0.50000000  0.50000000  0.00000000  1
  Cd  Cd20  1  0.75000000  0.25000000  0.75000000  1
  Cd  Cd21  1  0.00000000  0.00000000  0.00000000  1
  Cd  Cd22  1  0.75000000  0.75000000  0.25000000  1
  Cd  Cd23  1  0.00000000  0.50000000  0.50000000  1
  Se  Se24  1  0.63901700  0.13901700  0.36098300  1
  Se  Se25  1  0.11098300  0.38901700  0.11098300  1
  Se  Se26  1  0.13901700  0.86098300  0.13901700  1
  Se  Se27  1  0.11098300  0.11098300  0.38901700  1
  Se  Se28  1  0.38901700  0.11098300  0.11098300  1
  Se  Se29  1  0.38901700  0.38901700  0.38901700  1
  Se  Se30  1  0.86098300  0.13901700  0.13901700  1
  Se  Se31  1  0.36098300  0.86098300  0.36098300  1
  Se  Se32  1  0.63901700  0.63901700  0.86098300  1
  Se  Se33  1  0.11098300  0.88901700  0.61098300  1
  Se  Se34  1  0.13901700  0.36098300  0.63901700  1
  Se  Se35  1  0.11098300  0.61098300  0.88901700  1
  Se  Se36  1  0.38901700  0.61098300  0.61098300  1
  Se  Se37  1  0.38901700  0.88901700  0.88901700  1
  Se  Se38  1  0.86098300  0.63901700  0.63901700  1
  Se  Se39  1  0.36098300  0.36098300  0.86098300  1
  Se  Se40  1  0.13901700  0.13901700  0.86098300  1
  Se  Se41  1  0.61098300  0.38901700  0.61098300  1
  Se  Se42  1  0.63901700  0.86098300  0.63901700  1
  Se  Se43  1  0.61098300  0.11098300  0.88901700  1
  Se  Se44  1  0.88901700  0.11098300  0.61098300  1
  Se  Se45  1  0.88901700  0.38901700  0.88901700  1
  Se  Se46  1  0.36098300  0.13901700  0.63901700  1
  Se  Se47  1  0.86098300  0.86098300  0.86098300  1
  Se  Se48  1  0.13901700  0.63901700  0.36098300  1
  Se  Se49  1  0.61098300  0.88901700  0.11098300  1
  Se  Se50  1  0.63901700  0.36098300  0.13901700  1
  Se  Se51  1  0.61098300  0.61098300  0.38901700  1
  Se  Se52  1  0.88901700  0.61098300  0.11098300  1
  Se  Se53  1  0.88901700  0.88901700  0.38901700  1
  Se  Se54  1  0.36098300  0.63901700  0.13901700  1
  Se  Se55  1  0.86098300  0.36098300  0.36098300  1
