# generated using pymatgen
data_Ca(BS2)2
_symmetry_space_group_name_H-M   'P 1'
_cell_length_a   11.24945000
_cell_length_b   11.24945000
_cell_length_c   11.24945000
_cell_angle_alpha   90.00000000
_cell_angle_beta   90.00000000
_cell_angle_gamma   90.00000000
_symmetry_Int_Tables_number   1
_chemical_formula_structural   Ca(BS2)2
_chemical_formula_sum   'Ca12 B24 S48'
_cell_volume   1423.61930708
_cell_formula_units_Z   12
loop_
 _symmetry_equiv_pos_site_id
 _symmetry_equiv_pos_as_xyz
  1  'x, y, z'
loop_
 _atom_site_type_symbol
 _atom_site_label
 _atom_site_symmetry_multiplicity
 _atom_site_fract_x
 _atom_site_fract_y
 _atom_site_fract_z
 _atom_site_occupancy
  Ca  Ca0  1  0.37359500  0.12640500  0.87359500  1
  Ca  Ca1  1  0.12640500  0.87359500  0.37359500  1
  Ca  Ca2  1  0.87359500  0.37359500  0.12640500  1
  Ca  Ca3  1  0.62640500  0.62640500  0.62640500  1
  Ca  Ca4  1  0.62640500  0.87359500  0.12640500  1
  Ca  Ca5  1  0.87359500  0.12640500  0.62640500  1
  Ca  Ca6  1  0.12640500  0.62640500  0.87359500  1
  Ca  Ca7  1  0.37359500  0.37359500  0.37359500  1
  Ca  Ca8  1  0.00000000  0.50000000  0.50000000  1
  Ca  Ca9  1  0.50000000  0.50000000  0.00000000  1
  Ca  Ca10  1  0.50000000  0.00000000  0.50000000  1
  Ca  Ca11  1  0.00000000  0.00000000  0.00000000  1
  B  B12  1  0.62938200  0.19343600  0.14598900  1
  B  B13  1  0.12938200  0.30656400  0.85401100  1
  B  B14  1  0.37061800  0.69343600  0.35401100  1
  B  B15  1  0.30656400  0.85401100  0.12938200  1
  B  B16  1  0.35401100  0.37061800  0.69343600  1
  B  B17  1  0.85401100  0.12938200  0.30656400  1
  B  B18  1  0.19343600  0.14598900  0.62938200  1
  B  B19  1  0.14598900  0.62938200  0.19343600  1
  B  B20  1  0.69343600  0.35401100  0.37061800  1
  B  B21  1  0.80656400  0.64598900  0.87061800  1
  B  B22  1  0.64598900  0.87061800  0.80656400  1
  B  B23  1  0.87061800  0.80656400  0.64598900  1
  B  B24  1  0.37061800  0.80656400  0.85401100  1
  B  B25  1  0.87061800  0.69343600  0.14598900  1
  B  B26  1  0.62938200  0.30656400  0.64598900  1
  B  B27  1  0.69343600  0.14598900  0.87061800  1
  B  B28  1  0.64598900  0.62938200  0.30656400  1
  B  B29  1  0.14598900  0.87061800  0.69343600  1
  B  B30  1  0.80656400  0.85401100  0.37061800  1
  B  B31  1  0.85401100  0.37061800  0.80656400  1
  B  B32  1  0.30656400  0.64598900  0.62938200  1
  B  B33  1  0.19343600  0.35401100  0.12938200  1
  B  B34  1  0.35401100  0.12938200  0.19343600  1
  B  B35  1  0.12938200  0.19343600  0.35401100  1
  S  S36  1  0.58493900  0.27730300  0.47957300  1
  S  S37  1  0.08493900  0.22269700  0.52042700  1
  S  S38  1  0.41506100  0.77730300  0.02042700  1
  S  S39  1  0.22269700  0.52042700  0.08493900  1
  S  S40  1  0.02042700  0.41506100  0.77730300  1
  S  S41  1  0.52042700  0.08493900  0.22269700  1
  S  S42  1  0.27730300  0.47957300  0.58493900  1
  S  S43  1  0.47957300  0.58493900  0.27730300  1
  S  S44  1  0.77730300  0.02042700  0.41506100  1
  S  S45  1  0.72269700  0.97957300  0.91506100  1
  S  S46  1  0.97957300  0.91506100  0.72269700  1
  S  S47  1  0.91506100  0.72269700  0.97957300  1
  S  S48  1  0.41506100  0.72269700  0.52042700  1
  S  S49  1  0.91506100  0.77730300  0.47957300  1
  S  S50  1  0.58493900  0.22269700  0.97957300  1
  S  S51  1  0.77730300  0.47957300  0.91506100  1
  S  S52  1  0.97957300  0.58493900  0.22269700  1
  S  S53  1  0.47957300  0.91506100  0.77730300  1
  S  S54  1  0.72269700  0.52042700  0.41506100  1
  S  S55  1  0.52042700  0.41506100  0.72269700  1
  S  S56  1  0.22269700  0.97957300  0.58493900  1
  S  S57  1  0.27730300  0.02042700  0.08493900  1
  S  S58  1  0.02042700  0.08493900  0.27730300  1
  S  S59  1  0.08493900  0.27730300  0.02042700  1
  S  S60  1  0.85094000  0.28814200  0.37173700  1
  S  S61  1  0.35094000  0.21185800  0.62826300  1
  S  S62  1  0.14906000  0.78814200  0.12826300  1
  S  S63  1  0.21185800  0.62826300  0.35094000  1
  S  S64  1  0.12826300  0.14906000  0.78814200  1
  S  S65  1  0.62826300  0.35094000  0.21185800  1
  S  S66  1  0.28814200  0.37173700  0.85094000  1
  S  S67  1  0.37173700  0.85094000  0.28814200  1
  S  S68  1  0.78814200  0.12826300  0.14906000  1
  S  S69  1  0.71185800  0.87173700  0.64906000  1
  S  S70  1  0.87173700  0.64906000  0.71185800  1
  S  S71  1  0.64906000  0.71185800  0.87173700  1
  S  S72  1  0.14906000  0.71185800  0.62826300  1
  S  S73  1  0.64906000  0.78814200  0.37173700  1
  S  S74  1  0.85094000  0.21185800  0.87173700  1
  S  S75  1  0.78814200  0.37173700  0.64906000  1
  S  S76  1  0.87173700  0.85094000  0.21185800  1
  S  S77  1  0.37173700  0.64906000  0.78814200  1
  S  S78  1  0.71185800  0.62826300  0.14906000  1
  S  S79  1  0.62826300  0.14906000  0.71185800  1
  S  S80  1  0.21185800  0.87173700  0.85094000  1
  S  S81  1  0.28814200  0.12826300  0.35094000  1
  S  S82  1  0.12826300  0.35094000  0.28814200  1
  S  S83  1  0.35094000  0.28814200  0.12826300  1
