# generated using pymatgen
data_Ba(NdSe2)2
_symmetry_space_group_name_H-M   'P 1'
_cell_length_a   9.23247400
_cell_length_b   9.23247400
_cell_length_c   9.21051600
_cell_angle_alpha   90.00000000
_cell_angle_beta   90.00000000
_cell_angle_gamma   90.00000000
_symmetry_Int_Tables_number   1
_chemical_formula_structural   Ba(NdSe2)2
_chemical_formula_sum   'Ba4 Nd8 Se16'
_cell_volume   785.09126955
_cell_formula_units_Z   4
loop_
 _symmetry_equiv_pos_site_id
 _symmetry_equiv_pos_as_xyz
  1  'x, y, z'
loop_
 _atom_site_type_symbol
 _atom_site_label
 _atom_site_symmetry_multiplicity
 _atom_site_fract_x
 _atom_site_fract_y
 _atom_site_fract_z
 _atom_site_occupancy
  Ba  Ba0  1  0.50000000  0.00000000  0.75000000  1
  Ba  Ba1  1  0.00000000  0.00000000  0.50000000  1
  Ba  Ba2  1  0.00000000  0.50000000  0.25000000  1
  Ba  Ba3  1  0.50000000  0.50000000  0.00000000  1
  Nd  Nd4  1  0.75000000  0.62354100  0.62500000  1
  Nd  Nd5  1  0.37645900  0.75000000  0.37500000  1
  Nd  Nd6  1  0.25000000  0.37645900  0.62500000  1
  Nd  Nd7  1  0.62354100  0.25000000  0.37500000  1
  Nd  Nd8  1  0.25000000  0.12354100  0.12500000  1
  Nd  Nd9  1  0.87645900  0.25000000  0.87500000  1
  Nd  Nd10  1  0.75000000  0.87645900  0.12500000  1
  Nd  Nd11  1  0.12354100  0.75000000  0.87500000  1
  Se  Se12  1  0.66758800  0.92187800  0.43613000  1
  Se  Se13  1  0.92187800  0.16758800  0.18613000  1
  Se  Se14  1  0.92187800  0.33241200  0.56387000  1
  Se  Se15  1  0.57812200  0.16758800  0.06387000  1
  Se  Se16  1  0.57812200  0.33241200  0.68613000  1
  Se  Se17  1  0.83241200  0.92187800  0.81387000  1
  Se  Se18  1  0.66758800  0.57812200  0.31387000  1
  Se  Se19  1  0.83241200  0.57812200  0.93613000  1
  Se  Se20  1  0.16758800  0.42187800  0.93613000  1
  Se  Se21  1  0.42187800  0.66758800  0.68613000  1
  Se  Se22  1  0.42187800  0.83241200  0.06387000  1
  Se  Se23  1  0.07812200  0.66758800  0.56387000  1
  Se  Se24  1  0.07812200  0.83241200  0.18613000  1
  Se  Se25  1  0.33241200  0.42187800  0.31387000  1
  Se  Se26  1  0.16758800  0.07812200  0.81387000  1
  Se  Se27  1  0.33241200  0.07812200  0.43613000  1
