# generated using pymatgen
data_Sr(PrSe2)2
_symmetry_space_group_name_H-M   'P 1'
_cell_length_a   9.10970000
_cell_length_b   9.10970000
_cell_length_c   9.10092400
_cell_angle_alpha   90.00000000
_cell_angle_beta   90.00000000
_cell_angle_gamma   90.00000000
_symmetry_Int_Tables_number   1
_chemical_formula_structural   Sr(PrSe2)2
_chemical_formula_sum   'Sr4 Pr8 Se16'
_cell_volume   755.25504987
_cell_formula_units_Z   4
loop_
 _symmetry_equiv_pos_site_id
 _symmetry_equiv_pos_as_xyz
  1  'x, y, z'
loop_
 _atom_site_type_symbol
 _atom_site_label
 _atom_site_symmetry_multiplicity
 _atom_site_fract_x
 _atom_site_fract_y
 _atom_site_fract_z
 _atom_site_occupancy
  Sr  Sr0  1  0.00000000  0.00000000  0.50000000  1
  Sr  Sr1  1  0.50000000  0.00000000  0.75000000  1
  Sr  Sr2  1  0.50000000  0.50000000  0.00000000  1
  Sr  Sr3  1  0.00000000  0.50000000  0.25000000  1
  Pr  Pr4  1  0.87327100  0.75000000  0.87500000  1
  Pr  Pr5  1  0.75000000  0.37327100  0.62500000  1
  Pr  Pr6  1  0.62672900  0.75000000  0.37500000  1
  Pr  Pr7  1  0.75000000  0.12672900  0.12500000  1
  Pr  Pr8  1  0.37327100  0.25000000  0.37500000  1
  Pr  Pr9  1  0.25000000  0.87327100  0.12500000  1
  Pr  Pr10  1  0.12672900  0.25000000  0.87500000  1
  Pr  Pr11  1  0.25000000  0.62672900  0.62500000  1
  Se  Se12  1  0.67312850  0.07625550  0.44397050  1
  Se  Se13  1  0.82687150  0.07625550  0.80602950  1
  Se  Se14  1  0.67312850  0.42374450  0.30602950  1
  Se  Se15  1  0.07625550  0.32687150  0.55602950  1
  Se  Se16  1  0.42374450  0.32687150  0.69397050  1
  Se  Se17  1  0.07625550  0.17312850  0.19397050  1
  Se  Se18  1  0.42374450  0.17312850  0.05602950  1
  Se  Se19  1  0.82687150  0.42374450  0.94397050  1
  Se  Se20  1  0.17312850  0.57625550  0.94397050  1
  Se  Se21  1  0.32687150  0.57625550  0.30602950  1
  Se  Se22  1  0.17312850  0.92374450  0.80602950  1
  Se  Se23  1  0.57625550  0.82687150  0.05602950  1
  Se  Se24  1  0.92374450  0.82687150  0.19397050  1
  Se  Se25  1  0.57625550  0.67312850  0.69397050  1
  Se  Se26  1  0.92374450  0.67312850  0.55602950  1
  Se  Se27  1  0.32687150  0.92374450  0.44397050  1
