# generated using pymatgen
data_NdTi3Fe(CuO4)3
_symmetry_space_group_name_H-M   'P 1'
_cell_length_a   10.60095672
_cell_length_b   10.60095672
_cell_length_c   6.48237973
_cell_angle_alpha   90.00000000
_cell_angle_beta   90.00000000
_cell_angle_gamma   120.00000000
_symmetry_Int_Tables_number   1
_chemical_formula_structural   NdTi3Fe(CuO4)3
_chemical_formula_sum   'Nd3 Ti9 Fe3 Cu9 O36'
_cell_volume   630.89229326
_cell_formula_units_Z   3
loop_
 _symmetry_equiv_pos_site_id
 _symmetry_equiv_pos_as_xyz
  1  'x, y, z'
loop_
 _atom_site_type_symbol
 _atom_site_label
 _atom_site_symmetry_multiplicity
 _atom_site_fract_x
 _atom_site_fract_y
 _atom_site_fract_z
 _atom_site_occupancy
  Nd  Nd0  1  0.00000000  0.00000000  0.00000000  1
  Nd  Nd1  1  0.66666667  0.33333333  0.33333333  1
  Nd  Nd2  1  0.33333333  0.66666667  0.66666667  1
  Ti  Ti3  1  0.66666667  0.83333333  0.83333333  1
  Ti  Ti4  1  0.83333333  0.16666667  0.16666667  1
  Ti  Ti5  1  0.16666667  0.33333333  0.83333333  1
  Ti  Ti6  1  0.33333333  0.16666667  0.16666667  1
  Ti  Ti7  1  0.50000000  0.50000000  0.50000000  1
  Ti  Ti8  1  0.83333333  0.66666667  0.16666667  1
  Ti  Ti9  1  0.00000000  0.50000000  0.50000000  1
  Ti  Ti10  1  0.16666667  0.83333333  0.83333333  1
  Ti  Ti11  1  0.50000000  0.00000000  0.50000000  1
  Fe  Fe12  1  0.00000000  0.00000000  0.50000000  1
  Fe  Fe13  1  0.66666667  0.33333333  0.83333333  1
  Fe  Fe14  1  0.33333333  0.66666667  0.16666667  1
  Cu  Cu15  1  0.66666667  0.83333333  0.33333333  1
  Cu  Cu16  1  0.83333333  0.16666667  0.66666667  1
  Cu  Cu17  1  0.16666667  0.33333333  0.33333333  1
  Cu  Cu18  1  0.33333333  0.16666667  0.66666667  1
  Cu  Cu19  1  0.50000000  0.50000000  0.00000000  1
  Cu  Cu20  1  0.83333333  0.66666667  0.66666667  1
  Cu  Cu21  1  0.00000000  0.50000000  0.00000000  1
  Cu  Cu22  1  0.16666667  0.83333333  0.33333333  1
  Cu  Cu23  1  0.50000000  0.00000000  0.00000000  1
  O  O24  1  0.18852100  0.50419300  0.98010300  1
  O  O25  1  0.70791000  0.11614000  0.41697800  1
  O  O26  1  0.92510333  0.37457667  0.24968867  1
  O  O27  1  0.98233867  0.14481233  0.31343633  1
  O  O28  1  0.83752633  0.98233867  0.68656367  1
  O  O29  1  0.55052667  0.92510333  0.75031133  1
  O  O30  1  0.11614000  0.40823000  0.58302200  1
  O  O31  1  0.82914033  0.35099467  0.64676967  1
  O  O32  1  0.68432800  0.18852100  0.01989700  1
  O  O33  1  0.74156333  0.95875667  0.08364467  1
  O  O34  1  0.95875667  0.21719333  0.91635533  1
  O  O35  1  0.47814567  0.82914033  0.35323033  1
  O  O36  1  0.85518767  0.83752633  0.31343633  1
  O  O37  1  0.37457667  0.44947333  0.75031133  1
  O  O38  1  0.59177000  0.70791000  0.58302200  1
  O  O39  1  0.64900533  0.47814567  0.64676967  1
  O  O40  1  0.50419300  0.31567200  0.01989700  1
  O  O41  1  0.21719333  0.25843667  0.08364467  1
  O  O42  1  0.78280667  0.74156333  0.91635533  1
  O  O43  1  0.49580700  0.68432800  0.98010300  1
  O  O44  1  0.35099467  0.52185433  0.35323033  1
  O  O45  1  0.40823000  0.29209000  0.41697800  1
  O  O46  1  0.62542333  0.55052667  0.24968867  1
  O  O47  1  0.14481233  0.16247367  0.68656367  1
  O  O48  1  0.52185433  0.17085967  0.64676967  1
  O  O49  1  0.04124333  0.78280667  0.08364467  1
  O  O50  1  0.25843667  0.04124333  0.91635533  1
  O  O51  1  0.31567200  0.81147900  0.98010300  1
  O  O52  1  0.17085967  0.64900533  0.35323033  1
  O  O53  1  0.88386000  0.59177000  0.41697800  1
  O  O54  1  0.44947333  0.07489667  0.24968867  1
  O  O55  1  0.16247367  0.01766133  0.31343633  1
  O  O56  1  0.01766133  0.85518767  0.68656367  1
  O  O57  1  0.07489667  0.62542333  0.75031133  1
  O  O58  1  0.29209000  0.88386000  0.58302200  1
  O  O59  1  0.81147900  0.49580700  0.01989700  1
