# generated using pymatgen
data_Ca3(PO4)2
_symmetry_space_group_name_H-M   'P 1'
_cell_length_a   5.31429397
_cell_length_b   5.31429397
_cell_length_c   18.81251176
_cell_angle_alpha   90.00000000
_cell_angle_beta   90.00000000
_cell_angle_gamma   120.00000000
_symmetry_Int_Tables_number   1
_chemical_formula_structural   Ca3(PO4)2
_chemical_formula_sum   'Ca9 P6 O24'
_cell_volume   460.11730211
_cell_formula_units_Z   3
loop_
 _symmetry_equiv_pos_site_id
 _symmetry_equiv_pos_as_xyz
  1  'x, y, z'
loop_
 _atom_site_type_symbol
 _atom_site_label
 _atom_site_symmetry_multiplicity
 _atom_site_fract_x
 _atom_site_fract_y
 _atom_site_fract_z
 _atom_site_occupancy
  Ca  Ca0  1  0.00000000  0.00000000  0.00000000  1
  Ca  Ca1  1  0.00000000  0.00000000  0.20382300  1
  Ca  Ca2  1  0.66666667  0.33333333  0.12951033  1
  Ca  Ca3  1  0.66666667  0.33333333  0.33333333  1
  Ca  Ca4  1  0.66666667  0.33333333  0.53715633  1
  Ca  Ca5  1  0.33333333  0.66666667  0.46284367  1
  Ca  Ca6  1  0.33333333  0.66666667  0.66666667  1
  Ca  Ca7  1  0.33333333  0.66666667  0.87048967  1
  Ca  Ca8  1  0.00000000  0.00000000  0.79617700  1
  P  P9  1  0.33333333  0.66666667  0.07159767  1
  P  P10  1  0.33333333  0.66666667  0.26173567  1
  P  P11  1  0.00000000  0.00000000  0.40493100  1
  P  P12  1  0.00000000  0.00000000  0.59506900  1
  P  P13  1  0.66666667  0.33333333  0.73826433  1
  P  P14  1  0.66666667  0.33333333  0.92840233  1
  O  O15  1  0.49315933  0.50684067  0.23400067  1
  O  O16  1  0.49315933  0.98631867  0.23400067  1
  O  O17  1  0.01368133  0.50684067  0.23400067  1
  O  O18  1  0.65298533  0.82649267  0.09933267  1
  O  O19  1  0.17350733  0.82649267  0.09933267  1
  O  O20  1  0.00000000  0.00000000  0.32328300  1
  O  O21  1  0.66666667  0.33333333  0.01005033  1
  O  O22  1  0.17350733  0.34701467  0.09933267  1
  O  O23  1  0.15982600  0.84017400  0.56733400  1
  O  O24  1  0.15982600  0.31965200  0.56733400  1
  O  O25  1  0.68034800  0.84017400  0.56733400  1
  O  O26  1  0.31965200  0.15982600  0.43266600  1
  O  O27  1  0.84017400  0.15982600  0.43266600  1
  O  O28  1  0.66666667  0.33333333  0.65661633  1
  O  O29  1  0.33333333  0.66666667  0.34338367  1
  O  O30  1  0.84017400  0.68034800  0.43266600  1
  O  O31  1  0.82649267  0.17350733  0.90066733  1
  O  O32  1  0.82649267  0.65298533  0.90066733  1
  O  O33  1  0.34701467  0.17350733  0.90066733  1
  O  O34  1  0.98631867  0.49315933  0.76599933  1
  O  O35  1  0.50684067  0.49315933  0.76599933  1
  O  O36  1  0.33333333  0.66666667  0.98994967  1
  O  O37  1  0.00000000  0.00000000  0.67671700  1
  O  O38  1  0.50684067  0.01368133  0.76599933  1
