# generated using pymatgen
data_La5TlSe8
_symmetry_space_group_name_H-M   'P 1'
_cell_length_a   9.20608800
_cell_length_b   9.20608800
_cell_length_c   9.10466000
_cell_angle_alpha   90.00000000
_cell_angle_beta   90.00000000
_cell_angle_gamma   90.00000000
_symmetry_Int_Tables_number   1
_chemical_formula_structural   La5TlSe8
_chemical_formula_sum   'La10 Tl2 Se16'
_cell_volume   771.63865658
_cell_formula_units_Z   2
loop_
 _symmetry_equiv_pos_site_id
 _symmetry_equiv_pos_as_xyz
  1  'x, y, z'
loop_
 _atom_site_type_symbol
 _atom_site_label
 _atom_site_symmetry_multiplicity
 _atom_site_fract_x
 _atom_site_fract_y
 _atom_site_fract_z
 _atom_site_occupancy
  La  La0  1  0.86909450  0.25189350  0.62947050  1
  La  La1  1  0.00000000  0.50000000  0.25000000  1
  La  La2  1  0.63090550  0.24810650  0.12947050  1
  La  La3  1  0.25189350  0.13090550  0.37052950  1
  La  La4  1  0.24810650  0.36909450  0.87052950  1
  La  La5  1  0.36909450  0.75189350  0.12947050  1
  La  La6  1  0.50000000  0.00000000  0.75000000  1
  La  La7  1  0.13090550  0.74810650  0.62947050  1
  La  La8  1  0.75189350  0.63090550  0.87052950  1
  La  La9  1  0.74810650  0.86909450  0.37052950  1
  Tl  Tl10  1  0.00000000  0.00000000  0.00000000  1
  Tl  Tl11  1  0.50000000  0.50000000  0.50000000  1
  Se  Se12  1  0.57597700  0.31923300  0.81065300  1
  Se  Se13  1  0.33698700  0.07867700  0.04983400  1
  Se  Se14  1  0.07867700  0.66301300  0.95016600  1
  Se  Se15  1  0.16301300  0.42132300  0.54983400  1
  Se  Se16  1  0.18076700  0.07597700  0.68934700  1
  Se  Se17  1  0.92402300  0.18076700  0.31065300  1
  Se  Se18  1  0.31923300  0.42402300  0.18934700  1
  Se  Se19  1  0.42132300  0.83698700  0.45016600  1
  Se  Se20  1  0.07597700  0.81923300  0.31065300  1
  Se  Se21  1  0.83698700  0.57867700  0.54983400  1
  Se  Se22  1  0.57867700  0.16301300  0.45016600  1
  Se  Se23  1  0.66301300  0.92132300  0.04983400  1
  Se  Se24  1  0.68076700  0.57597700  0.18934700  1
  Se  Se25  1  0.42402300  0.68076700  0.81065300  1
  Se  Se26  1  0.81923300  0.92402300  0.68934700  1
  Se  Se27  1  0.92132300  0.33698700  0.95016600  1
