# generated using pymatgen
data_Li3GaN2
_symmetry_space_group_name_H-M   'P 1'
_cell_length_a   9.67541800
_cell_length_b   9.67541800
_cell_length_c   9.67541800
_cell_angle_alpha   90.00000000
_cell_angle_beta   90.00000000
_cell_angle_gamma   90.00000000
_symmetry_Int_Tables_number   1
_chemical_formula_structural   Li3GaN2
_chemical_formula_sum   'Li48 Ga16 N32'
_cell_volume   905.75180840
_cell_formula_units_Z   16
loop_
 _symmetry_equiv_pos_site_id
 _symmetry_equiv_pos_as_xyz
  1  'x, y, z'
loop_
 _atom_site_type_symbol
 _atom_site_label
 _atom_site_symmetry_multiplicity
 _atom_site_fract_x
 _atom_site_fract_y
 _atom_site_fract_z
 _atom_site_occupancy
  Li  Li0  1  0.12762800  0.10346100  0.63549100  1
  Li  Li1  1  0.37237200  0.89653900  0.13549100  1
  Li  Li2  1  0.12762800  0.89653900  0.86450900  1
  Li  Li3  1  0.13549100  0.37237200  0.89653900  1
  Li  Li4  1  0.10346100  0.63549100  0.12762800  1
  Li  Li5  1  0.10346100  0.36450900  0.37237200  1
  Li  Li6  1  0.36450900  0.37237200  0.10346100  1
  Li  Li7  1  0.89653900  0.13549100  0.37237200  1
  Li  Li8  1  0.86450900  0.12762800  0.89653900  1
  Li  Li9  1  0.89653900  0.86450900  0.12762800  1
  Li  Li10  1  0.63549100  0.12762800  0.10346100  1
  Li  Li11  1  0.37237200  0.10346100  0.36450900  1
  Li  Li12  1  0.37237200  0.39653900  0.86450900  1
  Li  Li13  1  0.12762800  0.60346100  0.36450900  1
  Li  Li14  1  0.37237200  0.60346100  0.63549100  1
  Li  Li15  1  0.36450900  0.12762800  0.60346100  1
  Li  Li16  1  0.39653900  0.86450900  0.37237200  1
  Li  Li17  1  0.39653900  0.13549100  0.12762800  1
  Li  Li18  1  0.13549100  0.12762800  0.39653900  1
  Li  Li19  1  0.12762800  0.39653900  0.13549100  1
  Li  Li20  1  0.63549100  0.37237200  0.60346100  1
  Li  Li21  1  0.60346100  0.63549100  0.37237200  1
  Li  Li22  1  0.86450900  0.37237200  0.39653900  1
  Li  Li23  1  0.60346100  0.36450900  0.12762800  1
  Li  Li24  1  0.62762800  0.60346100  0.13549100  1
  Li  Li25  1  0.87237200  0.39653900  0.63549100  1
  Li  Li26  1  0.62762800  0.39653900  0.36450900  1
  Li  Li27  1  0.63549100  0.87237200  0.39653900  1
  Li  Li28  1  0.60346100  0.13549100  0.62762800  1
  Li  Li29  1  0.60346100  0.86450900  0.87237200  1
  Li  Li30  1  0.86450900  0.87237200  0.60346100  1
  Li  Li31  1  0.39653900  0.63549100  0.87237200  1
  Li  Li32  1  0.36450900  0.62762800  0.39653900  1
  Li  Li33  1  0.39653900  0.36450900  0.62762800  1
  Li  Li34  1  0.13549100  0.62762800  0.60346100  1
  Li  Li35  1  0.87237200  0.60346100  0.86450900  1
  Li  Li36  1  0.87237200  0.89653900  0.36450900  1
  Li  Li37  1  0.62762800  0.10346100  0.86450900  1
  Li  Li38  1  0.87237200  0.10346100  0.13549100  1
  Li  Li39  1  0.86450900  0.62762800  0.10346100  1
  Li  Li40  1  0.89653900  0.36450900  0.87237200  1
  Li  Li41  1  0.89653900  0.63549100  0.62762800  1
  Li  Li42  1  0.63549100  0.62762800  0.89653900  1
  Li  Li43  1  0.62762800  0.89653900  0.63549100  1
  Li  Li44  1  0.13549100  0.87237200  0.10346100  1
  Li  Li45  1  0.10346100  0.13549100  0.87237200  1
  Li  Li46  1  0.36450900  0.87237200  0.89653900  1
  Li  Li47  1  0.10346100  0.86450900  0.62762800  1
  Ga  Ga48  1  0.86792500  0.36792500  0.13207500  1
  Ga  Ga49  1  0.36792500  0.13207500  0.86792500  1
  Ga  Ga50  1  0.13207500  0.13207500  0.13207500  1
  Ga  Ga51  1  0.13207500  0.86792500  0.36792500  1
  Ga  Ga52  1  0.13207500  0.63207500  0.86792500  1
  Ga  Ga53  1  0.63207500  0.86792500  0.13207500  1
  Ga  Ga54  1  0.36792500  0.36792500  0.36792500  1
  Ga  Ga55  1  0.86792500  0.13207500  0.63207500  1
  Ga  Ga56  1  0.36792500  0.86792500  0.63207500  1
  Ga  Ga57  1  0.86792500  0.63207500  0.36792500  1
  Ga  Ga58  1  0.63207500  0.63207500  0.63207500  1
  Ga  Ga59  1  0.63207500  0.36792500  0.86792500  1
  Ga  Ga60  1  0.63207500  0.13207500  0.36792500  1
  Ga  Ga61  1  0.13207500  0.36792500  0.63207500  1
  Ga  Ga62  1  0.86792500  0.86792500  0.86792500  1
  Ga  Ga63  1  0.36792500  0.63207500  0.13207500  1
  N  N64  1  0.00000000  0.25000000  0.52280000  1
  N  N65  1  0.25000000  0.25000000  0.75000000  1
  N  N66  1  0.25000000  0.25000000  0.25000000  1
  N  N67  1  0.25000000  0.75000000  0.25000000  1
  N  N68  1  0.25000000  0.97720000  0.50000000  1
  N  N69  1  0.50000000  0.25000000  0.97720000  1
  N  N70  1  0.02280000  0.00000000  0.25000000  1
  N  N71  1  0.00000000  0.25000000  0.02280000  1
  N  N72  1  0.25000000  0.47720000  0.50000000  1
  N  N73  1  0.52280000  0.00000000  0.25000000  1
  N  N74  1  0.50000000  0.25000000  0.47720000  1
  N  N75  1  0.47720000  0.50000000  0.25000000  1
  N  N76  1  0.97720000  0.50000000  0.25000000  1
  N  N77  1  0.25000000  0.52280000  0.00000000  1
  N  N78  1  0.25000000  0.02280000  0.00000000  1
  N  N79  1  0.75000000  0.25000000  0.25000000  1
  N  N80  1  0.50000000  0.75000000  0.02280000  1
  N  N81  1  0.75000000  0.75000000  0.25000000  1
  N  N82  1  0.75000000  0.75000000  0.75000000  1
  N  N83  1  0.75000000  0.25000000  0.75000000  1
  N  N84  1  0.75000000  0.47720000  0.00000000  1
  N  N85  1  0.00000000  0.75000000  0.47720000  1
  N  N86  1  0.52280000  0.50000000  0.75000000  1
  N  N87  1  0.50000000  0.75000000  0.52280000  1
  N  N88  1  0.75000000  0.97720000  0.00000000  1
  N  N89  1  0.02280000  0.50000000  0.75000000  1
  N  N90  1  0.00000000  0.75000000  0.97720000  1
  N  N91  1  0.97720000  0.00000000  0.75000000  1
  N  N92  1  0.47720000  0.00000000  0.75000000  1
  N  N93  1  0.75000000  0.02280000  0.50000000  1
  N  N94  1  0.75000000  0.52280000  0.50000000  1
  N  N95  1  0.25000000  0.75000000  0.75000000  1
