# generated using pymatgen
data_Na4C2O5
_symmetry_space_group_name_H-M   'P 1'
_cell_length_a   8.60018000
_cell_length_b   5.35150800
_cell_length_c   6.20346202
_cell_angle_alpha   90.00000000
_cell_angle_beta   100.38844386
_cell_angle_gamma   90.00000000
_symmetry_Int_Tables_number   1
_chemical_formula_structural   Na4C2O5
_chemical_formula_sum   'Na8 C4 O10'
_cell_volume   280.82763209
_cell_formula_units_Z   2
loop_
 _symmetry_equiv_pos_site_id
 _symmetry_equiv_pos_as_xyz
  1  'x, y, z'
loop_
 _atom_site_type_symbol
 _atom_site_label
 _atom_site_symmetry_multiplicity
 _atom_site_fract_x
 _atom_site_fract_y
 _atom_site_fract_z
 _atom_site_occupancy
  Na  Na0  1  0.99550900  0.00000000  0.00880900  1
  Na  Na1  1  0.66535200  0.00000000  0.73509500  1
  Na  Na2  1  0.33197200  0.00000000  0.26846400  1
  Na  Na3  1  0.00101700  0.00000000  0.50396700  1
  Na  Na4  1  0.49550900  0.50000000  0.00880900  1
  Na  Na5  1  0.16535200  0.50000000  0.73509500  1
  Na  Na6  1  0.83197200  0.50000000  0.26846400  1
  Na  Na7  1  0.50101700  0.50000000  0.50396700  1
  C  C8  1  0.68344200  0.00000000  0.24839900  1
  C  C9  1  0.33844600  0.00000000  0.76120700  1
  C  C10  1  0.18344200  0.50000000  0.24839900  1
  C  C11  1  0.83844600  0.50000000  0.76120700  1
  O  O12  1  0.60952900  0.79285400  0.28238500  1
  O  O13  1  0.60952900  0.20714600  0.28238500  1
  O  O14  1  0.40244050  0.78945050  0.71806100  1
  O  O15  1  0.40244050  0.21054950  0.71806100  1
  O  O16  1  0.21132500  0.00000000  0.84516700  1
  O  O17  1  0.10952900  0.29285400  0.28238500  1
  O  O18  1  0.10952900  0.70714600  0.28238500  1
  O  O19  1  0.90244050  0.28945050  0.71806100  1
  O  O20  1  0.90244050  0.71054950  0.71806100  1
  O  O21  1  0.71132500  0.50000000  0.84516700  1
