# generated using pymatgen
data_Li2HN
_symmetry_space_group_name_H-M   'P 1'
_cell_length_a   3.60310171
_cell_length_b   3.60310171
_cell_length_c   9.09702368
_cell_angle_alpha   90.00000000
_cell_angle_beta   90.00000000
_cell_angle_gamma   120.00000000
_symmetry_Int_Tables_number   1
_chemical_formula_structural   Li2HN
_chemical_formula_sum   'Li6 H3 N3'
_cell_volume   102.27818207
_cell_formula_units_Z   3
loop_
 _symmetry_equiv_pos_site_id
 _symmetry_equiv_pos_as_xyz
  1  'x, y, z'
loop_
 _atom_site_type_symbol
 _atom_site_label
 _atom_site_symmetry_multiplicity
 _atom_site_fract_x
 _atom_site_fract_y
 _atom_site_fract_z
 _atom_site_occupancy
  Li  Li0  1  0.00000000  0.00000000  0.28221000  1
  Li  Li1  1  0.66666667  0.33333333  0.08057933  1
  Li  Li2  1  0.66666667  0.33333333  0.61554333  1
  Li  Li3  1  0.33333333  0.66666667  0.41391267  1
  Li  Li4  1  0.33333333  0.66666667  0.94887667  1
  Li  Li5  1  0.00000000  0.00000000  0.74724600  1
  H  H6  1  0.00000000  0.00000000  0.08851700  1
  H  H7  1  0.66666667  0.33333333  0.42185033  1
  H  H8  1  0.33333333  0.66666667  0.75518367  1
  N  N9  1  0.66666667  0.33333333  0.30835933  1
  N  N10  1  0.33333333  0.66666667  0.64169267  1
  N  N11  1  0.00000000  0.00000000  0.97502600  1
