# generated using pymatgen
data_HfBrN
_symmetry_space_group_name_H-M   'P 1'
_cell_length_a   3.63364824
_cell_length_b   3.63364824
_cell_length_c   30.88402971
_cell_angle_alpha   90.00000000
_cell_angle_beta   90.00000000
_cell_angle_gamma   120.00000000
_symmetry_Int_Tables_number   1
_chemical_formula_structural   HfBrN
_chemical_formula_sum   'Hf6 Br6 N6'
_cell_volume   353.14280149
_cell_formula_units_Z   6
loop_
 _symmetry_equiv_pos_site_id
 _symmetry_equiv_pos_as_xyz
  1  'x, y, z'
loop_
 _atom_site_type_symbol
 _atom_site_label
 _atom_site_symmetry_multiplicity
 _atom_site_fract_x
 _atom_site_fract_y
 _atom_site_fract_z
 _atom_site_occupancy
  Hf  Hf0  1  0.00000000  0.00000000  0.20842100  1
  Hf  Hf1  1  0.66666667  0.33333333  0.12491233  1
  Hf  Hf2  1  0.66666667  0.33333333  0.54175433  1
  Hf  Hf3  1  0.33333333  0.66666667  0.45824567  1
  Hf  Hf4  1  0.33333333  0.66666667  0.87508767  1
  Hf  Hf5  1  0.00000000  0.00000000  0.79157900  1
  Br  Br6  1  0.33333333  0.66666667  0.06057867  1
  Br  Br7  1  0.33333333  0.66666667  0.27275467  1
  Br  Br8  1  0.00000000  0.00000000  0.39391200  1
  Br  Br9  1  0.00000000  0.00000000  0.60608800  1
  Br  Br10  1  0.66666667  0.33333333  0.72724533  1
  Br  Br11  1  0.66666667  0.33333333  0.93942133  1
  N  N12  1  0.00000000  0.00000000  0.13855100  1
  N  N13  1  0.66666667  0.33333333  0.19478233  1
  N  N14  1  0.66666667  0.33333333  0.47188433  1
  N  N15  1  0.33333333  0.66666667  0.52811567  1
  N  N16  1  0.33333333  0.66666667  0.80521767  1
  N  N17  1  0.00000000  0.00000000  0.86144900  1
