# generated using pymatgen
data_Y2P4O13
_symmetry_space_group_name_H-M   'P 1'
_cell_length_a   7.12864200
_cell_length_b   17.58468400
_cell_length_c   8.65822300
_cell_angle_alpha   90.00000000
_cell_angle_beta   90.00000000
_cell_angle_gamma   90.00000000
_symmetry_Int_Tables_number   1
_chemical_formula_structural   Y2P4O13
_chemical_formula_sum   'Y8 P16 O52'
_cell_volume   1085.35082483
_cell_formula_units_Z   4
loop_
 _symmetry_equiv_pos_site_id
 _symmetry_equiv_pos_as_xyz
  1  'x, y, z'
loop_
 _atom_site_type_symbol
 _atom_site_label
 _atom_site_symmetry_multiplicity
 _atom_site_fract_x
 _atom_site_fract_y
 _atom_site_fract_z
 _atom_site_occupancy
  Y  Y0  1  0.74894200  0.85348700  0.85381900  1
  Y  Y1  1  0.24894200  0.64651300  0.14618100  1
  Y  Y2  1  0.75105800  0.64651300  0.35381900  1
  Y  Y3  1  0.25105800  0.85348700  0.64618100  1
  Y  Y4  1  0.24894200  0.35348700  0.85381900  1
  Y  Y5  1  0.74894200  0.14651300  0.14618100  1
  Y  Y6  1  0.25105800  0.14651300  0.35381900  1
  Y  Y7  1  0.75105800  0.35348700  0.64618100  1
  P  P8  1  0.25780300  0.83998000  0.00030600  1
  P  P9  1  0.75780300  0.66002000  0.99969400  1
  P  P10  1  0.24219700  0.66002000  0.50030600  1
  P  P11  1  0.74219700  0.83998000  0.49969400  1
  P  P12  1  0.21524250  0.93763050  0.27292800  1
  P  P13  1  0.71524250  0.56236950  0.72707200  1
  P  P14  1  0.28475750  0.56236950  0.77292800  1
  P  P15  1  0.78475750  0.93763050  0.22707200  1
  P  P16  1  0.75780300  0.33998000  0.00030600  1
  P  P17  1  0.25780300  0.16002000  0.99969400  1
  P  P18  1  0.74219700  0.16002000  0.50030600  1
  P  P19  1  0.24219700  0.33998000  0.49969400  1
  P  P20  1  0.71524250  0.43763050  0.27292800  1
  P  P21  1  0.21524250  0.06236950  0.72707200  1
  P  P22  1  0.78475750  0.06236950  0.77292800  1
  P  P23  1  0.28475750  0.43763050  0.22707200  1
  O  O24  1  0.25293700  0.77160700  0.10534500  1
  O  O25  1  0.75293700  0.72839300  0.89465500  1
  O  O26  1  0.24706300  0.72839300  0.60534500  1
  O  O27  1  0.74706300  0.77160700  0.39465500  1
  O  O28  1  0.07921450  0.85175450  0.90143300  1
  O  O29  1  0.57921450  0.64824550  0.09856700  1
  O  O30  1  0.42078550  0.64824550  0.40143300  1
  O  O31  1  0.92078550  0.85175450  0.59856700  1
  O  O32  1  0.42044350  0.84186150  0.88333000  1
  O  O33  1  0.92044350  0.65813850  0.11667000  1
  O  O34  1  0.07955650  0.65813850  0.38333000  1
  O  O35  1  0.57955650  0.84186150  0.61667000  1
  O  O36  1  0.00000000  0.91755500  0.25000000  1
  O  O37  1  0.50000000  0.58244500  0.75000000  1
  O  O38  1  0.70525300  0.91508400  0.39377000  1
  O  O39  1  0.20525300  0.58491600  0.60623000  1
  O  O40  1  0.79474700  0.58491600  0.89377000  1
  O  O41  1  0.29474700  0.91508400  0.10623000  1
  O  O42  1  0.25424200  0.52108900  0.20479300  1
  O  O43  1  0.75424200  0.97891100  0.79520700  1
  O  O44  1  0.24575800  0.97891100  0.70479300  1
  O  O45  1  0.74575800  0.52108900  0.29520700  1
  O  O46  1  0.71453700  0.88501700  0.10338500  1
  O  O47  1  0.21453700  0.61498300  0.89661500  1
  O  O48  1  0.78546300  0.61498300  0.60338500  1
  O  O49  1  0.28546300  0.88501700  0.39661500  1
  O  O50  1  0.75293700  0.27160700  0.10534500  1
  O  O51  1  0.25293700  0.22839300  0.89465500  1
  O  O52  1  0.74706300  0.22839300  0.60534500  1
  O  O53  1  0.24706300  0.27160700  0.39465500  1
  O  O54  1  0.57921450  0.35175450  0.90143300  1
  O  O55  1  0.07921450  0.14824550  0.09856700  1
  O  O56  1  0.92078550  0.14824550  0.40143300  1
  O  O57  1  0.42078550  0.35175450  0.59856700  1
  O  O58  1  0.92044350  0.34186150  0.88333000  1
  O  O59  1  0.42044350  0.15813850  0.11667000  1
  O  O60  1  0.57955650  0.15813850  0.38333000  1
  O  O61  1  0.07955650  0.34186150  0.61667000  1
  O  O62  1  0.50000000  0.41755500  0.25000000  1
  O  O63  1  0.00000000  0.08244500  0.75000000  1
  O  O64  1  0.20525300  0.41508400  0.39377000  1
  O  O65  1  0.70525300  0.08491600  0.60623000  1
  O  O66  1  0.29474700  0.08491600  0.89377000  1
  O  O67  1  0.79474700  0.41508400  0.10623000  1
  O  O68  1  0.75424200  0.02108900  0.20479300  1
  O  O69  1  0.25424200  0.47891100  0.79520700  1
  O  O70  1  0.74575800  0.47891100  0.70479300  1
  O  O71  1  0.24575800  0.02108900  0.29520700  1
  O  O72  1  0.21453700  0.38501700  0.10338500  1
  O  O73  1  0.71453700  0.11498300  0.89661500  1
  O  O74  1  0.28546300  0.11498300  0.60338500  1
  O  O75  1  0.78546300  0.38501700  0.39661500  1
