# generated using pymatgen
data_Mg3Al14O24
_symmetry_space_group_name_H-M   'P 1'
_cell_length_a   18.75909400
_cell_length_b   5.73843600
_cell_length_c   8.10599317
_cell_angle_alpha   90.00000000
_cell_angle_beta   114.63547537
_cell_angle_gamma   90.00000000
_symmetry_Int_Tables_number   1
_chemical_formula_structural   Mg3Al14O24
_chemical_formula_sum   'Mg6 Al28 O48'
_cell_volume   793.16784275
_cell_formula_units_Z   2
loop_
 _symmetry_equiv_pos_site_id
 _symmetry_equiv_pos_as_xyz
  1  'x, y, z'
loop_
 _atom_site_type_symbol
 _atom_site_label
 _atom_site_symmetry_multiplicity
 _atom_site_fract_x
 _atom_site_fract_y
 _atom_site_fract_z
 _atom_site_occupancy
  Mg  Mg0  1  0.41981500  0.00000000  0.54350000  1
  Mg  Mg1  1  0.08573700  0.00000000  0.20574700  1
  Mg  Mg2  1  0.41338500  0.50000000  0.78883600  1
  Mg  Mg3  1  0.91981500  0.50000000  0.54350000  1
  Mg  Mg4  1  0.58573700  0.50000000  0.20574700  1
  Mg  Mg5  1  0.91338500  0.00000000  0.78883600  1
  Al  Al6  1  0.32950100  0.00000000  0.83536300  1
  Al  Al7  1  0.33286200  0.50000000  0.33358400  1
  Al  Al8  1  0.00480100  0.00000000  0.49916200  1
  Al  Al9  1  0.41710450  0.74804750  0.16904300  1
  Al  Al10  1  0.00112400  0.50000000  0.99608400  1
  Al  Al11  1  0.16513100  0.50000000  0.16222900  1
  Al  Al12  1  0.25293700  0.50000000  0.87368700  1
  Al  Al13  1  0.08652800  0.75452700  0.82626500  1
  Al  Al14  1  0.41710450  0.25195250  0.16904300  1
  Al  Al15  1  0.08652800  0.24547300  0.82626500  1
  Al  Al16  1  0.24688550  0.24200250  0.51195800  1
  Al  Al17  1  0.08096400  0.50000000  0.46082300  1
  Al  Al18  1  0.24688550  0.75799750  0.51195800  1
  Al  Al19  1  0.24638600  0.00000000  0.12767000  1
  Al  Al20  1  0.82950100  0.50000000  0.83536300  1
  Al  Al21  1  0.83286200  0.00000000  0.33358400  1
  Al  Al22  1  0.50480100  0.50000000  0.49916200  1
  Al  Al23  1  0.91710450  0.24804750  0.16904300  1
  Al  Al24  1  0.50112400  0.00000000  0.99608400  1
  Al  Al25  1  0.66513100  0.00000000  0.16222900  1
  Al  Al26  1  0.75293700  0.00000000  0.87368700  1
  Al  Al27  1  0.58652800  0.25452700  0.82626500  1
  Al  Al28  1  0.91710450  0.75195250  0.16904300  1
  Al  Al29  1  0.58652800  0.74547300  0.82626500  1
  Al  Al30  1  0.74688550  0.74200250  0.51195800  1
  Al  Al31  1  0.58096400  0.00000000  0.46082300  1
  Al  Al32  1  0.74688550  0.25799750  0.51195800  1
  Al  Al33  1  0.74638600  0.50000000  0.12767000  1
  O  O34  1  0.32659200  0.00000000  0.59707000  1
  O  O35  1  0.41370850  0.27850750  0.39650400  1
  O  O36  1  0.24903700  0.27081900  0.25040100  1
  O  O37  1  0.31965200  0.50000000  0.54890200  1
  O  O38  1  0.49056900  0.50000000  0.25066600  1
  O  O39  1  0.33736200  0.50000000  0.09326800  1
  O  O40  1  0.24903700  0.72918100  0.25040100  1
  O  O41  1  0.41370850  0.72149250  0.39650400  1
  O  O42  1  0.41828500  0.77994600  0.93988100  1
  O  O43  1  0.08427300  0.28104100  0.06747800  1
  O  O44  1  0.33636300  0.00000000  0.08746400  1
  O  O45  1  0.49482000  0.00000000  0.24140000  1
  O  O46  1  0.01115400  0.50000000  0.77604700  1
  O  O47  1  0.16508300  0.50000000  0.91489000  1
  O  O48  1  0.41828500  0.22005400  0.93988100  1
  O  O49  1  0.08427300  0.71895900  0.06747800  1
  O  O50  1  0.07474800  0.74797100  0.58263600  1
  O  O51  1  0.26030400  0.74693400  0.75380200  1
  O  O52  1  0.00981500  0.00000000  0.74153200  1
  O  O53  1  0.15990000  0.00000000  0.92523800  1
  O  O54  1  0.18023700  0.00000000  0.42186300  1
  O  O55  1  0.07474800  0.25202900  0.58263600  1
  O  O56  1  0.26030400  0.25306600  0.75380200  1
  O  O57  1  0.16864600  0.50000000  0.41256500  1
  O  O58  1  0.82659200  0.50000000  0.59707000  1
  O  O59  1  0.91370850  0.77850750  0.39650400  1
  O  O60  1  0.74903700  0.77081900  0.25040100  1
  O  O61  1  0.81965200  0.00000000  0.54890200  1
  O  O62  1  0.99056900  0.00000000  0.25066600  1
  O  O63  1  0.83736200  0.00000000  0.09326800  1
  O  O64  1  0.74903700  0.22918100  0.25040100  1
  O  O65  1  0.91370850  0.22149250  0.39650400  1
  O  O66  1  0.91828500  0.27994600  0.93988100  1
  O  O67  1  0.58427300  0.78104100  0.06747800  1
  O  O68  1  0.83636300  0.50000000  0.08746400  1
  O  O69  1  0.99482000  0.50000000  0.24140000  1
  O  O70  1  0.51115400  0.00000000  0.77604700  1
  O  O71  1  0.66508300  0.00000000  0.91489000  1
  O  O72  1  0.91828500  0.72005400  0.93988100  1
  O  O73  1  0.58427300  0.21895900  0.06747800  1
  O  O74  1  0.57474800  0.24797100  0.58263600  1
  O  O75  1  0.76030400  0.24693400  0.75380200  1
  O  O76  1  0.50981500  0.50000000  0.74153200  1
  O  O77  1  0.65990000  0.50000000  0.92523800  1
  O  O78  1  0.68023700  0.50000000  0.42186300  1
  O  O79  1  0.57474800  0.75202900  0.58263600  1
  O  O80  1  0.76030400  0.75306600  0.75380200  1
  O  O81  1  0.66864600  0.00000000  0.41256500  1
