# generated using pymatgen
data_Ca(NdTe2)2
_symmetry_space_group_name_H-M   'P 1'
_cell_length_a   9.54162200
_cell_length_b   9.54162200
_cell_length_c   9.64733000
_cell_angle_alpha   90.00000000
_cell_angle_beta   90.00000000
_cell_angle_gamma   90.00000000
_symmetry_Int_Tables_number   1
_chemical_formula_structural   Ca(NdTe2)2
_chemical_formula_sum   'Ca4 Nd8 Te16'
_cell_volume   878.31752766
_cell_formula_units_Z   4
loop_
 _symmetry_equiv_pos_site_id
 _symmetry_equiv_pos_as_xyz
  1  'x, y, z'
loop_
 _atom_site_type_symbol
 _atom_site_label
 _atom_site_symmetry_multiplicity
 _atom_site_fract_x
 _atom_site_fract_y
 _atom_site_fract_z
 _atom_site_occupancy
  Ca  Ca0  1  0.00000000  0.50000000  0.25000000  1
  Ca  Ca1  1  0.00000000  0.00000000  0.00000000  1
  Ca  Ca2  1  0.50000000  0.00000000  0.75000000  1
  Ca  Ca3  1  0.50000000  0.50000000  0.50000000  1
  Nd  Nd4  1  0.62563300  0.25000000  0.12500000  1
  Nd  Nd5  1  0.25000000  0.12563300  0.37500000  1
  Nd  Nd6  1  0.87436700  0.25000000  0.62500000  1
  Nd  Nd7  1  0.25000000  0.37436700  0.87500000  1
  Nd  Nd8  1  0.12563300  0.75000000  0.62500000  1
  Nd  Nd9  1  0.75000000  0.62563300  0.87500000  1
  Nd  Nd10  1  0.37436700  0.75000000  0.12500000  1
  Nd  Nd11  1  0.75000000  0.87436700  0.37500000  1
  Te  Te12  1  0.42510900  0.82234500  0.44674800  1
  Te  Te13  1  0.17765500  0.07489100  0.69674800  1
  Te  Te14  1  0.57489100  0.32234500  0.80325200  1
  Te  Te15  1  0.17765500  0.42510900  0.55325200  1
  Te  Te16  1  0.32234500  0.42510900  0.19674800  1
  Te  Te17  1  0.92510900  0.17765500  0.30325200  1
  Te  Te18  1  0.32234500  0.07489100  0.05325200  1
  Te  Te19  1  0.07489100  0.67765500  0.94674800  1
  Te  Te20  1  0.92510900  0.32234500  0.94674800  1
  Te  Te21  1  0.67765500  0.57489100  0.19674800  1
  Te  Te22  1  0.07489100  0.82234500  0.30325200  1
  Te  Te23  1  0.67765500  0.92510900  0.05325200  1
  Te  Te24  1  0.82234500  0.92510900  0.69674800  1
  Te  Te25  1  0.42510900  0.67765500  0.80325200  1
  Te  Te26  1  0.82234500  0.57489100  0.55325200  1
  Te  Te27  1  0.57489100  0.17765500  0.44674800  1
