# generated using pymatgen
data_Sr(LaS2)2
_symmetry_space_group_name_H-M   'P 1'
_cell_length_a   8.82106200
_cell_length_b   8.82106200
_cell_length_c   8.79275400
_cell_angle_alpha   90.00000000
_cell_angle_beta   90.00000000
_cell_angle_gamma   90.00000000
_symmetry_Int_Tables_number   1
_chemical_formula_structural   Sr(LaS2)2
_chemical_formula_sum   'Sr4 La8 S16'
_cell_volume   684.17416683
_cell_formula_units_Z   4
loop_
 _symmetry_equiv_pos_site_id
 _symmetry_equiv_pos_as_xyz
  1  'x, y, z'
loop_
 _atom_site_type_symbol
 _atom_site_label
 _atom_site_symmetry_multiplicity
 _atom_site_fract_x
 _atom_site_fract_y
 _atom_site_fract_z
 _atom_site_occupancy
  Sr  Sr0  1  0.50000000  0.00000000  0.25000000  1
  Sr  Sr1  1  0.50000000  0.50000000  0.50000000  1
  Sr  Sr2  1  0.00000000  0.50000000  0.75000000  1
  Sr  Sr3  1  0.00000000  0.00000000  0.00000000  1
  La  La4  1  0.75000000  0.62851000  0.12500000  1
  La  La5  1  0.87149000  0.25000000  0.37500000  1
  La  La6  1  0.75000000  0.87149000  0.62500000  1
  La  La7  1  0.62851000  0.25000000  0.87500000  1
  La  La8  1  0.25000000  0.12851000  0.62500000  1
  La  La9  1  0.37149000  0.75000000  0.87500000  1
  La  La10  1  0.25000000  0.37149000  0.12500000  1
  La  La11  1  0.12851000  0.75000000  0.37500000  1
  S  S12  1  0.67363650  0.92461250  0.94314250  1
  S  S13  1  0.57538750  0.32636350  0.19314250  1
  S  S14  1  0.92461250  0.32636350  0.05685750  1
  S  S15  1  0.32636350  0.42461250  0.80685750  1
  S  S16  1  0.82636350  0.57538750  0.44314250  1
  S  S17  1  0.57538750  0.17363650  0.55685750  1
  S  S18  1  0.17363650  0.07538750  0.30685750  1
  S  S19  1  0.92461250  0.17363650  0.69314250  1
  S  S20  1  0.17363650  0.42461250  0.44314250  1
  S  S21  1  0.07538750  0.82636350  0.69314250  1
  S  S22  1  0.42461250  0.82636350  0.55685750  1
  S  S23  1  0.82636350  0.92461250  0.30685750  1
  S  S24  1  0.32636350  0.07538750  0.94314250  1
  S  S25  1  0.07538750  0.67363650  0.05685750  1
  S  S26  1  0.67363650  0.57538750  0.80685750  1
  S  S27  1  0.42461250  0.67363650  0.19314250  1
