# generated using pymatgen
data_ErAgSe2
_symmetry_space_group_name_H-M   'P 1'
_cell_length_a   5.69264400
_cell_length_b   5.69264400
_cell_length_c   12.09441800
_cell_angle_alpha   90.00000000
_cell_angle_beta   90.00000000
_cell_angle_gamma   90.00000000
_symmetry_Int_Tables_number   1
_chemical_formula_structural   ErAgSe2
_chemical_formula_sum   'Er4 Ag4 Se8'
_cell_volume   391.93407672
_cell_formula_units_Z   4
loop_
 _symmetry_equiv_pos_site_id
 _symmetry_equiv_pos_as_xyz
  1  'x, y, z'
loop_
 _atom_site_type_symbol
 _atom_site_label
 _atom_site_symmetry_multiplicity
 _atom_site_fract_x
 _atom_site_fract_y
 _atom_site_fract_z
 _atom_site_occupancy
  Er  Er0  1  0.00000000  0.00000000  0.00000000  1
  Er  Er1  1  0.00000000  0.50000000  0.25000000  1
  Er  Er2  1  0.50000000  0.50000000  0.50000000  1
  Er  Er3  1  0.50000000  0.00000000  0.75000000  1
  Ag  Ag4  1  0.50000000  0.50000000  0.00000000  1
  Ag  Ag5  1  0.50000000  0.00000000  0.25000000  1
  Ag  Ag6  1  0.00000000  0.00000000  0.50000000  1
  Ag  Ag7  1  0.00000000  0.50000000  0.75000000  1
  Se  Se8  1  0.00000000  0.00000000  0.23632300  1
  Se  Se9  1  0.50000000  0.50000000  0.26367700  1
  Se  Se10  1  0.00000000  0.50000000  0.01367700  1
  Se  Se11  1  0.00000000  0.50000000  0.48632300  1
  Se  Se12  1  0.50000000  0.50000000  0.73632300  1
  Se  Se13  1  0.00000000  0.00000000  0.76367700  1
  Se  Se14  1  0.50000000  0.00000000  0.51367700  1
  Se  Se15  1  0.50000000  0.00000000  0.98632300  1
