# generated using pymatgen
data_RbInSe2
_symmetry_space_group_name_H-M   'P 1'
_cell_length_a   11.76195000
_cell_length_b   11.75694000
_cell_length_c   16.57571520
_cell_angle_alpha   90.00000000
_cell_angle_beta   100.17324504
_cell_angle_gamma   90.00000000
_symmetry_Int_Tables_number   1
_chemical_formula_structural   RbInSe2
_chemical_formula_sum   'Rb16 In16 Se32'
_cell_volume   2256.12817989
_cell_formula_units_Z   16
loop_
 _symmetry_equiv_pos_site_id
 _symmetry_equiv_pos_as_xyz
  1  'x, y, z'
loop_
 _atom_site_type_symbol
 _atom_site_label
 _atom_site_symmetry_multiplicity
 _atom_site_fract_x
 _atom_site_fract_y
 _atom_site_fract_z
 _atom_site_occupancy
  Rb  Rb0  1  0.53499750  0.68720350  0.39000200  1
  Rb  Rb1  1  0.28387550  0.06241350  0.88611500  1
  Rb  Rb2  1  0.28387550  0.93758650  0.38611500  1
  Rb  Rb3  1  0.71612450  0.93758650  0.11388500  1
  Rb  Rb4  1  0.53499750  0.31279650  0.89000200  1
  Rb  Rb5  1  0.46500250  0.31279650  0.60999800  1
  Rb  Rb6  1  0.46500250  0.68720350  0.10999800  1
  Rb  Rb7  1  0.71612450  0.06241350  0.61388500  1
  Rb  Rb8  1  0.03499750  0.18720350  0.39000200  1
  Rb  Rb9  1  0.78387550  0.56241350  0.88611500  1
  Rb  Rb10  1  0.78387550  0.43758650  0.38611500  1
  Rb  Rb11  1  0.21612450  0.43758650  0.11388500  1
  Rb  Rb12  1  0.03499750  0.81279650  0.89000200  1
  Rb  Rb13  1  0.96500250  0.81279650  0.60999800  1
  Rb  Rb14  1  0.96500250  0.18720350  0.10999800  1
  Rb  Rb15  1  0.21612450  0.56241350  0.61388500  1
  In  In16  1  0.39824000  0.68825800  0.83976900  1
  In  In17  1  0.60176000  0.68825800  0.66023100  1
  In  In18  1  0.60176000  0.31174200  0.16023100  1
  In  In19  1  0.39824000  0.31174200  0.33976900  1
  In  In20  1  0.35331750  0.93683650  0.66053100  1
  In  In21  1  0.64668250  0.93683650  0.83946900  1
  In  In22  1  0.64668250  0.06316350  0.33946900  1
  In  In23  1  0.35331750  0.06316350  0.16053100  1
  In  In24  1  0.89824000  0.18825800  0.83976900  1
  In  In25  1  0.10176000  0.18825800  0.66023100  1
  In  In26  1  0.10176000  0.81174200  0.16023100  1
  In  In27  1  0.89824000  0.81174200  0.33976900  1
  In  In28  1  0.85331750  0.43683650  0.66053100  1
  In  In29  1  0.14668250  0.43683650  0.83946900  1
  In  In30  1  0.14668250  0.56316350  0.33946900  1
  In  In31  1  0.85331750  0.56316350  0.16053100  1
  Se  Se32  1  0.50000000  0.92381700  0.25000000  1
  Se  Se33  1  0.50000000  0.07618300  0.75000000  1
  Se  Se34  1  0.50000000  0.45104900  0.25000000  1
  Se  Se35  1  0.50000000  0.54895100  0.75000000  1
  Se  Se36  1  0.23633300  0.18758700  0.25009100  1
  Se  Se37  1  0.76366700  0.18758700  0.24990900  1
  Se  Se38  1  0.76366700  0.81241300  0.74990900  1
  Se  Se39  1  0.23633300  0.81241300  0.75009100  1
  Se  Se40  1  0.79717450  0.93773350  0.43860500  1
  Se  Se41  1  0.20282550  0.93773350  0.06139500  1
  Se  Se42  1  0.20282550  0.06226650  0.56139500  1
  Se  Se43  1  0.45252050  0.81272450  0.56056700  1
  Se  Se44  1  0.45252050  0.18727550  0.06056700  1
  Se  Se45  1  0.54747950  0.18727550  0.43943300  1
  Se  Se46  1  0.54747950  0.81272450  0.93943300  1
  Se  Se47  1  0.79717450  0.06226650  0.93860500  1
  Se  Se48  1  0.00000000  0.42381700  0.25000000  1
  Se  Se49  1  0.00000000  0.57618300  0.75000000  1
  Se  Se50  1  0.00000000  0.95104900  0.25000000  1
  Se  Se51  1  0.00000000  0.04895100  0.75000000  1
  Se  Se52  1  0.73633300  0.68758700  0.25009100  1
  Se  Se53  1  0.26366700  0.68758700  0.24990900  1
  Se  Se54  1  0.26366700  0.31241300  0.74990900  1
  Se  Se55  1  0.73633300  0.31241300  0.75009100  1
  Se  Se56  1  0.29717450  0.43773350  0.43860500  1
  Se  Se57  1  0.70282550  0.43773350  0.06139500  1
  Se  Se58  1  0.70282550  0.56226650  0.56139500  1
  Se  Se59  1  0.95252050  0.31272450  0.56056700  1
  Se  Se60  1  0.95252050  0.68727550  0.06056700  1
  Se  Se61  1  0.04747950  0.68727550  0.43943300  1
  Se  Se62  1  0.04747950  0.31272450  0.93943300  1
  Se  Se63  1  0.29717450  0.56226650  0.93860500  1
