# generated using pymatgen
data_Sr(LaSe2)2
_symmetry_space_group_name_H-M   'P 1'
_cell_length_a   9.17780600
_cell_length_b   9.17780600
_cell_length_c   9.16699200
_cell_angle_alpha   90.00000000
_cell_angle_beta   90.00000000
_cell_angle_gamma   90.00000000
_symmetry_Int_Tables_number   1
_chemical_formula_structural   Sr(LaSe2)2
_chemical_formula_sum   'Sr4 La8 Se16'
_cell_volume   772.15519744
_cell_formula_units_Z   4
loop_
 _symmetry_equiv_pos_site_id
 _symmetry_equiv_pos_as_xyz
  1  'x, y, z'
loop_
 _atom_site_type_symbol
 _atom_site_label
 _atom_site_symmetry_multiplicity
 _atom_site_fract_x
 _atom_site_fract_y
 _atom_site_fract_z
 _atom_site_occupancy
  Sr  Sr0  1  0.50000000  0.00000000  0.25000000  1
  Sr  Sr1  1  0.50000000  0.50000000  0.50000000  1
  Sr  Sr2  1  0.00000000  0.50000000  0.75000000  1
  Sr  Sr3  1  0.00000000  0.00000000  0.00000000  1
  La  La4  1  0.75000000  0.62625600  0.12500000  1
  La  La5  1  0.75000000  0.87374400  0.62500000  1
  La  La6  1  0.87374400  0.25000000  0.37500000  1
  La  La7  1  0.62625600  0.25000000  0.87500000  1
  La  La8  1  0.25000000  0.12625600  0.62500000  1
  La  La9  1  0.25000000  0.37374400  0.12500000  1
  La  La10  1  0.37374400  0.75000000  0.87500000  1
  La  La11  1  0.12625600  0.75000000  0.37500000  1
  Se  Se12  1  0.57562650  0.17347850  0.55614950  1
  Se  Se13  1  0.57562650  0.32652150  0.19385050  1
  Se  Se14  1  0.92437350  0.32652150  0.05614950  1
  Se  Se15  1  0.32652150  0.42437350  0.80614950  1
  Se  Se16  1  0.82652150  0.57562650  0.44385050  1
  Se  Se17  1  0.67347850  0.92437350  0.94385050  1
  Se  Se18  1  0.17347850  0.07562650  0.30614950  1
  Se  Se19  1  0.92437350  0.17347850  0.69385050  1
  Se  Se20  1  0.07562650  0.67347850  0.05614950  1
  Se  Se21  1  0.07562650  0.82652150  0.69385050  1
  Se  Se22  1  0.42437350  0.82652150  0.55614950  1
  Se  Se23  1  0.82652150  0.92437350  0.30614950  1
  Se  Se24  1  0.32652150  0.07562650  0.94385050  1
  Se  Se25  1  0.17347850  0.42437350  0.44385050  1
  Se  Se26  1  0.67347850  0.57562650  0.80614950  1
  Se  Se27  1  0.42437350  0.67347850  0.19385050  1
