# generated using pymatgen
data_La4PdO7
_symmetry_space_group_name_H-M   'P 1'
_cell_length_a   13.39647200
_cell_length_b   4.09289200
_cell_length_c   9.42316710
_cell_angle_alpha   90.00000000
_cell_angle_beta   133.00695481
_cell_angle_gamma   90.00000000
_symmetry_Int_Tables_number   1
_chemical_formula_structural   La4PdO7
_chemical_formula_sum   'La8 Pd2 O14'
_cell_volume   377.82954642
_cell_formula_units_Z   2
loop_
 _symmetry_equiv_pos_site_id
 _symmetry_equiv_pos_as_xyz
  1  'x, y, z'
loop_
 _atom_site_type_symbol
 _atom_site_label
 _atom_site_symmetry_multiplicity
 _atom_site_fract_x
 _atom_site_fract_y
 _atom_site_fract_z
 _atom_site_occupancy
  La  La0  1  0.41530500  0.00000000  0.61138300  1
  La  La1  1  0.58469500  0.00000000  0.38861700  1
  La  La2  1  0.75063200  0.50000000  0.84026700  1
  La  La3  1  0.24936800  0.50000000  0.15973300  1
  La  La4  1  0.91530500  0.50000000  0.61138300  1
  La  La5  1  0.08469500  0.50000000  0.38861700  1
  La  La6  1  0.25063200  0.00000000  0.84026700  1
  La  La7  1  0.74936800  0.00000000  0.15973300  1
  Pd  Pd8  1  0.00000000  0.00000000  0.00000000  1
  Pd  Pd9  1  0.50000000  0.50000000  0.00000000  1
  O  O10  1  0.70281000  0.50000000  0.55326300  1
  O  O11  1  0.29719000  0.50000000  0.44673700  1
  O  O12  1  0.41032200  0.50000000  0.11022100  1
  O  O13  1  0.58967800  0.50000000  0.88977900  1
  O  O14  1  0.63214200  0.00000000  0.69303200  1
  O  O15  1  0.00000000  0.50000000  0.00000000  1
  O  O16  1  0.36785800  0.00000000  0.30696800  1
  O  O17  1  0.20281000  0.00000000  0.55326300  1
  O  O18  1  0.79719000  0.00000000  0.44673700  1
  O  O19  1  0.91032200  0.00000000  0.11022100  1
  O  O20  1  0.08967800  0.00000000  0.88977900  1
  O  O21  1  0.13214200  0.50000000  0.69303200  1
  O  O22  1  0.50000000  0.00000000  0.00000000  1
  O  O23  1  0.86785800  0.50000000  0.30696800  1
