# generated using pymatgen
data_La2Te4O11
_symmetry_space_group_name_H-M   'P 1'
_cell_length_a   12.94177200
_cell_length_b   5.36181800
_cell_length_c   16.77704143
_cell_angle_alpha   90.00000000
_cell_angle_beta   104.55770771
_cell_angle_gamma   90.00000000
_symmetry_Int_Tables_number   1
_chemical_formula_structural   La2Te4O11
_chemical_formula_sum   'La8 Te16 O44'
_cell_volume   1126.80670444
_cell_formula_units_Z   4
loop_
 _symmetry_equiv_pos_site_id
 _symmetry_equiv_pos_as_xyz
  1  'x, y, z'
loop_
 _atom_site_type_symbol
 _atom_site_label
 _atom_site_symmetry_multiplicity
 _atom_site_fract_x
 _atom_site_fract_y
 _atom_site_fract_z
 _atom_site_occupancy
  La  La0  1  0.88113150  0.74761150  0.46129800  1
  La  La1  1  0.61886850  0.24761150  0.03870200  1
  La  La2  1  0.11886850  0.25238850  0.53870200  1
  La  La3  1  0.38113150  0.75238850  0.96129800  1
  La  La4  1  0.38113150  0.24761150  0.46129800  1
  La  La5  1  0.11886850  0.74761150  0.03870200  1
  La  La6  1  0.61886850  0.75238850  0.53870200  1
  La  La7  1  0.88113150  0.25238850  0.96129800  1
  Te  Te8  1  0.88239450  0.27391550  0.29952900  1
  Te  Te9  1  0.61760550  0.77391550  0.20047100  1
  Te  Te10  1  0.11760550  0.72608450  0.70047100  1
  Te  Te11  1  0.38239450  0.22608450  0.79952900  1
  Te  Te12  1  0.86683450  0.71871550  0.12622000  1
  Te  Te13  1  0.13316550  0.71871550  0.37378000  1
  Te  Te14  1  0.13316550  0.28128450  0.87378000  1
  Te  Te15  1  0.86683450  0.28128450  0.62622000  1
  Te  Te16  1  0.38239450  0.77391550  0.29952900  1
  Te  Te17  1  0.11760550  0.27391550  0.20047100  1
  Te  Te18  1  0.61760550  0.22608450  0.70047100  1
  Te  Te19  1  0.88239450  0.72608450  0.79952900  1
  Te  Te20  1  0.36683450  0.21871550  0.12622000  1
  Te  Te21  1  0.63316550  0.21871550  0.37378000  1
  Te  Te22  1  0.63316550  0.78128450  0.87378000  1
  Te  Te23  1  0.36683450  0.78128450  0.62622000  1
  O  O24  1  0.00000000  0.14744100  0.25000000  1
  O  O25  1  0.00000000  0.85255900  0.75000000  1
  O  O26  1  0.64546600  0.45111000  0.17035100  1
  O  O27  1  0.85453400  0.95111000  0.32964900  1
  O  O28  1  0.35453400  0.54889000  0.82964900  1
  O  O29  1  0.14546600  0.04889000  0.67035100  1
  O  O30  1  0.02567650  0.40971950  0.10257000  1
  O  O31  1  0.97432350  0.40971950  0.39743000  1
  O  O32  1  0.97432350  0.59028050  0.89743000  1
  O  O33  1  0.02567650  0.59028050  0.60257000  1
  O  O34  1  0.92604800  0.87989800  0.04708100  1
  O  O35  1  0.07395200  0.87989800  0.45291900  1
  O  O36  1  0.24782200  0.57109700  0.62813700  1
  O  O37  1  0.25217800  0.07109700  0.87186300  1
  O  O38  1  0.75217800  0.42890300  0.37186300  1
  O  O39  1  0.74782200  0.92890300  0.12813700  1
  O  O40  1  0.79296800  0.53930500  0.55664800  1
  O  O41  1  0.20703200  0.53930500  0.94335200  1
  O  O42  1  0.20703200  0.46069500  0.44335200  1
  O  O43  1  0.79296800  0.46069500  0.05664800  1
  O  O44  1  0.92604800  0.12010200  0.54708100  1
  O  O45  1  0.07395200  0.12010200  0.95291900  1
  O  O46  1  0.50000000  0.64744100  0.25000000  1
  O  O47  1  0.50000000  0.35255900  0.75000000  1
  O  O48  1  0.14546600  0.95111000  0.17035100  1
  O  O49  1  0.35453400  0.45111000  0.32964900  1
  O  O50  1  0.85453400  0.04889000  0.82964900  1
  O  O51  1  0.64546600  0.54889000  0.67035100  1
  O  O52  1  0.52567650  0.90971950  0.10257000  1
  O  O53  1  0.47432350  0.90971950  0.39743000  1
  O  O54  1  0.47432350  0.09028050  0.89743000  1
  O  O55  1  0.52567650  0.09028050  0.60257000  1
  O  O56  1  0.42604800  0.37989800  0.04708100  1
  O  O57  1  0.57395200  0.37989800  0.45291900  1
  O  O58  1  0.74782200  0.07109700  0.62813700  1
  O  O59  1  0.75217800  0.57109700  0.87186300  1
  O  O60  1  0.25217800  0.92890300  0.37186300  1
  O  O61  1  0.24782200  0.42890300  0.12813700  1
  O  O62  1  0.29296800  0.03930500  0.55664800  1
  O  O63  1  0.70703200  0.03930500  0.94335200  1
  O  O64  1  0.70703200  0.96069500  0.44335200  1
  O  O65  1  0.29296800  0.96069500  0.05664800  1
  O  O66  1  0.42604800  0.62010200  0.54708100  1
  O  O67  1  0.57395200  0.62010200  0.95291900  1
