# generated using pymatgen
data_Mg2H2O3
_symmetry_space_group_name_H-M   'P 1'
_cell_length_a   3.09962835
_cell_length_b   3.09962835
_cell_length_c   7.53697200
_cell_angle_alpha   90.00000000
_cell_angle_beta   90.00000000
_cell_angle_gamma   120.00000000
_symmetry_Int_Tables_number   1
_chemical_formula_structural   Mg2H2O3
_chemical_formula_sum   'Mg2 H2 O3'
_cell_volume   62.71144151
_cell_formula_units_Z   1
loop_
 _symmetry_equiv_pos_site_id
 _symmetry_equiv_pos_as_xyz
  1  'x, y, z'
loop_
 _atom_site_type_symbol
 _atom_site_label
 _atom_site_symmetry_multiplicity
 _atom_site_fract_x
 _atom_site_fract_y
 _atom_site_fract_z
 _atom_site_occupancy
  Mg  Mg0  1  0.33333333  0.66666667  0.16292200  1
  Mg  Mg1  1  0.66666667  0.33333333  0.83707800  1
  H  H2  1  0.33333333  0.66666667  0.56876500  1
  H  H3  1  0.66666667  0.33333333  0.43123500  1
  O  O4  1  0.33333333  0.66666667  0.69726300  1
  O  O5  1  0.66666667  0.33333333  0.30273700  1
  O  O6  1  0.00000000  0.00000000  0.00000000  1
