# generated using pymatgen
data_Li3AlH6
_symmetry_space_group_name_H-M   'P 1'
_cell_length_a   8.01630678
_cell_length_b   8.01630678
_cell_length_c   9.46208521
_cell_angle_alpha   90.00000000
_cell_angle_beta   90.00000000
_cell_angle_gamma   120.00000000
_symmetry_Int_Tables_number   1
_chemical_formula_structural   Li3AlH6
_chemical_formula_sum   'Li18 Al6 H36'
_cell_volume   526.58216346
_cell_formula_units_Z   6
loop_
 _symmetry_equiv_pos_site_id
 _symmetry_equiv_pos_as_xyz
  1  'x, y, z'
loop_
 _atom_site_type_symbol
 _atom_site_label
 _atom_site_symmetry_multiplicity
 _atom_site_fract_x
 _atom_site_fract_y
 _atom_site_fract_z
 _atom_site_occupancy
  Li  Li0  1  0.28985767  0.89194833  0.45891633  1
  Li  Li1  1  0.60209067  0.71014233  0.45891633  1
  Li  Li2  1  0.71014233  0.10805167  0.54108367  1
  Li  Li3  1  0.39790933  0.28985767  0.54108367  1
  Li  Li4  1  0.10805167  0.39790933  0.45891633  1
  Li  Li5  1  0.89194833  0.60209067  0.54108367  1
  Li  Li6  1  0.95652433  0.22528167  0.79224967  1
  Li  Li7  1  0.26875733  0.04347567  0.79224967  1
  Li  Li8  1  0.37680900  0.44138500  0.87441700  1
  Li  Li9  1  0.06457600  0.62319100  0.87441700  1
  Li  Li10  1  0.77471833  0.73124267  0.79224967  1
  Li  Li11  1  0.55861500  0.93542400  0.87441700  1
  Li  Li12  1  0.62319100  0.55861500  0.12558300  1
  Li  Li13  1  0.93542400  0.37680900  0.12558300  1
  Li  Li14  1  0.04347567  0.77471833  0.20775033  1
  Li  Li15  1  0.73124267  0.95652433  0.20775033  1
  Li  Li16  1  0.44138500  0.06457600  0.12558300  1
  Li  Li17  1  0.22528167  0.26875733  0.20775033  1
  Al  Al18  1  0.00000000  0.00000000  0.50000000  1
  Al  Al19  1  0.00000000  0.00000000  0.00000000  1
  Al  Al20  1  0.66666667  0.33333333  0.83333333  1
  Al  Al21  1  0.66666667  0.33333333  0.33333333  1
  Al  Al22  1  0.33333333  0.66666667  0.16666667  1
  Al  Al23  1  0.33333333  0.66666667  0.66666667  1
  H  H24  1  0.64368033  0.49364567  0.44537967  1
  H  H25  1  0.35631967  0.50635433  0.55462033  1
  H  H26  1  0.80469400  0.97387400  0.40034300  1
  H  H27  1  0.16918000  0.19530600  0.40034300  1
  H  H28  1  0.02612600  0.83082000  0.40034300  1
  H  H29  1  0.19530600  0.02612600  0.59965700  1
  H  H30  1  0.83082000  0.80469400  0.59965700  1
  H  H31  1  0.97387400  0.16918000  0.59965700  1
  H  H32  1  0.15003467  0.64368033  0.55462033  1
  H  H33  1  0.50635433  0.15003467  0.44537967  1
  H  H34  1  0.84996533  0.35631967  0.44537967  1
  H  H35  1  0.49364567  0.84996533  0.55462033  1
  H  H36  1  0.31034700  0.82697900  0.77871300  1
  H  H37  1  0.02298633  0.83968767  0.88795367  1
  H  H38  1  0.47136067  0.30720733  0.73367633  1
  H  H39  1  0.83584667  0.52863933  0.73367633  1
  H  H40  1  0.69279267  0.16415333  0.73367633  1
  H  H41  1  0.86197267  0.35945933  0.93299033  1
  H  H42  1  0.49748667  0.13802733  0.93299033  1
  H  H43  1  0.64054067  0.50251333  0.93299033  1
  H  H44  1  0.81670133  0.97701367  0.88795367  1
  H  H45  1  0.17302100  0.48336800  0.77871300  1
  H  H46  1  0.51663200  0.68965300  0.77871300  1
  H  H47  1  0.16031233  0.18329867  0.88795367  1
  H  H48  1  0.97701367  0.16031233  0.11204633  1
  H  H49  1  0.68965300  0.17302100  0.22128700  1
  H  H50  1  0.13802733  0.64054067  0.06700967  1
  H  H51  1  0.50251333  0.86197267  0.06700967  1
  H  H52  1  0.35945933  0.49748667  0.06700967  1
  H  H53  1  0.52863933  0.69279267  0.26632367  1
  H  H54  1  0.16415333  0.47136067  0.26632367  1
  H  H55  1  0.30720733  0.83584667  0.26632367  1
  H  H56  1  0.48336800  0.31034700  0.22128700  1
  H  H57  1  0.83968767  0.81670133  0.11204633  1
  H  H58  1  0.18329867  0.02298633  0.11204633  1
  H  H59  1  0.82697900  0.51663200  0.22128700  1
