# generated using pymatgen
data_Al2O3
_symmetry_space_group_name_H-M   'P 1'
_cell_length_a   9.74433200
_cell_length_b   5.67673200
_cell_length_c   27.54087063
_cell_angle_alpha   90.00000000
_cell_angle_beta   90.63766549
_cell_angle_gamma   90.00000000
_symmetry_Int_Tables_number   1
_chemical_formula_structural   Al2O3
_chemical_formula_sum   'Al64 O96'
_cell_volume   1523.35538491
_cell_formula_units_Z   32
loop_
 _symmetry_equiv_pos_site_id
 _symmetry_equiv_pos_as_xyz
  1  'x, y, z'
loop_
 _atom_site_type_symbol
 _atom_site_label
 _atom_site_symmetry_multiplicity
 _atom_site_fract_x
 _atom_site_fract_y
 _atom_site_fract_z
 _atom_site_occupancy
  Al  Al0  1  0.16458600  0.00000000  0.08329900  1
  Al  Al1  1  0.00003200  0.00000000  0.00658500  1
  Al  Al2  1  0.99530600  0.00000000  0.19069200  1
  Al  Al3  1  0.41977600  0.25597600  0.08277000  1
  Al  Al4  1  0.34743800  0.00000000  0.17097100  1
  Al  Al5  1  0.32528100  0.00000000  0.35354200  1
  Al  Al6  1  0.41977600  0.74402400  0.08277000  1
  Al  Al7  1  0.74939450  0.25025650  0.25039700  1
  Al  Al8  1  0.83515100  0.00000000  0.41955200  1
  Al  Al9  1  0.65301300  0.00000000  0.33038600  1
  Al  Al10  1  0.74939450  0.74974350  0.25039700  1
  Al  Al11  1  0.67435100  0.00000000  0.14621000  1
  Al  Al12  1  0.66561700  0.00000000  0.52316700  1
  Al  Al13  1  0.58052300  0.74453000  0.41972000  1
  Al  Al14  1  0.16494400  0.00000000  0.57969100  1
  Al  Al15  1  0.58052300  0.25547000  0.41972000  1
  Al  Al16  1  0.00344300  0.00000000  0.31154000  1
  Al  Al17  1  0.99498700  0.00000000  0.68730300  1
  Al  Al18  1  0.41936100  0.25529200  0.57939200  1
  Al  Al19  1  0.34670300  0.00000000  0.66858900  1
  Al  Al20  1  0.74922350  0.74986050  0.74812900  1
  Al  Al21  1  0.41936100  0.74470800  0.57939200  1
  Al  Al22  1  0.32641600  0.00000000  0.84944300  1
  Al  Al23  1  0.33426800  0.00000000  0.47561800  1
  Al  Al24  1  0.74922350  0.25013950  0.74812900  1
  Al  Al25  1  0.65343000  0.00000000  0.82842700  1
  Al  Al26  1  0.67446700  0.00000000  0.64555800  1
  Al  Al27  1  0.58426750  0.75340050  0.91797800  1
  Al  Al28  1  0.58426750  0.24659950  0.91797800  1
  Al  Al29  1  0.00336200  0.00000000  0.81069300  1
  Al  Al30  1  0.82928400  0.00000000  0.91737800  1
  Al  Al31  1  0.33527100  0.00000000  0.98189600  1
  Al  Al32  1  0.66458600  0.50000000  0.08329900  1
  Al  Al33  1  0.50003200  0.50000000  0.00658500  1
  Al  Al34  1  0.49530600  0.50000000  0.19069200  1
  Al  Al35  1  0.91977600  0.75597600  0.08277000  1
  Al  Al36  1  0.84743800  0.50000000  0.17097100  1
  Al  Al37  1  0.82528100  0.50000000  0.35354200  1
  Al  Al38  1  0.91977600  0.24402400  0.08277000  1
  Al  Al39  1  0.24939450  0.75025650  0.25039700  1
  Al  Al40  1  0.33515100  0.50000000  0.41955200  1
  Al  Al41  1  0.15301300  0.50000000  0.33038600  1
  Al  Al42  1  0.24939450  0.24974350  0.25039700  1
  Al  Al43  1  0.17435100  0.50000000  0.14621000  1
  Al  Al44  1  0.16561700  0.50000000  0.52316700  1
  Al  Al45  1  0.08052300  0.24453000  0.41972000  1
  Al  Al46  1  0.66494400  0.50000000  0.57969100  1
  Al  Al47  1  0.08052300  0.75547000  0.41972000  1
  Al  Al48  1  0.50344300  0.50000000  0.31154000  1
  Al  Al49  1  0.49498700  0.50000000  0.68730300  1
  Al  Al50  1  0.91936100  0.75529200  0.57939200  1
  Al  Al51  1  0.84670300  0.50000000  0.66858900  1
  Al  Al52  1  0.24922350  0.24986050  0.74812900  1
  Al  Al53  1  0.91936100  0.24470800  0.57939200  1
  Al  Al54  1  0.82641600  0.50000000  0.84944300  1
  Al  Al55  1  0.83426800  0.50000000  0.47561800  1
  Al  Al56  1  0.24922350  0.75013950  0.74812900  1
  Al  Al57  1  0.15343000  0.50000000  0.82842700  1
  Al  Al58  1  0.17446700  0.50000000  0.64555800  1
  Al  Al59  1  0.08426750  0.25340050  0.91797800  1
  Al  Al60  1  0.08426750  0.74659950  0.91797800  1
  Al  Al61  1  0.50336200  0.50000000  0.81069300  1
  Al  Al62  1  0.32928400  0.50000000  0.91737800  1
  Al  Al63  1  0.83527100  0.50000000  0.98189600  1
  O  O64  1  0.57567900  0.72429600  0.04597100  1
  O  O65  1  0.00243000  0.00000000  0.12519400  1
  O  O66  1  0.57567900  0.27570400  0.04597100  1
  O  O67  1  0.84990200  0.00000000  0.04573800  1
  O  O68  1  0.40353500  0.24753500  0.20842800  1
  O  O69  1  0.49360600  0.00000000  0.12477400  1
  O  O70  1  0.25902150  0.22969550  0.12384300  1
  O  O71  1  0.40353500  0.75246500  0.20842800  1
  O  O72  1  0.32100800  0.00000000  0.29030100  1
  O  O73  1  0.33519900  0.00000000  0.04625100  1
  O  O74  1  0.17580500  0.00000000  0.20989800  1
  O  O75  1  0.25902150  0.77030450  0.12384300  1
  O  O76  1  0.74092750  0.22878650  0.37776800  1
  O  O77  1  0.82327800  0.00000000  0.29232000  1
  O  O78  1  0.59561450  0.24864050  0.29397800  1
  O  O79  1  0.67871000  0.00000000  0.21060200  1
  O  O80  1  0.74092750  0.77121350  0.37776800  1
  O  O81  1  0.66514300  0.00000000  0.45656100  1
  O  O82  1  0.50665900  0.00000000  0.37666800  1
  O  O83  1  0.59561450  0.75135950  0.29397800  1
  O  O84  1  0.58322950  0.74860650  0.54700700  1
  O  O85  1  0.16471800  0.00000000  0.45316600  1
  O  O86  1  0.99752900  0.00000000  0.37941000  1
  O  O87  1  0.41734550  0.74727750  0.45326400  1
  O  O88  1  0.58322950  0.25139350  0.54700700  1
  O  O89  1  0.00216100  0.00000000  0.62025700  1
  O  O90  1  0.83422800  0.00000000  0.54707200  1
  O  O91  1  0.41734550  0.25272250  0.45326400  1
  O  O92  1  0.40320000  0.24918200  0.70578400  1
  O  O93  1  0.49338400  0.00000000  0.62349600  1
  O  O94  1  0.33487100  0.00000000  0.54331100  1
  O  O95  1  0.40320000  0.75081800  0.70578400  1
  O  O96  1  0.25918800  0.22823800  0.62244700  1
  O  O97  1  0.32168900  0.00000000  0.78640500  1
  O  O98  1  0.17436500  0.00000000  0.70737700  1
  O  O99  1  0.25918800  0.77176200  0.62244700  1
  O  O100  1  0.74484800  0.23692200  0.87512000  1
  O  O101  1  0.82356700  0.00000000  0.79080500  1
  O  O102  1  0.67744500  0.00000000  0.70961300  1
  O  O103  1  0.66550500  0.00000000  0.94757000  1
  O  O104  1  0.59587700  0.24976000  0.79260300  1
  O  O105  1  0.74484800  0.76307800  0.87512000  1
  O  O106  1  0.50329700  0.00000000  0.87383100  1
  O  O107  1  0.59587700  0.75024000  0.79260300  1
  O  O108  1  0.15844400  0.00000000  0.95650500  1
  O  O109  1  0.42131400  0.73630700  0.95638900  1
  O  O110  1  0.99846900  0.00000000  0.87952800  1
  O  O111  1  0.42131400  0.26369300  0.95638900  1
  O  O112  1  0.07567900  0.22429600  0.04597100  1
  O  O113  1  0.50243000  0.50000000  0.12519400  1
  O  O114  1  0.07567900  0.77570400  0.04597100  1
  O  O115  1  0.34990200  0.50000000  0.04573800  1
  O  O116  1  0.90353500  0.74753500  0.20842800  1
  O  O117  1  0.99360600  0.50000000  0.12477400  1
  O  O118  1  0.75902150  0.72969550  0.12384300  1
  O  O119  1  0.90353500  0.25246500  0.20842800  1
  O  O120  1  0.82100800  0.50000000  0.29030100  1
  O  O121  1  0.83519900  0.50000000  0.04625100  1
  O  O122  1  0.67580500  0.50000000  0.20989800  1
  O  O123  1  0.75902150  0.27030450  0.12384300  1
  O  O124  1  0.24092750  0.72878650  0.37776800  1
  O  O125  1  0.32327800  0.50000000  0.29232000  1
  O  O126  1  0.09561450  0.74864050  0.29397800  1
  O  O127  1  0.17871000  0.50000000  0.21060200  1
  O  O128  1  0.24092750  0.27121350  0.37776800  1
  O  O129  1  0.16514300  0.50000000  0.45656100  1
  O  O130  1  0.00665900  0.50000000  0.37666800  1
  O  O131  1  0.09561450  0.25135950  0.29397800  1
  O  O132  1  0.08322950  0.24860650  0.54700700  1
  O  O133  1  0.66471800  0.50000000  0.45316600  1
  O  O134  1  0.49752900  0.50000000  0.37941000  1
  O  O135  1  0.91734550  0.24727750  0.45326400  1
  O  O136  1  0.08322950  0.75139350  0.54700700  1
  O  O137  1  0.50216100  0.50000000  0.62025700  1
  O  O138  1  0.33422800  0.50000000  0.54707200  1
  O  O139  1  0.91734550  0.75272250  0.45326400  1
  O  O140  1  0.90320000  0.74918200  0.70578400  1
  O  O141  1  0.99338400  0.50000000  0.62349600  1
  O  O142  1  0.83487100  0.50000000  0.54331100  1
  O  O143  1  0.90320000  0.25081800  0.70578400  1
  O  O144  1  0.75918800  0.72823800  0.62244700  1
  O  O145  1  0.82168900  0.50000000  0.78640500  1
  O  O146  1  0.67436500  0.50000000  0.70737700  1
  O  O147  1  0.75918800  0.27176200  0.62244700  1
  O  O148  1  0.24484800  0.73692200  0.87512000  1
  O  O149  1  0.32356700  0.50000000  0.79080500  1
  O  O150  1  0.17744500  0.50000000  0.70961300  1
  O  O151  1  0.16550500  0.50000000  0.94757000  1
  O  O152  1  0.09587700  0.74976000  0.79260300  1
  O  O153  1  0.24484800  0.26307800  0.87512000  1
  O  O154  1  0.00329700  0.50000000  0.87383100  1
  O  O155  1  0.09587700  0.25024000  0.79260300  1
  O  O156  1  0.65844400  0.50000000  0.95650500  1
  O  O157  1  0.92131400  0.23630700  0.95638900  1
  O  O158  1  0.49846900  0.50000000  0.87952800  1
  O  O159  1  0.92131400  0.76369300  0.95638900  1
