# generated using pymatgen
data_Be2SiO4
_symmetry_space_group_name_H-M   'P 1'
_cell_length_a   12.57297732
_cell_length_b   12.57297732
_cell_length_c   8.31197445
_cell_angle_alpha   90.00000000
_cell_angle_beta   90.00000000
_cell_angle_gamma   120.00000000
_symmetry_Int_Tables_number   1
_chemical_formula_structural   Be2SiO4
_chemical_formula_sum   'Be36 Si18 O72'
_cell_volume   1137.91833569
_cell_formula_units_Z   18
loop_
 _symmetry_equiv_pos_site_id
 _symmetry_equiv_pos_as_xyz
  1  'x, y, z'
loop_
 _atom_site_type_symbol
 _atom_site_label
 _atom_site_symmetry_multiplicity
 _atom_site_fract_x
 _atom_site_fract_y
 _atom_site_fract_z
 _atom_site_occupancy
  Be  Be0  1  0.68375733  0.54480067  0.41772667  1
  Be  Be1  1  0.86104333  0.31624267  0.41772667  1
  Be  Be2  1  0.45519933  0.13895667  0.41772667  1
  Be  Be3  1  0.31624267  0.45519933  0.58227333  1
  Be  Be4  1  0.13895667  0.68375733  0.58227333  1
  Be  Be5  1  0.54480067  0.86104333  0.58227333  1
  Be  Be6  1  0.20981267  0.19430633  0.58437933  1
  Be  Be7  1  0.80569367  0.01550633  0.58437933  1
  Be  Be8  1  0.98449367  0.79018733  0.58437933  1
  Be  Be9  1  0.79018733  0.80569367  0.41562067  1
  Be  Be10  1  0.19430633  0.98449367  0.41562067  1
  Be  Be11  1  0.01550633  0.20981267  0.41562067  1
  Be  Be12  1  0.35042400  0.87813400  0.75106000  1
  Be  Be13  1  0.52771000  0.64957600  0.75106000  1
  Be  Be14  1  0.12186600  0.47229000  0.75106000  1
  Be  Be15  1  0.98290933  0.78853267  0.91560667  1
  Be  Be16  1  0.80562333  0.01709067  0.91560667  1
  Be  Be17  1  0.21146733  0.19437667  0.91560667  1
  Be  Be18  1  0.87647933  0.52763967  0.91771267  1
  Be  Be19  1  0.47236033  0.34883967  0.91771267  1
  Be  Be20  1  0.65116033  0.12352067  0.91771267  1
  Be  Be21  1  0.45685400  0.13902700  0.74895400  1
  Be  Be22  1  0.86097300  0.31782700  0.74895400  1
  Be  Be23  1  0.68217300  0.54314600  0.74895400  1
  Be  Be24  1  0.01709067  0.21146733  0.08439333  1
  Be  Be25  1  0.19437667  0.98290933  0.08439333  1
  Be  Be26  1  0.78853267  0.80562333  0.08439333  1
  Be  Be27  1  0.64957600  0.12186600  0.24894000  1
  Be  Be28  1  0.47229000  0.35042400  0.24894000  1
  Be  Be29  1  0.87813400  0.52771000  0.24894000  1
  Be  Be30  1  0.54314600  0.86097300  0.25104600  1
  Be  Be31  1  0.13902700  0.68217300  0.25104600  1
  Be  Be32  1  0.31782700  0.45685400  0.25104600  1
  Be  Be33  1  0.12352067  0.47236033  0.08228733  1
  Be  Be34  1  0.52763967  0.65116033  0.08228733  1
  Be  Be35  1  0.34883967  0.87647933  0.08228733  1
  Si  Si36  1  0.01571400  0.21133100  0.74995200  1
  Si  Si37  1  0.19561700  0.98428600  0.74995200  1
  Si  Si38  1  0.78866900  0.80438300  0.74995200  1
  Si  Si39  1  0.98428600  0.78866900  0.25004800  1
  Si  Si40  1  0.80438300  0.01571400  0.25004800  1
  Si  Si41  1  0.21133100  0.19561700  0.25004800  1
  Si  Si42  1  0.68238067  0.54466433  0.08328533  1
  Si  Si43  1  0.86228367  0.31761933  0.08328533  1
  Si  Si44  1  0.45533567  0.13771633  0.08328533  1
  Si  Si45  1  0.65095267  0.12200233  0.58338133  1
  Si  Si46  1  0.47104967  0.34904733  0.58338133  1
  Si  Si47  1  0.87799767  0.52895033  0.58338133  1
  Si  Si48  1  0.34904733  0.87799767  0.41661867  1
  Si  Si49  1  0.52895033  0.65095267  0.41661867  1
  Si  Si50  1  0.12200233  0.47104967  0.41661867  1
  Si  Si51  1  0.31761933  0.45533567  0.91671467  1
  Si  Si52  1  0.13771633  0.68238067  0.91671467  1
  Si  Si53  1  0.54466433  0.86228367  0.91671467  1
  O  O54  1  0.20841533  0.12195767  0.41553267  1
  O  O55  1  0.87804233  0.08645767  0.41553267  1
  O  O56  1  0.91354233  0.79158467  0.41553267  1
  O  O57  1  0.79158467  0.87804233  0.58446733  1
  O  O58  1  0.12195767  0.91354233  0.58446733  1
  O  O59  1  0.08645767  0.20841533  0.58446733  1
  O  O60  1  0.08752167  0.20918333  0.24968933  1
  O  O61  1  0.79081667  0.87833833  0.24968933  1
  O  O62  1  0.12166167  0.91247833  0.24968933  1
  O  O63  1  0.91247833  0.79081667  0.75031067  1
  O  O64  1  0.20918333  0.12166167  0.75031067  1
  O  O65  1  0.87833833  0.08752167  0.75031067  1
  O  O66  1  0.00011700  0.66725800  0.58344700  1
  O  O67  1  0.33274200  0.33285900  0.58344700  1
  O  O68  1  0.66714100  0.99988300  0.58344700  1
  O  O69  1  0.99988300  0.33274200  0.41655300  1
  O  O70  1  0.66725800  0.66714100  0.41655300  1
  O  O71  1  0.33285900  0.00011700  0.41655300  1
  O  O72  1  0.54290533  0.78875567  0.75114067  1
  O  O73  1  0.21124433  0.75414967  0.75114067  1
  O  O74  1  0.24585033  0.45709467  0.75114067  1
  O  O75  1  0.45709467  0.21124433  0.24885933  1
  O  O76  1  0.78875567  0.24585033  0.24885933  1
  O  O77  1  0.75414967  0.54290533  0.24885933  1
  O  O78  1  0.87508200  0.45529100  0.74886600  1
  O  O79  1  0.54470900  0.41979100  0.74886600  1
  O  O80  1  0.58020900  0.12491800  0.74886600  1
  O  O81  1  0.45825133  0.21137567  0.91780067  1
  O  O82  1  0.78862433  0.24687567  0.91780067  1
  O  O83  1  0.75312433  0.54174867  0.91780067  1
  O  O84  1  0.75418833  0.54251667  0.58302267  1
  O  O85  1  0.45748333  0.21167167  0.58302267  1
  O  O86  1  0.78832833  0.24581167  0.58302267  1
  O  O87  1  0.57914500  0.12415000  0.08364400  1
  O  O88  1  0.87585000  0.45499500  0.08364400  1
  O  O89  1  0.54500500  0.42085500  0.08364400  1
  O  O90  1  0.66678367  0.00059133  0.91678033  1
  O  O91  1  0.99940867  0.66619233  0.91678033  1
  O  O92  1  0.33380767  0.33321633  0.91678033  1
  O  O93  1  0.66654967  0.66607533  0.74988633  1
  O  O94  1  0.33392467  0.00047433  0.74988633  1
  O  O95  1  0.99952567  0.33345033  0.74988633  1
  O  O96  1  0.20957200  0.12208900  0.08447400  1
  O  O97  1  0.87791100  0.08748300  0.08447400  1
  O  O98  1  0.91251700  0.79042800  0.08447400  1
  O  O99  1  0.12376133  0.54457767  0.58219267  1
  O  O100  1  0.45542233  0.57918367  0.58219267  1
  O  O101  1  0.42081633  0.87623867  0.58219267  1
  O  O102  1  0.54174867  0.78862433  0.08219933  1
  O  O103  1  0.21137567  0.75312433  0.08219933  1
  O  O104  1  0.24687567  0.45825133  0.08219933  1
  O  O105  1  0.12491800  0.54470900  0.25113400  1
  O  O106  1  0.45529100  0.58020900  0.25113400  1
  O  O107  1  0.41979100  0.87508200  0.25113400  1
  O  O108  1  0.42085500  0.87585000  0.91635600  1
  O  O109  1  0.12415000  0.54500500  0.91635600  1
  O  O110  1  0.45499500  0.57914500  0.91635600  1
  O  O111  1  0.24581167  0.45748333  0.41697733  1
  O  O112  1  0.54251667  0.78832833  0.41697733  1
  O  O113  1  0.21167167  0.75418833  0.41697733  1
  O  O114  1  0.33345033  0.33392467  0.25011367  1
  O  O115  1  0.66607533  0.99952567  0.25011367  1
  O  O116  1  0.00047433  0.66654967  0.25011367  1
  O  O117  1  0.33321633  0.99940867  0.08321967  1
  O  O118  1  0.00059133  0.33380767  0.08321967  1
  O  O119  1  0.66619233  0.66678367  0.08321967  1
  O  O120  1  0.87623867  0.45542233  0.41780733  1
  O  O121  1  0.54457767  0.42081633  0.41780733  1
  O  O122  1  0.57918367  0.12376133  0.41780733  1
  O  O123  1  0.79042800  0.87791100  0.91552600  1
  O  O124  1  0.12208900  0.91251700  0.91552600  1
  O  O125  1  0.08748300  0.20957200  0.91552600  1
