# generated using pymatgen
data_BaP8
_symmetry_space_group_name_H-M   'P 1'
_cell_length_a   6.85995700
_cell_length_b   7.33009105
_cell_length_c   8.68997405
_cell_angle_alpha   86.36492096
_cell_angle_beta   83.75668124
_cell_angle_gamma   70.21503446
_symmetry_Int_Tables_number   1
_chemical_formula_structural   BaP8
_chemical_formula_sum   'Ba2 P16'
_cell_volume   408.56940345
_cell_formula_units_Z   2
loop_
 _symmetry_equiv_pos_site_id
 _symmetry_equiv_pos_as_xyz
  1  'x, y, z'
loop_
 _atom_site_type_symbol
 _atom_site_label
 _atom_site_symmetry_multiplicity
 _atom_site_fract_x
 _atom_site_fract_y
 _atom_site_fract_z
 _atom_site_occupancy
  Ba  Ba0  1  0.73710400  0.66494800  0.32055200  1
  Ba  Ba1  1  0.26289600  0.33505200  0.67944800  1
  P  P2  1  0.47667600  0.66885000  0.79717100  1
  P  P3  1  0.52332400  0.33115000  0.20282900  1
  P  P4  1  0.01308900  0.04196100  0.61805500  1
  P  P5  1  0.98691100  0.95803900  0.38194500  1
  P  P6  1  0.09029600  0.18343900  0.24162200  1
  P  P7  1  0.90970400  0.81656100  0.75837800  1
  P  P8  1  0.14146100  0.04892200  0.00278600  1
  P  P9  1  0.85853900  0.95107800  0.99721400  1
  P  P10  1  0.23615800  0.67674600  0.39380700  1
  P  P11  1  0.76384200  0.32325400  0.60619300  1
  P  P12  1  0.23655000  0.57937800  0.15654100  1
  P  P13  1  0.76345000  0.42062200  0.84345900  1
  P  P14  1  0.39587200  0.12224200  0.32748300  1
  P  P15  1  0.60412800  0.87775800  0.67251700  1
  P  P16  1  0.40184600  0.77368500  0.03975600  1
  P  P17  1  0.59815400  0.22631500  0.96024400  1
