# generated using pymatgen
data_Na8SnSb4
_symmetry_space_group_name_H-M   'P 1'
_cell_length_a   14.93311800
_cell_length_b   14.93311800
_cell_length_c   14.93311800
_cell_angle_alpha   90.00000000
_cell_angle_beta   90.00000000
_cell_angle_gamma   90.00000000
_symmetry_Int_Tables_number   1
_chemical_formula_structural   Na8SnSb4
_chemical_formula_sum   'Na64 Sn8 Sb32'
_cell_volume   3330.05564491
_cell_formula_units_Z   8
loop_
 _symmetry_equiv_pos_site_id
 _symmetry_equiv_pos_as_xyz
  1  'x, y, z'
loop_
 _atom_site_type_symbol
 _atom_site_label
 _atom_site_symmetry_multiplicity
 _atom_site_fract_x
 _atom_site_fract_y
 _atom_site_fract_z
 _atom_site_occupancy
  Na  Na0  1  0.37500000  0.12500000  0.37500000  1
  Na  Na1  1  0.87500000  0.87500000  0.12500000  1
  Na  Na2  1  0.62500000  0.87500000  0.37500000  1
  Na  Na3  1  0.12500000  0.12500000  0.12500000  1
  Na  Na4  1  0.25000000  0.75000000  0.02025500  1
  Na  Na5  1  0.22974500  0.00000000  0.50000000  1
  Na  Na6  1  0.77025500  0.00000000  0.50000000  1
  Na  Na7  1  0.00000000  0.00000000  0.27025500  1
  Na  Na8  1  0.50000000  0.27025500  0.50000000  1
  Na  Na9  1  0.50000000  0.72974500  0.50000000  1
  Na  Na10  1  0.25000000  0.97974500  0.25000000  1
  Na  Na11  1  0.02025500  0.75000000  0.25000000  1
  Na  Na12  1  0.47974500  0.75000000  0.25000000  1
  Na  Na13  1  0.25000000  0.52025500  0.25000000  1
  Na  Na14  1  0.50000000  0.00000000  0.22974500  1
  Na  Na15  1  0.25000000  0.75000000  0.47974500  1
  Na  Na16  1  0.37500000  0.62500000  0.87500000  1
  Na  Na17  1  0.87500000  0.37500000  0.62500000  1
  Na  Na18  1  0.62500000  0.37500000  0.87500000  1
  Na  Na19  1  0.12500000  0.62500000  0.62500000  1
  Na  Na20  1  0.25000000  0.25000000  0.52025500  1
  Na  Na21  1  0.22974500  0.50000000  0.00000000  1
  Na  Na22  1  0.77025500  0.50000000  0.00000000  1
  Na  Na23  1  0.00000000  0.50000000  0.77025500  1
  Na  Na24  1  0.50000000  0.77025500  0.00000000  1
  Na  Na25  1  0.50000000  0.22974500  0.00000000  1
  Na  Na26  1  0.25000000  0.47974500  0.75000000  1
  Na  Na27  1  0.02025500  0.25000000  0.75000000  1
  Na  Na28  1  0.47974500  0.25000000  0.75000000  1
  Na  Na29  1  0.25000000  0.02025500  0.75000000  1
  Na  Na30  1  0.50000000  0.50000000  0.72974500  1
  Na  Na31  1  0.25000000  0.25000000  0.97974500  1
  Na  Na32  1  0.87500000  0.12500000  0.87500000  1
  Na  Na33  1  0.37500000  0.87500000  0.62500000  1
  Na  Na34  1  0.12500000  0.87500000  0.87500000  1
  Na  Na35  1  0.62500000  0.12500000  0.62500000  1
  Na  Na36  1  0.75000000  0.75000000  0.52025500  1
  Na  Na37  1  0.72974500  0.00000000  0.00000000  1
  Na  Na38  1  0.27025500  0.00000000  0.00000000  1
  Na  Na39  1  0.50000000  0.00000000  0.77025500  1
  Na  Na40  1  0.00000000  0.27025500  0.00000000  1
  Na  Na41  1  0.00000000  0.72974500  0.00000000  1
  Na  Na42  1  0.75000000  0.97974500  0.75000000  1
  Na  Na43  1  0.52025500  0.75000000  0.75000000  1
  Na  Na44  1  0.97974500  0.75000000  0.75000000  1
  Na  Na45  1  0.75000000  0.52025500  0.75000000  1
  Na  Na46  1  0.00000000  0.00000000  0.72974500  1
  Na  Na47  1  0.75000000  0.75000000  0.97974500  1
  Na  Na48  1  0.87500000  0.62500000  0.37500000  1
  Na  Na49  1  0.37500000  0.37500000  0.12500000  1
  Na  Na50  1  0.12500000  0.37500000  0.37500000  1
  Na  Na51  1  0.62500000  0.62500000  0.12500000  1
  Na  Na52  1  0.75000000  0.25000000  0.02025500  1
  Na  Na53  1  0.72974500  0.50000000  0.50000000  1
  Na  Na54  1  0.27025500  0.50000000  0.50000000  1
  Na  Na55  1  0.50000000  0.50000000  0.27025500  1
  Na  Na56  1  0.00000000  0.77025500  0.50000000  1
  Na  Na57  1  0.00000000  0.22974500  0.50000000  1
  Na  Na58  1  0.75000000  0.47974500  0.25000000  1
  Na  Na59  1  0.52025500  0.25000000  0.25000000  1
  Na  Na60  1  0.97974500  0.25000000  0.25000000  1
  Na  Na61  1  0.75000000  0.02025500  0.25000000  1
  Na  Na62  1  0.00000000  0.50000000  0.22974500  1
  Na  Na63  1  0.75000000  0.25000000  0.47974500  1
  Sn  Sn64  1  0.50000000  0.00000000  0.50000000  1
  Sn  Sn65  1  0.25000000  0.25000000  0.25000000  1
  Sn  Sn66  1  0.50000000  0.50000000  0.00000000  1
  Sn  Sn67  1  0.25000000  0.75000000  0.75000000  1
  Sn  Sn68  1  0.00000000  0.00000000  0.00000000  1
  Sn  Sn69  1  0.75000000  0.25000000  0.75000000  1
  Sn  Sn70  1  0.00000000  0.50000000  0.50000000  1
  Sn  Sn71  1  0.75000000  0.75000000  0.25000000  1
  Sb  Sb72  1  0.36153433  0.13846567  0.13846567  1
  Sb  Sb73  1  0.36153433  0.36153433  0.36153433  1
  Sb  Sb74  1  0.88846567  0.11153433  0.11153433  1
  Sb  Sb75  1  0.38846567  0.88846567  0.38846567  1
  Sb  Sb76  1  0.61153433  0.11153433  0.38846567  1
  Sb  Sb77  1  0.13846567  0.36153433  0.13846567  1
  Sb  Sb78  1  0.13846567  0.13846567  0.36153433  1
  Sb  Sb79  1  0.11153433  0.88846567  0.11153433  1
  Sb  Sb80  1  0.36153433  0.63846567  0.63846567  1
  Sb  Sb81  1  0.36153433  0.86153433  0.86153433  1
  Sb  Sb82  1  0.88846567  0.61153433  0.61153433  1
  Sb  Sb83  1  0.38846567  0.38846567  0.88846567  1
  Sb  Sb84  1  0.61153433  0.61153433  0.88846567  1
  Sb  Sb85  1  0.13846567  0.86153433  0.63846567  1
  Sb  Sb86  1  0.13846567  0.63846567  0.86153433  1
  Sb  Sb87  1  0.11153433  0.38846567  0.61153433  1
  Sb  Sb88  1  0.86153433  0.13846567  0.63846567  1
  Sb  Sb89  1  0.86153433  0.36153433  0.86153433  1
  Sb  Sb90  1  0.38846567  0.11153433  0.61153433  1
  Sb  Sb91  1  0.88846567  0.88846567  0.88846567  1
  Sb  Sb92  1  0.11153433  0.11153433  0.88846567  1
  Sb  Sb93  1  0.63846567  0.36153433  0.63846567  1
  Sb  Sb94  1  0.63846567  0.13846567  0.86153433  1
  Sb  Sb95  1  0.61153433  0.88846567  0.61153433  1
  Sb  Sb96  1  0.86153433  0.63846567  0.13846567  1
  Sb  Sb97  1  0.86153433  0.86153433  0.36153433  1
  Sb  Sb98  1  0.38846567  0.61153433  0.11153433  1
  Sb  Sb99  1  0.88846567  0.38846567  0.38846567  1
  Sb  Sb100  1  0.11153433  0.61153433  0.38846567  1
  Sb  Sb101  1  0.63846567  0.86153433  0.13846567  1
  Sb  Sb102  1  0.63846567  0.63846567  0.36153433  1
  Sb  Sb103  1  0.61153433  0.38846567  0.11153433  1
