# generated using pymatgen
data_AgSbSe2
_symmetry_space_group_name_H-M   'P 1'
_cell_length_a   5.73950400
_cell_length_b   5.73950400
_cell_length_c   11.76967800
_cell_angle_alpha   90.00000000
_cell_angle_beta   90.00000000
_cell_angle_gamma   90.00000000
_symmetry_Int_Tables_number   1
_chemical_formula_structural   AgSbSe2
_chemical_formula_sum   'Ag4 Sb4 Se8'
_cell_volume   387.71562828
_cell_formula_units_Z   4
loop_
 _symmetry_equiv_pos_site_id
 _symmetry_equiv_pos_as_xyz
  1  'x, y, z'
loop_
 _atom_site_type_symbol
 _atom_site_label
 _atom_site_symmetry_multiplicity
 _atom_site_fract_x
 _atom_site_fract_y
 _atom_site_fract_z
 _atom_site_occupancy
  Ag  Ag0  1  0.50000000  0.00000000  0.25000000  1
  Ag  Ag1  1  0.50000000  0.50000000  0.00000000  1
  Ag  Ag2  1  0.00000000  0.50000000  0.75000000  1
  Ag  Ag3  1  0.00000000  0.00000000  0.50000000  1
  Sb  Sb4  1  0.00000000  0.00000000  0.00000000  1
  Sb  Sb5  1  0.00000000  0.50000000  0.25000000  1
  Sb  Sb6  1  0.50000000  0.50000000  0.50000000  1
  Sb  Sb7  1  0.50000000  0.00000000  0.75000000  1
  Se  Se8  1  0.50000000  0.50000000  0.25341500  1
  Se  Se9  1  0.00000000  0.50000000  0.49658500  1
  Se  Se10  1  0.00000000  0.50000000  0.00341500  1
  Se  Se11  1  0.00000000  0.00000000  0.24658500  1
  Se  Se12  1  0.00000000  0.00000000  0.75341500  1
  Se  Se13  1  0.50000000  0.00000000  0.99658500  1
  Se  Se14  1  0.50000000  0.00000000  0.50341500  1
  Se  Se15  1  0.50000000  0.50000000  0.74658500  1
