# generated using pymatgen
data_TlS
_symmetry_space_group_name_H-M   'P 1'
_cell_length_a   7.97355200
_cell_length_b   7.97355200
_cell_length_c   6.98214000
_cell_angle_alpha   90.00000000
_cell_angle_beta   90.00000000
_cell_angle_gamma   90.00000000
_symmetry_Int_Tables_number   1
_chemical_formula_structural   TlS
_chemical_formula_sum   'Tl8 S8'
_cell_volume   443.90722576
_cell_formula_units_Z   8
loop_
 _symmetry_equiv_pos_site_id
 _symmetry_equiv_pos_as_xyz
  1  'x, y, z'
loop_
 _atom_site_type_symbol
 _atom_site_label
 _atom_site_symmetry_multiplicity
 _atom_site_fract_x
 _atom_site_fract_y
 _atom_site_fract_z
 _atom_site_occupancy
  Tl  Tl0  1  0.00000000  0.00000000  0.75000000  1
  Tl  Tl1  1  0.00000000  0.00000000  0.25000000  1
  Tl  Tl2  1  0.00000000  0.50000000  0.25000000  1
  Tl  Tl3  1  0.50000000  0.00000000  0.25000000  1
  Tl  Tl4  1  0.50000000  0.50000000  0.25000000  1
  Tl  Tl5  1  0.50000000  0.50000000  0.75000000  1
  Tl  Tl6  1  0.50000000  0.00000000  0.75000000  1
  Tl  Tl7  1  0.00000000  0.50000000  0.75000000  1
  S  S8  1  0.67075050  0.17075050  0.00000000  1
  S  S9  1  0.82924950  0.32924950  0.50000000  1
  S  S10  1  0.32924950  0.17075050  0.50000000  1
  S  S11  1  0.17075050  0.32924950  0.00000000  1
  S  S12  1  0.17075050  0.67075050  0.50000000  1
  S  S13  1  0.32924950  0.82924950  0.00000000  1
  S  S14  1  0.82924950  0.67075050  0.00000000  1
  S  S15  1  0.67075050  0.82924950  0.50000000  1
