# generated using pymatgen
data_ZrP2S7
_symmetry_space_group_name_H-M   'P 1'
_cell_length_a   9.14193200
_cell_length_b   15.17849200
_cell_length_c   30.26185000
_cell_angle_alpha   90.00000000
_cell_angle_beta   90.00000000
_cell_angle_gamma   90.00000000
_symmetry_Int_Tables_number   1
_chemical_formula_structural   ZrP2S7
_chemical_formula_sum   'Zr16 P32 S112'
_cell_volume   4199.15675202
_cell_formula_units_Z   16
loop_
 _symmetry_equiv_pos_site_id
 _symmetry_equiv_pos_as_xyz
  1  'x, y, z'
loop_
 _atom_site_type_symbol
 _atom_site_label
 _atom_site_symmetry_multiplicity
 _atom_site_fract_x
 _atom_site_fract_y
 _atom_site_fract_z
 _atom_site_occupancy
  Zr  Zr0  1  0.50000000  0.00000000  0.38818700  1
  Zr  Zr1  1  0.75000000  0.75000000  0.36181300  1
  Zr  Zr2  1  0.00000000  0.00000000  0.11181300  1
  Zr  Zr3  1  0.75000000  0.75000000  0.13818700  1
  Zr  Zr4  1  0.50000000  0.50000000  0.88818700  1
  Zr  Zr5  1  0.75000000  0.25000000  0.86181300  1
  Zr  Zr6  1  0.00000000  0.50000000  0.61181300  1
  Zr  Zr7  1  0.75000000  0.25000000  0.63818700  1
  Zr  Zr8  1  0.00000000  0.00000000  0.88818700  1
  Zr  Zr9  1  0.25000000  0.75000000  0.86181300  1
  Zr  Zr10  1  0.50000000  0.00000000  0.61181300  1
  Zr  Zr11  1  0.25000000  0.75000000  0.63818700  1
  Zr  Zr12  1  0.00000000  0.50000000  0.38818700  1
  Zr  Zr13  1  0.25000000  0.25000000  0.36181300  1
  Zr  Zr14  1  0.50000000  0.50000000  0.11181300  1
  Zr  Zr15  1  0.25000000  0.25000000  0.13818700  1
  P  P16  1  0.00255000  0.30976850  0.44225550  1
  P  P17  1  0.99745000  0.69023150  0.44225550  1
  P  P18  1  0.74745000  0.94023150  0.30774450  1
  P  P19  1  0.75255000  0.55976850  0.30774450  1
  P  P20  1  0.75255000  0.94023150  0.19225550  1
  P  P21  1  0.74745000  0.55976850  0.19225550  1
  P  P22  1  0.49745000  0.30976850  0.05774450  1
  P  P23  1  0.50255000  0.69023150  0.05774450  1
  P  P24  1  0.00255000  0.80976850  0.94225550  1
  P  P25  1  0.99745000  0.19023150  0.94225550  1
  P  P26  1  0.74745000  0.44023150  0.80774450  1
  P  P27  1  0.75255000  0.05976850  0.80774450  1
  P  P28  1  0.75255000  0.44023150  0.69225550  1
  P  P29  1  0.74745000  0.05976850  0.69225550  1
  P  P30  1  0.49745000  0.80976850  0.55774450  1
  P  P31  1  0.50255000  0.19023150  0.55774450  1
  P  P32  1  0.50255000  0.30976850  0.94225550  1
  P  P33  1  0.49745000  0.69023150  0.94225550  1
  P  P34  1  0.24745000  0.94023150  0.80774450  1
  P  P35  1  0.25255000  0.55976850  0.80774450  1
  P  P36  1  0.25255000  0.94023150  0.69225550  1
  P  P37  1  0.24745000  0.55976850  0.69225550  1
  P  P38  1  0.99745000  0.30976850  0.55774450  1
  P  P39  1  0.00255000  0.69023150  0.55774450  1
  P  P40  1  0.50255000  0.80976850  0.44225550  1
  P  P41  1  0.49745000  0.19023150  0.44225550  1
  P  P42  1  0.24745000  0.44023150  0.30774450  1
  P  P43  1  0.25255000  0.05976850  0.30774450  1
  P  P44  1  0.25255000  0.44023150  0.19225550  1
  P  P45  1  0.24745000  0.05976850  0.19225550  1
  P  P46  1  0.99745000  0.80976850  0.05774450  1
  P  P47  1  0.00255000  0.19023150  0.05774450  1
  S  S48  1  0.50000000  0.22967300  0.00000000  1
  S  S49  1  0.94506900  0.87665050  0.17713750  1
  S  S50  1  0.69506900  0.62665050  0.07286250  1
  S  S51  1  0.80493100  0.87334950  0.07286250  1
  S  S52  1  0.39791600  0.15681250  0.19662850  1
  S  S53  1  0.60208400  0.84318750  0.19662850  1
  S  S54  1  0.85208400  0.09318750  0.05337150  1
  S  S55  1  0.14791600  0.90681250  0.05337150  1
  S  S56  1  0.26937650  0.96707100  0.14469250  1
  S  S57  1  0.55493100  0.62334950  0.17713750  1
  S  S58  1  0.48062350  0.78292900  0.10530750  1
  S  S59  1  0.51937650  0.21707100  0.10530750  1
  S  S60  1  0.23062350  0.96707100  0.35530750  1
  S  S61  1  0.76937650  0.03292900  0.35530750  1
  S  S62  1  0.01937650  0.78292900  0.39469250  1
  S  S63  1  0.98062350  0.21707100  0.39469250  1
  S  S64  1  0.10208400  0.15681250  0.30337150  1
  S  S65  1  0.89791600  0.84318750  0.30337150  1
  S  S66  1  0.64791600  0.09318750  0.44662850  1
  S  S67  1  0.35208400  0.90681250  0.44662850  1
  S  S68  1  0.94506900  0.62334950  0.32286250  1
  S  S69  1  0.55493100  0.87665050  0.32286250  1
  S  S70  1  0.80493100  0.62665050  0.42713750  1
  S  S71  1  0.69506900  0.87334950  0.42713750  1
  S  S72  1  0.75000000  0.02032700  0.25000000  1
  S  S73  1  0.75000000  0.47967300  0.25000000  1
  S  S74  1  0.73062350  0.03292900  0.14469250  1
  S  S75  1  0.50000000  0.77032700  0.00000000  1
  S  S76  1  0.50000000  0.72967300  0.50000000  1
  S  S77  1  0.94506900  0.37665050  0.67713750  1
  S  S78  1  0.69506900  0.12665050  0.57286250  1
  S  S79  1  0.80493100  0.37334950  0.57286250  1
  S  S80  1  0.39791600  0.65681250  0.69662850  1
  S  S81  1  0.60208400  0.34318750  0.69662850  1
  S  S82  1  0.85208400  0.59318750  0.55337150  1
  S  S83  1  0.14791600  0.40681250  0.55337150  1
  S  S84  1  0.26937650  0.46707100  0.64469250  1
  S  S85  1  0.55493100  0.12334950  0.67713750  1
  S  S86  1  0.48062350  0.28292900  0.60530750  1
  S  S87  1  0.51937650  0.71707100  0.60530750  1
  S  S88  1  0.23062350  0.46707100  0.85530750  1
  S  S89  1  0.76937650  0.53292900  0.85530750  1
  S  S90  1  0.01937650  0.28292900  0.89469250  1
  S  S91  1  0.98062350  0.71707100  0.89469250  1
  S  S92  1  0.10208400  0.65681250  0.80337150  1
  S  S93  1  0.89791600  0.34318750  0.80337150  1
  S  S94  1  0.64791600  0.59318750  0.94662850  1
  S  S95  1  0.35208400  0.40681250  0.94662850  1
  S  S96  1  0.94506900  0.12334950  0.82286250  1
  S  S97  1  0.55493100  0.37665050  0.82286250  1
  S  S98  1  0.80493100  0.12665050  0.92713750  1
  S  S99  1  0.69506900  0.37334950  0.92713750  1
  S  S100  1  0.75000000  0.52032700  0.75000000  1
  S  S101  1  0.75000000  0.97967300  0.75000000  1
  S  S102  1  0.73062350  0.53292900  0.64469250  1
  S  S103  1  0.50000000  0.27032700  0.50000000  1
  S  S104  1  0.00000000  0.22967300  0.50000000  1
  S  S105  1  0.44506900  0.87665050  0.67713750  1
  S  S106  1  0.19506900  0.62665050  0.57286250  1
  S  S107  1  0.30493100  0.87334950  0.57286250  1
  S  S108  1  0.89791600  0.15681250  0.69662850  1
  S  S109  1  0.10208400  0.84318750  0.69662850  1
  S  S110  1  0.35208400  0.09318750  0.55337150  1
  S  S111  1  0.64791600  0.90681250  0.55337150  1
  S  S112  1  0.76937650  0.96707100  0.64469250  1
  S  S113  1  0.05493100  0.62334950  0.67713750  1
  S  S114  1  0.98062350  0.78292900  0.60530750  1
  S  S115  1  0.01937650  0.21707100  0.60530750  1
  S  S116  1  0.73062350  0.96707100  0.85530750  1
  S  S117  1  0.26937650  0.03292900  0.85530750  1
  S  S118  1  0.51937650  0.78292900  0.89469250  1
  S  S119  1  0.48062350  0.21707100  0.89469250  1
  S  S120  1  0.60208400  0.15681250  0.80337150  1
  S  S121  1  0.39791600  0.84318750  0.80337150  1
  S  S122  1  0.14791600  0.09318750  0.94662850  1
  S  S123  1  0.85208400  0.90681250  0.94662850  1
  S  S124  1  0.44506900  0.62334950  0.82286250  1
  S  S125  1  0.05493100  0.87665050  0.82286250  1
  S  S126  1  0.30493100  0.62665050  0.92713750  1
  S  S127  1  0.19506900  0.87334950  0.92713750  1
  S  S128  1  0.25000000  0.02032700  0.75000000  1
  S  S129  1  0.25000000  0.47967300  0.75000000  1
  S  S130  1  0.23062350  0.03292900  0.64469250  1
  S  S131  1  0.00000000  0.77032700  0.50000000  1
  S  S132  1  0.00000000  0.72967300  0.00000000  1
  S  S133  1  0.44506900  0.37665050  0.17713750  1
  S  S134  1  0.19506900  0.12665050  0.07286250  1
  S  S135  1  0.30493100  0.37334950  0.07286250  1
  S  S136  1  0.89791600  0.65681250  0.19662850  1
  S  S137  1  0.10208400  0.34318750  0.19662850  1
  S  S138  1  0.35208400  0.59318750  0.05337150  1
  S  S139  1  0.64791600  0.40681250  0.05337150  1
  S  S140  1  0.76937650  0.46707100  0.14469250  1
  S  S141  1  0.05493100  0.12334950  0.17713750  1
  S  S142  1  0.98062350  0.28292900  0.10530750  1
  S  S143  1  0.01937650  0.71707100  0.10530750  1
  S  S144  1  0.73062350  0.46707100  0.35530750  1
  S  S145  1  0.26937650  0.53292900  0.35530750  1
  S  S146  1  0.51937650  0.28292900  0.39469250  1
  S  S147  1  0.48062350  0.71707100  0.39469250  1
  S  S148  1  0.60208400  0.65681250  0.30337150  1
  S  S149  1  0.39791600  0.34318750  0.30337150  1
  S  S150  1  0.14791600  0.59318750  0.44662850  1
  S  S151  1  0.85208400  0.40681250  0.44662850  1
  S  S152  1  0.44506900  0.12334950  0.32286250  1
  S  S153  1  0.05493100  0.37665050  0.32286250  1
  S  S154  1  0.30493100  0.12665050  0.42713750  1
  S  S155  1  0.19506900  0.37334950  0.42713750  1
  S  S156  1  0.25000000  0.52032700  0.25000000  1
  S  S157  1  0.25000000  0.97967300  0.25000000  1
  S  S158  1  0.23062350  0.53292900  0.14469250  1
  S  S159  1  0.00000000  0.27032700  0.00000000  1
