# generated using pymatgen
data_Ca4Sb2S
_symmetry_space_group_name_H-M   'P 1'
_cell_length_a   9.17280000
_cell_length_b   9.17280000
_cell_length_c   9.54034200
_cell_angle_alpha   90.00000000
_cell_angle_beta   90.00000000
_cell_angle_gamma   90.00000000
_symmetry_Int_Tables_number   1
_chemical_formula_structural   Ca4Sb2S
_chemical_formula_sum   'Ca16 Sb8 S4'
_cell_volume   802.72685484
_cell_formula_units_Z   4
loop_
 _symmetry_equiv_pos_site_id
 _symmetry_equiv_pos_as_xyz
  1  'x, y, z'
loop_
 _atom_site_type_symbol
 _atom_site_label
 _atom_site_symmetry_multiplicity
 _atom_site_fract_x
 _atom_site_fract_y
 _atom_site_fract_z
 _atom_site_occupancy
  Ca  Ca0  1  0.57023350  0.30803150  0.30547650  1
  Ca  Ca1  1  0.19196850  0.07023350  0.19452350  1
  Ca  Ca2  1  0.30803150  0.42976650  0.69452350  1
  Ca  Ca3  1  0.19196850  0.42976650  0.05547650  1
  Ca  Ca4  1  0.57023350  0.19196850  0.94452350  1
  Ca  Ca5  1  0.92976650  0.30803150  0.44452350  1
  Ca  Ca6  1  0.92976650  0.19196850  0.80547650  1
  Ca  Ca7  1  0.30803150  0.07023350  0.55547650  1
  Ca  Ca8  1  0.07023350  0.80803150  0.80547650  1
  Ca  Ca9  1  0.69196850  0.57023350  0.69452350  1
  Ca  Ca10  1  0.80803150  0.92976650  0.19452350  1
  Ca  Ca11  1  0.69196850  0.92976650  0.55547650  1
  Ca  Ca12  1  0.07023350  0.69196850  0.44452350  1
  Ca  Ca13  1  0.42976650  0.80803150  0.94452350  1
  Ca  Ca14  1  0.42976650  0.69196850  0.30547650  1
  Ca  Ca15  1  0.80803150  0.57023350  0.05547650  1
  Sb  Sb16  1  0.37235500  0.75000000  0.62500000  1
  Sb  Sb17  1  0.25000000  0.12764500  0.87500000  1
  Sb  Sb18  1  0.12764500  0.75000000  0.12500000  1
  Sb  Sb19  1  0.25000000  0.37235500  0.37500000  1
  Sb  Sb20  1  0.87235500  0.25000000  0.12500000  1
  Sb  Sb21  1  0.75000000  0.62764500  0.37500000  1
  Sb  Sb22  1  0.62764500  0.25000000  0.62500000  1
  Sb  Sb23  1  0.75000000  0.87235500  0.87500000  1
  S  S24  1  0.00000000  0.00000000  0.50000000  1
  S  S25  1  0.50000000  0.00000000  0.25000000  1
  S  S26  1  0.50000000  0.50000000  0.00000000  1
  S  S27  1  0.00000000  0.50000000  0.75000000  1
