# generated using pymatgen
data_HgClO3
_symmetry_space_group_name_H-M   'P 1'
_cell_length_a   8.74189300
_cell_length_b   6.49992300
_cell_length_c   15.49749485
_cell_angle_alpha   90.00000000
_cell_angle_beta   117.50589895
_cell_angle_gamma   90.00000000
_symmetry_Int_Tables_number   1
_chemical_formula_structural   HgClO3
_chemical_formula_sum   'Hg8 Cl8 O24'
_cell_volume   781.05360978
_cell_formula_units_Z   8
loop_
 _symmetry_equiv_pos_site_id
 _symmetry_equiv_pos_as_xyz
  1  'x, y, z'
loop_
 _atom_site_type_symbol
 _atom_site_label
 _atom_site_symmetry_multiplicity
 _atom_site_fract_x
 _atom_site_fract_y
 _atom_site_fract_z
 _atom_site_occupancy
  Hg  Hg0  1  0.82397200  0.30403000  0.81062900  1
  Hg  Hg1  1  0.17602800  0.80403000  0.68937100  1
  Hg  Hg2  1  0.17602800  0.69597000  0.18937100  1
  Hg  Hg3  1  0.82397200  0.19597000  0.31062900  1
  Hg  Hg4  1  0.79566800  0.67553600  0.86122300  1
  Hg  Hg5  1  0.20433200  0.17553600  0.63877700  1
  Hg  Hg6  1  0.20433200  0.32446400  0.13877700  1
  Hg  Hg7  1  0.79566800  0.82446400  0.36122300  1
  Cl  Cl8  1  0.64957800  0.51766200  0.13726700  1
  Cl  Cl9  1  0.35042200  0.01766200  0.36273300  1
  Cl  Cl10  1  0.35042200  0.48233800  0.86273300  1
  Cl  Cl11  1  0.64957800  0.98233800  0.63726700  1
  Cl  Cl12  1  0.74394800  0.01655400  0.00305700  1
  Cl  Cl13  1  0.25605200  0.51655400  0.49694300  1
  Cl  Cl14  1  0.25605200  0.98344600  0.99694300  1
  Cl  Cl15  1  0.74394800  0.48344600  0.50305700  1
  O  O16  1  0.55029400  0.17554500  0.62708200  1
  O  O17  1  0.44970600  0.67554500  0.87291800  1
  O  O18  1  0.44970600  0.82445500  0.37291800  1
  O  O19  1  0.55029400  0.32445500  0.12708200  1
  O  O20  1  0.56777700  0.80825800  0.66206600  1
  O  O21  1  0.43222300  0.30825800  0.83793400  1
  O  O22  1  0.43222300  0.19174200  0.33793400  1
  O  O23  1  0.56777700  0.69174200  0.16206600  1
  O  O24  1  0.82954800  0.01828300  0.73032400  1
  O  O25  1  0.17045200  0.51828300  0.76967600  1
  O  O26  1  0.17045200  0.98171700  0.26967600  1
  O  O27  1  0.82954800  0.48171700  0.23032400  1
  O  O28  1  0.16697300  0.33603200  0.43563200  1
  O  O29  1  0.83302700  0.83603200  0.06436800  1
  O  O30  1  0.83302700  0.66396800  0.56436800  1
  O  O31  1  0.16697300  0.16396800  0.93563200  1
  O  O32  1  0.16272200  0.70940400  0.45441100  1
  O  O33  1  0.83727800  0.20940400  0.04558900  1
  O  O34  1  0.83727800  0.29059600  0.54558900  1
  O  O35  1  0.16272200  0.79059600  0.95441100  1
  O  O36  1  0.76329700  0.51049400  0.40510900  1
  O  O37  1  0.23670300  0.01049400  0.09489100  1
  O  O38  1  0.23670300  0.48950600  0.59489100  1
  O  O39  1  0.76329700  0.98950600  0.90510900  1
