# generated using pymatgen
data_Sr4Re2NiO12
_symmetry_space_group_name_H-M   'P 1'
_cell_length_a   5.59361014
_cell_length_b   5.59361014
_cell_length_c   27.14245614
_cell_angle_alpha   90.00000000
_cell_angle_beta   90.00000000
_cell_angle_gamma   120.00000000
_symmetry_Int_Tables_number   1
_chemical_formula_structural   Sr4Re2NiO12
_chemical_formula_sum   'Sr12 Re6 Ni3 O36'
_cell_volume   735.46864701
_cell_formula_units_Z   3
loop_
 _symmetry_equiv_pos_site_id
 _symmetry_equiv_pos_as_xyz
  1  'x, y, z'
loop_
 _atom_site_type_symbol
 _atom_site_label
 _atom_site_symmetry_multiplicity
 _atom_site_fract_x
 _atom_site_fract_y
 _atom_site_fract_z
 _atom_site_occupancy
  Sr  Sr0  1  0.00000000  0.00000000  0.86746933  1
  Sr  Sr1  1  0.33333333  0.66666667  0.79919733  1
  Sr  Sr2  1  0.33333333  0.66666667  0.95848283  1
  Sr  Sr3  1  0.00000000  0.00000000  0.70818383  1
  Sr  Sr4  1  0.66666667  0.33333333  0.20080267  1
  Sr  Sr5  1  1.00000000  0.00000000  0.13253067  1
  Sr  Sr6  1  0.00000000  0.00000000  0.29181617  1
  Sr  Sr7  1  0.66666667  0.33333333  0.04151717  1
  Sr  Sr8  1  0.33333333  0.66666667  0.53413600  1
  Sr  Sr9  1  0.66666667  0.33333333  0.46586400  1
  Sr  Sr10  1  0.66666667  0.33333333  0.62514950  1
  Sr  Sr11  1  0.33333333  0.66666667  0.37485050  1
  Re  Re12  1  0.66666667  0.33333333  0.91308875  1
  Re  Re13  1  0.66666667  0.33333333  0.75357792  1
  Re  Re14  1  0.33333333  0.66666667  0.24642208  1
  Re  Re15  1  0.33333333  0.66666667  0.08691125  1
  Re  Re16  1  0.00000000  0.00000000  0.57975542  1
  Re  Re17  1  0.00000000  0.00000000  0.42024458  1
  Ni  Ni18  1  0.00000000  0.00000000  0.00000000  1
  Ni  Ni19  1  0.66666667  0.33333333  0.33333333  1
  Ni  Ni20  1  0.33333333  0.66666667  0.66666667  1
  O  O21  1  0.50416725  0.00833450  0.87701400  1
  O  O22  1  0.50416725  0.49583275  0.87701400  1
  O  O23  1  0.99166550  0.49583275  0.87701400  1
  O  O24  1  0.34166783  0.17083392  0.78965267  1
  O  O25  1  0.82916608  0.65833217  0.78965267  1
  O  O26  1  0.82916608  0.17083392  0.78965267  1
  O  O27  1  0.50700008  0.01400017  0.71005667  1
  O  O28  1  0.82633325  0.17366675  0.95661000  1
  O  O29  1  0.82633325  0.65266650  0.95661000  1
  O  O30  1  0.34733350  0.17366675  0.95661000  1
  O  O31  1  0.98599983  0.49299992  0.71005667  1
  O  O32  1  0.50700008  0.49299992  0.71005667  1
  O  O33  1  0.17083392  0.34166783  0.21034733  1
  O  O34  1  0.17083392  0.82916608  0.21034733  1
  O  O35  1  0.65833217  0.82916608  0.21034733  1
  O  O36  1  0.00833450  0.50416725  0.12298600  1
  O  O37  1  0.49583275  0.99166550  0.12298600  1
  O  O38  1  0.49583275  0.50416725  0.12298600  1
  O  O39  1  0.17366675  0.34733350  0.04339000  1
  O  O40  1  0.49299992  0.50700008  0.28994333  1
  O  O41  1  0.49299992  0.98599983  0.28994333  1
  O  O42  1  0.01400017  0.50700008  0.28994333  1
  O  O43  1  0.65266650  0.82633325  0.04339000  1
  O  O44  1  0.17366675  0.82633325  0.04339000  1
  O  O45  1  0.83750058  0.67500117  0.54368067  1
  O  O46  1  0.83750058  0.16249942  0.54368067  1
  O  O47  1  0.32499883  0.16249942  0.54368067  1
  O  O48  1  0.67500117  0.83750058  0.45631933  1
  O  O49  1  0.16249942  0.32499883  0.45631933  1
  O  O50  1  0.16249942  0.83750058  0.45631933  1
  O  O51  1  0.84033342  0.68066683  0.37672333  1
  O  O52  1  0.15966658  0.84033342  0.62327667  1
  O  O53  1  0.15966658  0.31933317  0.62327667  1
  O  O54  1  0.68066683  0.84033342  0.62327667  1
  O  O55  1  0.31933317  0.15966658  0.37672333  1
  O  O56  1  0.84033342  0.15966658  0.37672333  1
