# generated using pymatgen
data_Ga2CoO4
_symmetry_space_group_name_H-M   'P 1'
_cell_length_a   5.85038600
_cell_length_b   5.99729255
_cell_length_c   8.46430030
_cell_angle_alpha   90.00000000
_cell_angle_beta   90.00000000
_cell_angle_gamma   90.00000000
_symmetry_Int_Tables_number   1
_chemical_formula_structural   Ga2CoO4
_chemical_formula_sum   'Ga8 Co4 O16'
_cell_volume   296.98247305
_cell_formula_units_Z   4
loop_
 _symmetry_equiv_pos_site_id
 _symmetry_equiv_pos_as_xyz
  1  'x, y, z'
loop_
 _atom_site_type_symbol
 _atom_site_label
 _atom_site_symmetry_multiplicity
 _atom_site_fract_x
 _atom_site_fract_y
 _atom_site_fract_z
 _atom_site_occupancy
  Ga  Ga0  1  0.50000000  0.25000000  0.63464650  1
  Ga  Ga1  1  0.00000000  0.25000000  0.86535350  1
  Ga  Ga2  1  0.50000000  0.00000000  0.00000000  1
  Ga  Ga3  1  0.50000000  0.50000000  0.00000000  1
  Ga  Ga4  1  0.00000000  0.75000000  0.13464650  1
  Ga  Ga5  1  0.50000000  0.75000000  0.36535350  1
  Ga  Ga6  1  0.00000000  0.50000000  0.50000000  1
  Ga  Ga7  1  0.00000000  0.00000000  0.50000000  1
  Co  Co8  1  0.25000000  0.25000000  0.25000000  1
  Co  Co9  1  0.75000000  0.25000000  0.25000000  1
  Co  Co10  1  0.75000000  0.75000000  0.75000000  1
  Co  Co11  1  0.25000000  0.75000000  0.75000000  1
  O  O12  1  0.26455700  0.25000000  0.99921500  1
  O  O13  1  0.73544300  0.25000000  0.99921500  1
  O  O14  1  0.76455700  0.25000000  0.50078500  1
  O  O15  1  0.23544300  0.25000000  0.50078500  1
  O  O16  1  0.50000000  0.00569600  0.23560500  1
  O  O17  1  0.50000000  0.49430400  0.23560500  1
  O  O18  1  0.00000000  0.00569600  0.26439500  1
  O  O19  1  0.00000000  0.49430400  0.26439500  1
  O  O20  1  0.76455700  0.75000000  0.49921500  1
  O  O21  1  0.23544300  0.75000000  0.49921500  1
  O  O22  1  0.26455700  0.75000000  0.00078500  1
  O  O23  1  0.73544300  0.75000000  0.00078500  1
  O  O24  1  0.00000000  0.50569600  0.73560500  1
  O  O25  1  0.00000000  0.99430400  0.73560500  1
  O  O26  1  0.50000000  0.50569600  0.76439500  1
  O  O27  1  0.50000000  0.99430400  0.76439500  1
