# generated using pymatgen
data_Tl(MoSe)3
_symmetry_space_group_name_H-M   'P 1'
_cell_length_a   9.23612822
_cell_length_b   9.23612822
_cell_length_c   4.52868600
_cell_angle_alpha   90.00000000
_cell_angle_beta   90.00000000
_cell_angle_gamma   120.00000000
_symmetry_Int_Tables_number   1
_chemical_formula_structural   Tl(MoSe)3
_chemical_formula_sum   'Tl2 Mo6 Se6'
_cell_volume   334.56672754
_cell_formula_units_Z   2
loop_
 _symmetry_equiv_pos_site_id
 _symmetry_equiv_pos_as_xyz
  1  'x, y, z'
loop_
 _atom_site_type_symbol
 _atom_site_label
 _atom_site_symmetry_multiplicity
 _atom_site_fract_x
 _atom_site_fract_y
 _atom_site_fract_z
 _atom_site_occupancy
  Tl  Tl0  1  0.66666667  0.33333333  0.25000000  1
  Tl  Tl1  1  0.33333333  0.66666667  0.75000000  1
  Mo  Mo2  1  0.81957900  0.85121000  0.75000000  1
  Mo  Mo3  1  0.85121000  0.03163100  0.25000000  1
  Mo  Mo4  1  0.18042100  0.14879000  0.25000000  1
  Mo  Mo5  1  0.14879000  0.96836900  0.75000000  1
  Mo  Mo6  1  0.03163100  0.18042100  0.75000000  1
  Mo  Mo7  1  0.96836900  0.81957900  0.25000000  1
  Se  Se8  1  0.64258200  0.70672400  0.25000000  1
  Se  Se9  1  0.93585800  0.64258200  0.75000000  1
  Se  Se10  1  0.06414200  0.35741800  0.25000000  1
  Se  Se11  1  0.35741800  0.29327600  0.75000000  1
  Se  Se12  1  0.70672400  0.06414200  0.75000000  1
  Se  Se13  1  0.29327600  0.93585800  0.25000000  1
