# generated using pymatgen
data_Hg3(SeBr)2
_symmetry_space_group_name_H-M   'P 1'
_cell_length_a   18.35261600
_cell_length_b   9.67094600
_cell_length_c   10.07436108
_cell_angle_alpha   90.00000000
_cell_angle_beta   90.60308533
_cell_angle_gamma   90.00000000
_symmetry_Int_Tables_number   1
_chemical_formula_structural   Hg3(SeBr)2
_chemical_formula_sum   'Hg24 Se16 Br16'
_cell_volume   1787.97066769
_cell_formula_units_Z   8
loop_
 _symmetry_equiv_pos_site_id
 _symmetry_equiv_pos_as_xyz
  1  'x, y, z'
loop_
 _atom_site_type_symbol
 _atom_site_label
 _atom_site_symmetry_multiplicity
 _atom_site_fract_x
 _atom_site_fract_y
 _atom_site_fract_z
 _atom_site_occupancy
  Hg  Hg0  1  0.62314400  0.72643000  0.20203800  1
  Hg  Hg1  1  0.87685600  0.22643000  0.79796200  1
  Hg  Hg2  1  0.87685600  0.77357000  0.79796200  1
  Hg  Hg3  1  0.62314400  0.27357000  0.20203800  1
  Hg  Hg4  1  0.75000000  0.75000000  0.50000000  1
  Hg  Hg5  1  0.75000000  0.25000000  0.50000000  1
  Hg  Hg6  1  0.00000000  0.23590900  0.50000000  1
  Hg  Hg7  1  0.00000000  0.76409100  0.50000000  1
  Hg  Hg8  1  0.52438400  0.00000000  0.77086400  1
  Hg  Hg9  1  0.97561600  0.50000000  0.22913600  1
  Hg  Hg10  1  0.73069200  0.50000000  0.78729300  1
  Hg  Hg11  1  0.76930800  0.00000000  0.21270700  1
  Hg  Hg12  1  0.12314400  0.22643000  0.20203800  1
  Hg  Hg13  1  0.37685600  0.72643000  0.79796200  1
  Hg  Hg14  1  0.37685600  0.27357000  0.79796200  1
  Hg  Hg15  1  0.12314400  0.77357000  0.20203800  1
  Hg  Hg16  1  0.25000000  0.25000000  0.50000000  1
  Hg  Hg17  1  0.25000000  0.75000000  0.50000000  1
  Hg  Hg18  1  0.50000000  0.73590900  0.50000000  1
  Hg  Hg19  1  0.50000000  0.26409100  0.50000000  1
  Hg  Hg20  1  0.02438400  0.50000000  0.77086400  1
  Hg  Hg21  1  0.47561600  0.00000000  0.22913600  1
  Hg  Hg22  1  0.23069200  0.00000000  0.78729300  1
  Hg  Hg23  1  0.26930800  0.50000000  0.21270700  1
  Se  Se24  1  0.51529000  0.73701100  0.75313200  1
  Se  Se25  1  0.51529000  0.26298900  0.75313200  1
  Se  Se26  1  0.98471000  0.76298900  0.24686800  1
  Se  Se27  1  0.76210650  0.26168350  0.24689100  1
  Se  Se28  1  0.73789350  0.76168350  0.75310900  1
  Se  Se29  1  0.73789350  0.23831650  0.75310900  1
  Se  Se30  1  0.76210650  0.73831650  0.24689100  1
  Se  Se31  1  0.98471000  0.23701100  0.24686800  1
  Se  Se32  1  0.01529000  0.23701100  0.75313200  1
  Se  Se33  1  0.01529000  0.76298900  0.75313200  1
  Se  Se34  1  0.48471000  0.26298900  0.24686800  1
  Se  Se35  1  0.26210650  0.76168350  0.24689100  1
  Se  Se36  1  0.23789350  0.26168350  0.75310900  1
  Se  Se37  1  0.23789350  0.73831650  0.75310900  1
  Se  Se38  1  0.26210650  0.23831650  0.24689100  1
  Se  Se39  1  0.48471000  0.73701100  0.24686800  1
  Br  Br40  1  0.87590300  0.50000000  0.51043700  1
  Br  Br41  1  0.87447000  0.00000000  0.52396500  1
  Br  Br42  1  0.62553000  0.50000000  0.47603500  1
  Br  Br43  1  0.87775600  0.00000000  0.99126700  1
  Br  Br44  1  0.62224400  0.50000000  0.00873300  1
  Br  Br45  1  0.62168100  0.00000000  0.02689000  1
  Br  Br46  1  0.87831900  0.50000000  0.97311000  1
  Br  Br47  1  0.62409700  0.00000000  0.48956300  1
  Br  Br48  1  0.37590300  0.00000000  0.51043700  1
  Br  Br49  1  0.37447000  0.50000000  0.52396500  1
  Br  Br50  1  0.12553000  0.00000000  0.47603500  1
  Br  Br51  1  0.37775600  0.50000000  0.99126700  1
  Br  Br52  1  0.12224400  0.00000000  0.00873300  1
  Br  Br53  1  0.12168100  0.50000000  0.02689000  1
  Br  Br54  1  0.37831900  0.00000000  0.97311000  1
  Br  Br55  1  0.12409700  0.50000000  0.48956300  1
