# generated using pymatgen
data_LiSbS2
_symmetry_space_group_name_H-M   'P 1'
_cell_length_a   5.43242600
_cell_length_b   5.43242600
_cell_length_c   11.05518200
_cell_angle_alpha   90.00000000
_cell_angle_beta   90.00000000
_cell_angle_gamma   90.00000000
_symmetry_Int_Tables_number   1
_chemical_formula_structural   LiSbS2
_chemical_formula_sum   'Li4 Sb4 S8'
_cell_volume   326.25226462
_cell_formula_units_Z   4
loop_
 _symmetry_equiv_pos_site_id
 _symmetry_equiv_pos_as_xyz
  1  'x, y, z'
loop_
 _atom_site_type_symbol
 _atom_site_label
 _atom_site_symmetry_multiplicity
 _atom_site_fract_x
 _atom_site_fract_y
 _atom_site_fract_z
 _atom_site_occupancy
  Li  Li0  1  0.50000000  0.00000000  0.25000000  1
  Li  Li1  1  0.50000000  0.50000000  0.00000000  1
  Li  Li2  1  0.00000000  0.50000000  0.75000000  1
  Li  Li3  1  0.00000000  0.00000000  0.50000000  1
  Sb  Sb4  1  0.00000000  0.00000000  0.00000000  1
  Sb  Sb5  1  0.00000000  0.50000000  0.25000000  1
  Sb  Sb6  1  0.50000000  0.50000000  0.50000000  1
  Sb  Sb7  1  0.50000000  0.00000000  0.75000000  1
  S  S8  1  0.00000000  0.50000000  0.49860100  1
  S  S9  1  0.50000000  0.50000000  0.25139900  1
  S  S10  1  0.00000000  0.50000000  0.00139900  1
  S  S11  1  0.00000000  0.00000000  0.24860100  1
  S  S12  1  0.50000000  0.00000000  0.99860100  1
  S  S13  1  0.00000000  0.00000000  0.75139900  1
  S  S14  1  0.50000000  0.00000000  0.50139900  1
  S  S15  1  0.50000000  0.50000000  0.74860100  1
