# generated using pymatgen
data_AsI5F6
_symmetry_space_group_name_H-M   'P 1'
_cell_length_a   10.79044600
_cell_length_b   18.61043800
_cell_length_c   8.90488893
_cell_angle_alpha   90.00000000
_cell_angle_beta   127.10525082
_cell_angle_gamma   90.00000000
_symmetry_Int_Tables_number   1
_chemical_formula_structural   AsI5F6
_chemical_formula_sum   'As4 I20 F24'
_cell_volume   1426.16832817
_cell_formula_units_Z   4
loop_
 _symmetry_equiv_pos_site_id
 _symmetry_equiv_pos_as_xyz
  1  'x, y, z'
loop_
 _atom_site_type_symbol
 _atom_site_label
 _atom_site_symmetry_multiplicity
 _atom_site_fract_x
 _atom_site_fract_y
 _atom_site_fract_z
 _atom_site_occupancy
  As  As0  1  0.50000000  0.09355400  0.25000000  1
  As  As1  1  0.00000000  0.40644600  0.75000000  1
  As  As2  1  0.00000000  0.59355400  0.25000000  1
  As  As3  1  0.50000000  0.90644600  0.75000000  1
  I  I4  1  0.77887500  0.10859300  0.93970900  1
  I  I5  1  0.00000000  0.00000000  0.50000000  1
  I  I6  1  0.72112500  0.39140700  0.06029100  1
  I  I7  1  0.27887500  0.39140700  0.43970900  1
  I  I8  1  0.00000000  0.00000000  0.00000000  1
  I  I9  1  0.22112500  0.10859300  0.56029100  1
  I  I10  1  0.57723700  0.27463400  0.06807900  1
  I  I11  1  0.42276300  0.27463400  0.43192100  1
  I  I12  1  0.92276300  0.22536600  0.93192100  1
  I  I13  1  0.07723700  0.22536600  0.56807900  1
  I  I14  1  0.27887500  0.60859300  0.93970900  1
  I  I15  1  0.50000000  0.50000000  0.50000000  1
  I  I16  1  0.22112500  0.89140700  0.06029100  1
  I  I17  1  0.77887500  0.89140700  0.43970900  1
  I  I18  1  0.50000000  0.50000000  0.00000000  1
  I  I19  1  0.72112500  0.60859300  0.56029100  1
  I  I20  1  0.07723700  0.77463400  0.06807900  1
  I  I21  1  0.92276300  0.77463400  0.43192100  1
  I  I22  1  0.42276300  0.72536600  0.93192100  1
  I  I23  1  0.57723700  0.72536600  0.56807900  1
  F  F24  1  0.11267600  0.33780300  0.92182600  1
  F  F25  1  0.88732400  0.33780300  0.57817400  1
  F  F26  1  0.38732400  0.16219700  0.07817400  1
  F  F27  1  0.61267600  0.16219700  0.42182600  1
  F  F28  1  0.11696000  0.47382300  0.92125900  1
  F  F29  1  0.88304000  0.47382300  0.57874100  1
  F  F30  1  0.37370450  0.09457850  0.31419600  1
  F  F31  1  0.61696000  0.02617700  0.42125900  1
  F  F32  1  0.87370450  0.40542150  0.81419600  1
  F  F33  1  0.12629550  0.40542150  0.68580400  1
  F  F34  1  0.62629550  0.09457850  0.18580400  1
  F  F35  1  0.38304000  0.02617700  0.07874100  1
  F  F36  1  0.61267600  0.83780300  0.92182600  1
  F  F37  1  0.38732400  0.83780300  0.57817400  1
  F  F38  1  0.88732400  0.66219700  0.07817400  1
  F  F39  1  0.11267600  0.66219700  0.42182600  1
  F  F40  1  0.61696000  0.97382300  0.92125900  1
  F  F41  1  0.38304000  0.97382300  0.57874100  1
  F  F42  1  0.87370450  0.59457850  0.31419600  1
  F  F43  1  0.11696000  0.52617700  0.42125900  1
  F  F44  1  0.37370450  0.90542150  0.81419600  1
  F  F45  1  0.62629550  0.90542150  0.68580400  1
  F  F46  1  0.12629550  0.59457850  0.18580400  1
  F  F47  1  0.88304000  0.52617700  0.07874100  1
