# generated using pymatgen
data_Mg2PN3
_symmetry_space_group_name_H-M   'P 1'
_cell_length_a   5.69347600
_cell_length_b   9.78372400
_cell_length_c   4.76123500
_cell_angle_alpha   90.00000000
_cell_angle_beta   90.00000000
_cell_angle_gamma   90.00000000
_symmetry_Int_Tables_number   1
_chemical_formula_structural   Mg2PN3
_chemical_formula_sum   'Mg8 P4 N12'
_cell_volume   265.21696715
_cell_formula_units_Z   4
loop_
 _symmetry_equiv_pos_site_id
 _symmetry_equiv_pos_as_xyz
  1  'x, y, z'
loop_
 _atom_site_type_symbol
 _atom_site_label
 _atom_site_symmetry_multiplicity
 _atom_site_fract_x
 _atom_site_fract_y
 _atom_site_fract_z
 _atom_site_occupancy
  Mg  Mg0  1  0.66605600  0.83685800  0.47226800  1
  Mg  Mg1  1  0.66605600  0.16314200  0.47226800  1
  Mg  Mg2  1  0.33394400  0.16314200  0.97226800  1
  Mg  Mg3  1  0.33394400  0.83685800  0.97226800  1
  Mg  Mg4  1  0.16605600  0.33685800  0.47226800  1
  Mg  Mg5  1  0.16605600  0.66314200  0.47226800  1
  Mg  Mg6  1  0.83394400  0.66314200  0.97226800  1
  Mg  Mg7  1  0.83394400  0.33685800  0.97226800  1
  P  P8  1  0.16166300  0.00000000  0.49131500  1
  P  P9  1  0.83833700  0.00000000  0.99131500  1
  P  P10  1  0.66166300  0.50000000  0.49131500  1
  P  P11  1  0.33833700  0.50000000  0.99131500  1
  N  N12  1  0.89048700  0.00000000  0.34457000  1
  N  N13  1  0.10951300  0.00000000  0.84457000  1
  N  N14  1  0.30290850  0.14045750  0.41973900  1
  N  N15  1  0.69709150  0.85954250  0.91973900  1
  N  N16  1  0.30290850  0.85954250  0.41973900  1
  N  N17  1  0.69709150  0.14045750  0.91973900  1
  N  N18  1  0.39048700  0.50000000  0.34457000  1
  N  N19  1  0.60951300  0.50000000  0.84457000  1
  N  N20  1  0.80290850  0.64045750  0.41973900  1
  N  N21  1  0.19709150  0.35954250  0.91973900  1
  N  N22  1  0.80290850  0.35954250  0.41973900  1
  N  N23  1  0.19709150  0.64045750  0.91973900  1
