# generated using pymatgen
data_TlClO4
_symmetry_space_group_name_H-M   'P 1'
_cell_length_a   7.78564800
_cell_length_b   7.78564800
_cell_length_c   7.78564800
_cell_angle_alpha   90.00000000
_cell_angle_beta   90.00000000
_cell_angle_gamma   90.00000000
_symmetry_Int_Tables_number   1
_chemical_formula_structural   TlClO4
_chemical_formula_sum   'Tl4 Cl4 O16'
_cell_volume   471.93728993
_cell_formula_units_Z   4
loop_
 _symmetry_equiv_pos_site_id
 _symmetry_equiv_pos_as_xyz
  1  'x, y, z'
loop_
 _atom_site_type_symbol
 _atom_site_label
 _atom_site_symmetry_multiplicity
 _atom_site_fract_x
 _atom_site_fract_y
 _atom_site_fract_z
 _atom_site_occupancy
  Tl  Tl0  1  0.50000000  0.00000000  0.00000000  1
  Tl  Tl1  1  0.50000000  0.50000000  0.50000000  1
  Tl  Tl2  1  0.00000000  0.00000000  0.50000000  1
  Tl  Tl3  1  0.00000000  0.50000000  0.00000000  1
  Cl  Cl4  1  0.00000000  0.00000000  0.00000000  1
  Cl  Cl5  1  0.00000000  0.50000000  0.50000000  1
  Cl  Cl6  1  0.50000000  0.00000000  0.50000000  1
  Cl  Cl7  1  0.50000000  0.50000000  0.00000000  1
  O  O8  1  0.39120300  0.39120300  0.89120300  1
  O  O9  1  0.39120300  0.10879700  0.60879700  1
  O  O10  1  0.10879700  0.39120300  0.60879700  1
  O  O11  1  0.10879700  0.10879700  0.89120300  1
  O  O12  1  0.39120300  0.89120300  0.39120300  1
  O  O13  1  0.39120300  0.60879700  0.10879700  1
  O  O14  1  0.10879700  0.89120300  0.10879700  1
  O  O15  1  0.10879700  0.60879700  0.39120300  1
  O  O16  1  0.89120300  0.39120300  0.39120300  1
  O  O17  1  0.89120300  0.10879700  0.10879700  1
  O  O18  1  0.60879700  0.39120300  0.10879700  1
  O  O19  1  0.60879700  0.10879700  0.39120300  1
  O  O20  1  0.89120300  0.89120300  0.89120300  1
  O  O21  1  0.89120300  0.60879700  0.60879700  1
  O  O22  1  0.60879700  0.89120300  0.60879700  1
  O  O23  1  0.60879700  0.60879700  0.89120300  1
