# generated using pymatgen
data_Ho3TaO7
_symmetry_space_group_name_H-M   'P 1'
_cell_length_a   7.56346000
_cell_length_b   10.51606800
_cell_length_c   7.44058800
_cell_angle_alpha   90.00000000
_cell_angle_beta   90.00000000
_cell_angle_gamma   90.00000000
_symmetry_Int_Tables_number   1
_chemical_formula_structural   Ho3TaO7
_chemical_formula_sum   'Ho12 Ta4 O28'
_cell_volume   591.80844425
_cell_formula_units_Z   4
loop_
 _symmetry_equiv_pos_site_id
 _symmetry_equiv_pos_as_xyz
  1  'x, y, z'
loop_
 _atom_site_type_symbol
 _atom_site_label
 _atom_site_symmetry_multiplicity
 _atom_site_fract_x
 _atom_site_fract_y
 _atom_site_fract_z
 _atom_site_occupancy
  Ho  Ho0  1  0.53864300  0.00000000  0.50000000  1
  Ho  Ho1  1  0.46135700  0.00000000  0.00000000  1
  Ho  Ho2  1  0.26772750  0.26746750  0.24087900  1
  Ho  Ho3  1  0.73227250  0.73253250  0.74087900  1
  Ho  Ho4  1  0.26772750  0.73253250  0.75912100  1
  Ho  Ho5  1  0.73227250  0.26746750  0.25912100  1
  Ho  Ho6  1  0.03864300  0.50000000  0.50000000  1
  Ho  Ho7  1  0.96135700  0.50000000  0.00000000  1
  Ho  Ho8  1  0.76772750  0.76746750  0.24087900  1
  Ho  Ho9  1  0.23227250  0.23253250  0.74087900  1
  Ho  Ho10  1  0.76772750  0.23253250  0.75912100  1
  Ho  Ho11  1  0.23227250  0.76746750  0.25912100  1
  Ta  Ta12  1  0.00244300  0.00000000  0.50000000  1
  Ta  Ta13  1  0.99755700  0.00000000  0.00000000  1
  Ta  Ta14  1  0.50244300  0.50000000  0.50000000  1
  Ta  Ta15  1  0.49755700  0.50000000  0.00000000  1
  O  O16  1  0.50000000  0.56964100  0.75000000  1
  O  O17  1  0.50000000  0.43035900  0.25000000  1
  O  O18  1  0.50000000  0.14014700  0.25000000  1
  O  O19  1  0.50000000  0.85985300  0.75000000  1
  O  O20  1  0.50000000  0.12870900  0.75000000  1
  O  O21  1  0.50000000  0.87129100  0.25000000  1
  O  O22  1  0.20621700  0.87699600  0.97567100  1
  O  O23  1  0.79378300  0.12300400  0.47567100  1
  O  O24  1  0.17836050  0.87053450  0.54561200  1
  O  O25  1  0.82163950  0.12946550  0.04561200  1
  O  O26  1  0.17836050  0.12946550  0.45438800  1
  O  O27  1  0.82163950  0.87053450  0.95438800  1
  O  O28  1  0.79378300  0.87699600  0.52432900  1
  O  O29  1  0.20621700  0.12300400  0.02432900  1
  O  O30  1  0.00000000  0.06964100  0.75000000  1
  O  O31  1  0.00000000  0.93035900  0.25000000  1
  O  O32  1  0.00000000  0.64014700  0.25000000  1
  O  O33  1  0.00000000  0.35985300  0.75000000  1
  O  O34  1  0.00000000  0.62870900  0.75000000  1
  O  O35  1  0.00000000  0.37129100  0.25000000  1
  O  O36  1  0.70621700  0.37699600  0.97567100  1
  O  O37  1  0.29378300  0.62300400  0.47567100  1
  O  O38  1  0.67836050  0.37053450  0.54561200  1
  O  O39  1  0.32163950  0.62946550  0.04561200  1
  O  O40  1  0.67836050  0.62946550  0.45438800  1
  O  O41  1  0.32163950  0.37053450  0.95438800  1
  O  O42  1  0.29378300  0.37699600  0.52432900  1
  O  O43  1  0.70621700  0.62300400  0.02432900  1
