# generated using pymatgen
data_Na2S2O5
_symmetry_space_group_name_H-M   'P 1'
_cell_length_a   9.31636900
_cell_length_b   5.52025000
_cell_length_c   23.22801898
_cell_angle_alpha   90.00000000
_cell_angle_beta   107.93106343
_cell_angle_gamma   90.00000000
_symmetry_Int_Tables_number   1
_chemical_formula_structural   Na2S2O5
_chemical_formula_sum   'Na16 S16 O40'
_cell_volume   1136.56259425
_cell_formula_units_Z   8
loop_
 _symmetry_equiv_pos_site_id
 _symmetry_equiv_pos_as_xyz
  1  'x, y, z'
loop_
 _atom_site_type_symbol
 _atom_site_label
 _atom_site_symmetry_multiplicity
 _atom_site_fract_x
 _atom_site_fract_y
 _atom_site_fract_z
 _atom_site_occupancy
  Na  Na0  1  0.34619100  0.76886500  0.76639600  1
  Na  Na1  1  0.65380900  0.26886500  0.73360400  1
  Na  Na2  1  0.65380900  0.23113500  0.23360400  1
  Na  Na3  1  0.34619100  0.73113500  0.26639600  1
  Na  Na4  1  0.91742100  0.73346100  0.18399100  1
  Na  Na5  1  0.08257900  0.23346100  0.31600900  1
  Na  Na6  1  0.08257900  0.26653900  0.81600900  1
  Na  Na7  1  0.91742100  0.76653900  0.68399100  1
  Na  Na8  1  0.42079800  0.72546500  0.93059400  1
  Na  Na9  1  0.57920200  0.22546500  0.56940600  1
  Na  Na10  1  0.57920200  0.27453500  0.06940600  1
  Na  Na11  1  0.42079800  0.77453500  0.43059400  1
  Na  Na12  1  0.84444700  0.68247800  0.01518200  1
  Na  Na13  1  0.15555300  0.18247800  0.48481800  1
  Na  Na14  1  0.15555300  0.31752200  0.98481800  1
  Na  Na15  1  0.84444700  0.81752200  0.51518200  1
  S  S16  1  0.17607800  0.23884900  0.18953800  1
  S  S17  1  0.82392200  0.73884900  0.31046200  1
  S  S18  1  0.82392200  0.76115100  0.81046200  1
  S  S19  1  0.17607800  0.26115100  0.68953800  1
  S  S20  1  0.47633500  0.23312300  0.85054100  1
  S  S21  1  0.52366500  0.73312300  0.64945900  1
  S  S22  1  0.52366500  0.76687700  0.14945900  1
  S  S23  1  0.47633500  0.26687700  0.35054100  1
  S  S24  1  0.67996800  0.20091500  0.93888600  1
  S  S25  1  0.32003200  0.70091500  0.56111400  1
  S  S26  1  0.32003200  0.79908500  0.06111400  1
  S  S27  1  0.67996800  0.29908500  0.43888600  1
  S  S28  1  0.96824900  0.22296400  0.10280900  1
  S  S29  1  0.03175100  0.72296400  0.39719100  1
  S  S30  1  0.03175100  0.77703600  0.89719100  1
  S  S31  1  0.96824900  0.27703600  0.60280900  1
  O  O32  1  0.63505000  0.10406600  0.47579400  1
  O  O33  1  0.36495000  0.60406600  0.02420600  1
  O  O34  1  0.36495000  0.89593400  0.52420600  1
  O  O35  1  0.63505000  0.39593400  0.97579400  1
  O  O36  1  0.44008500  0.00424700  0.34513600  1
  O  O37  1  0.55991500  0.50424700  0.15486400  1
  O  O38  1  0.55991500  0.99575300  0.65486400  1
  O  O39  1  0.44008500  0.49575300  0.84513600  1
  O  O40  1  0.51997600  0.36185600  0.29843500  1
  O  O41  1  0.48002400  0.86185600  0.20156500  1
  O  O42  1  0.48002400  0.63814400  0.70156500  1
  O  O43  1  0.51997600  0.13814400  0.79843500  1
  O  O44  1  0.13561600  0.46303500  0.72568100  1
  O  O45  1  0.86438400  0.96303500  0.77431900  1
  O  O46  1  0.86438400  0.53696500  0.27431900  1
  O  O47  1  0.13561600  0.03696500  0.22568100  1
  O  O48  1  0.84920900  0.12430100  0.61550100  1
  O  O49  1  0.15079100  0.62430100  0.88449900  1
  O  O50  1  0.15079100  0.87569900  0.38449900  1
  O  O51  1  0.84920900  0.37569900  0.11550100  1
  O  O52  1  0.01184800  0.17581400  0.55132100  1
  O  O53  1  0.98815200  0.67581400  0.94867900  1
  O  O54  1  0.98815200  0.82418600  0.44867900  1
  O  O55  1  0.01184800  0.32418600  0.05132100  1
  O  O56  1  0.92583100  0.53676300  0.59445700  1
  O  O57  1  0.07416900  0.03676300  0.90554300  1
  O  O58  1  0.07416900  0.46323700  0.40554300  1
  O  O59  1  0.92583100  0.96323700  0.09445700  1
  O  O60  1  0.14546000  0.01934200  0.71351400  1
  O  O61  1  0.85454000  0.51934200  0.78648600  1
  O  O62  1  0.85454000  0.98065800  0.28648600  1
  O  O63  1  0.14546000  0.48065800  0.21351400  1
  O  O64  1  0.64916300  0.54599300  0.45966900  1
  O  O65  1  0.35083700  0.04599300  0.04033100  1
  O  O66  1  0.35083700  0.45400700  0.54033100  1
  O  O67  1  0.64916300  0.95400700  0.95966900  1
  O  O68  1  0.35213300  0.41504900  0.36046400  1
  O  O69  1  0.64786700  0.91504900  0.13953600  1
  O  O70  1  0.64786700  0.58495100  0.63953600  1
  O  O71  1  0.35213300  0.08495100  0.86046400  1
