# generated using pymatgen
data_LiMo2(PO4)3
_symmetry_space_group_name_H-M   'P 1'
_cell_length_a   8.19442400
_cell_length_b   5.37545800
_cell_length_c   20.31813965
_cell_angle_alpha   90.00000000
_cell_angle_beta   92.76471363
_cell_angle_gamma   90.00000000
_symmetry_Int_Tables_number   1
_chemical_formula_structural   LiMo2(PO4)3
_chemical_formula_sum   'Li4 Mo8 P12 O48'
_cell_volume   893.94756675
_cell_formula_units_Z   4
loop_
 _symmetry_equiv_pos_site_id
 _symmetry_equiv_pos_as_xyz
  1  'x, y, z'
loop_
 _atom_site_type_symbol
 _atom_site_label
 _atom_site_symmetry_multiplicity
 _atom_site_fract_x
 _atom_site_fract_y
 _atom_site_fract_z
 _atom_site_occupancy
  Li  Li0  1  0.99991400  0.00000000  0.33787900  1
  Li  Li1  1  0.00008600  0.00000000  0.66212100  1
  Li  Li2  1  0.49991400  0.50000000  0.33787900  1
  Li  Li3  1  0.50008600  0.50000000  0.66212100  1
  Mo  Mo4  1  0.00000000  0.00000000  0.00000000  1
  Mo  Mo5  1  0.98800800  0.00000000  0.83159200  1
  Mo  Mo6  1  0.00000000  0.00000000  0.50000000  1
  Mo  Mo7  1  0.01199200  0.00000000  0.16840800  1
  Mo  Mo8  1  0.50000000  0.50000000  0.00000000  1
  Mo  Mo9  1  0.48800800  0.50000000  0.83159200  1
  Mo  Mo10  1  0.50000000  0.50000000  0.50000000  1
  Mo  Mo11  1  0.51199200  0.50000000  0.16840800  1
  P  P12  1  0.34023500  0.00000000  0.42134900  1
  P  P13  1  0.32941200  0.00000000  0.75417700  1
  P  P14  1  0.64528300  0.00000000  0.91735200  1
  P  P15  1  0.65976500  0.00000000  0.57865100  1
  P  P16  1  0.67058800  0.00000000  0.24582300  1
  P  P17  1  0.35471700  0.00000000  0.08264800  1
  P  P18  1  0.84023500  0.50000000  0.42134900  1
  P  P19  1  0.82941200  0.50000000  0.75417700  1
  P  P20  1  0.14528300  0.50000000  0.91735200  1
  P  P21  1  0.15976500  0.50000000  0.57865100  1
  P  P22  1  0.17058800  0.50000000  0.24582300  1
  P  P23  1  0.85471700  0.50000000  0.08264800  1
  O  O24  1  0.54560350  0.76397050  0.56992000  1
  O  O25  1  0.55660450  0.76673650  0.23687300  1
  O  O26  1  0.77722000  0.00000000  0.18183100  1
  O  O27  1  0.55660450  0.23326350  0.23687300  1
  O  O28  1  0.76967300  0.00000000  0.30883700  1
  O  O29  1  0.46736750  0.76029250  0.08416300  1
  O  O30  1  0.45439650  0.23602950  0.43008000  1
  O  O31  1  0.23236800  0.00000000  0.48421000  1
  O  O32  1  0.23896900  0.00000000  0.35881700  1
  O  O33  1  0.25441800  0.00000000  0.14447500  1
  O  O34  1  0.44339550  0.76673650  0.76312700  1
  O  O35  1  0.74506600  0.00000000  0.98222800  1
  O  O36  1  0.23032700  0.00000000  0.69116300  1
  O  O37  1  0.76103100  0.00000000  0.64118300  1
  O  O38  1  0.74558200  0.00000000  0.85552500  1
  O  O39  1  0.25493400  0.00000000  0.01777200  1
  O  O40  1  0.53263250  0.23970750  0.91583700  1
  O  O41  1  0.22278000  0.00000000  0.81816900  1
  O  O42  1  0.44339550  0.23326350  0.76312700  1
  O  O43  1  0.46736750  0.23970750  0.08416300  1
  O  O44  1  0.53263250  0.76029250  0.91583700  1
  O  O45  1  0.76763200  0.00000000  0.51579000  1
  O  O46  1  0.45439650  0.76397050  0.43008000  1
  O  O47  1  0.54560350  0.23602950  0.56992000  1
  O  O48  1  0.04560350  0.26397050  0.56992000  1
  O  O49  1  0.05660450  0.26673650  0.23687300  1
  O  O50  1  0.27722000  0.50000000  0.18183100  1
  O  O51  1  0.05660450  0.73326350  0.23687300  1
  O  O52  1  0.26967300  0.50000000  0.30883700  1
  O  O53  1  0.96736750  0.26029250  0.08416300  1
  O  O54  1  0.95439650  0.73602950  0.43008000  1
  O  O55  1  0.73236800  0.50000000  0.48421000  1
  O  O56  1  0.73896900  0.50000000  0.35881700  1
  O  O57  1  0.75441800  0.50000000  0.14447500  1
  O  O58  1  0.94339550  0.26673650  0.76312700  1
  O  O59  1  0.24506600  0.50000000  0.98222800  1
  O  O60  1  0.73032700  0.50000000  0.69116300  1
  O  O61  1  0.26103100  0.50000000  0.64118300  1
  O  O62  1  0.24558200  0.50000000  0.85552500  1
  O  O63  1  0.75493400  0.50000000  0.01777200  1
  O  O64  1  0.03263250  0.73970750  0.91583700  1
  O  O65  1  0.72278000  0.50000000  0.81816900  1
  O  O66  1  0.94339550  0.73326350  0.76312700  1
  O  O67  1  0.96736750  0.73970750  0.08416300  1
  O  O68  1  0.03263250  0.26029250  0.91583700  1
  O  O69  1  0.26763200  0.50000000  0.51579000  1
  O  O70  1  0.95439650  0.26397050  0.43008000  1
  O  O71  1  0.04560350  0.73602950  0.56992000  1
