# generated using pymatgen
data_Sr(NdS2)2
_symmetry_space_group_name_H-M   'P 1'
_cell_length_a   8.70535200
_cell_length_b   8.70535200
_cell_length_c   8.69445800
_cell_angle_alpha   90.00000000
_cell_angle_beta   90.00000000
_cell_angle_gamma   90.00000000
_symmetry_Int_Tables_number   1
_chemical_formula_structural   Sr(NdS2)2
_chemical_formula_sum   'Sr4 Nd8 S16'
_cell_volume   658.89344473
_cell_formula_units_Z   4
loop_
 _symmetry_equiv_pos_site_id
 _symmetry_equiv_pos_as_xyz
  1  'x, y, z'
loop_
 _atom_site_type_symbol
 _atom_site_label
 _atom_site_symmetry_multiplicity
 _atom_site_fract_x
 _atom_site_fract_y
 _atom_site_fract_z
 _atom_site_occupancy
  Sr  Sr0  1  0.50000000  0.50000000  0.50000000  1
  Sr  Sr1  1  0.50000000  0.00000000  0.25000000  1
  Sr  Sr2  1  0.00000000  0.00000000  0.00000000  1
  Sr  Sr3  1  0.00000000  0.50000000  0.75000000  1
  Nd  Nd4  1  0.37288900  0.25000000  0.87500000  1
  Nd  Nd5  1  0.75000000  0.37288900  0.12500000  1
  Nd  Nd6  1  0.12711100  0.25000000  0.37500000  1
  Nd  Nd7  1  0.75000000  0.12711100  0.62500000  1
  Nd  Nd8  1  0.87288900  0.75000000  0.37500000  1
  Nd  Nd9  1  0.25000000  0.87288900  0.62500000  1
  Nd  Nd10  1  0.62711100  0.75000000  0.87500000  1
  Nd  Nd11  1  0.25000000  0.62711100  0.12500000  1
  S  S12  1  0.57572100  0.67299900  0.19150300  1
  S  S13  1  0.07572100  0.32700100  0.05849700  1
  S  S14  1  0.67299900  0.07572100  0.94150300  1
  S  S15  1  0.67299900  0.42427900  0.80849700  1
  S  S16  1  0.92427900  0.82700100  0.69150300  1
  S  S17  1  0.82700100  0.07572100  0.30849700  1
  S  S18  1  0.42427900  0.17299900  0.55849700  1
  S  S19  1  0.82700100  0.42427900  0.44150300  1
  S  S20  1  0.07572100  0.17299900  0.69150300  1
  S  S21  1  0.57572100  0.82700100  0.55849700  1
  S  S22  1  0.17299900  0.57572100  0.44150300  1
  S  S23  1  0.17299900  0.92427900  0.30849700  1
  S  S24  1  0.42427900  0.32700100  0.19150300  1
  S  S25  1  0.32700100  0.57572100  0.80849700  1
  S  S26  1  0.92427900  0.67299900  0.05849700  1
  S  S27  1  0.32700100  0.92427900  0.94150300  1
