# generated using pymatgen
data_Ca5(Ga3O7)2
_symmetry_space_group_name_H-M   'P 1'
_cell_length_a   11.40527600
_cell_length_b   11.62977800
_cell_length_c   10.59712300
_cell_angle_alpha   90.00000000
_cell_angle_beta   90.00000000
_cell_angle_gamma   90.00000000
_symmetry_Int_Tables_number   1
_chemical_formula_structural   Ca5(Ga3O7)2
_chemical_formula_sum   'Ca20 Ga24 O56'
_cell_volume   1405.61116817
_cell_formula_units_Z   4
loop_
 _symmetry_equiv_pos_site_id
 _symmetry_equiv_pos_as_xyz
  1  'x, y, z'
loop_
 _atom_site_type_symbol
 _atom_site_label
 _atom_site_symmetry_multiplicity
 _atom_site_fract_x
 _atom_site_fract_y
 _atom_site_fract_z
 _atom_site_occupancy
  Ca  Ca0  1  0.59967300  0.34146500  0.24968200  1
  Ca  Ca1  1  0.40032700  0.65853500  0.74968200  1
  Ca  Ca2  1  0.40032700  0.34146500  0.74968200  1
  Ca  Ca3  1  0.59967300  0.65853500  0.24968200  1
  Ca  Ca4  1  0.81504450  0.14299150  0.20204300  1
  Ca  Ca5  1  0.18495550  0.85700850  0.70204300  1
  Ca  Ca6  1  0.18495550  0.14299150  0.70204300  1
  Ca  Ca7  1  0.81504450  0.85700850  0.20204300  1
  Ca  Ca8  1  0.52701000  0.00000000  0.24748800  1
  Ca  Ca9  1  0.47299000  0.00000000  0.74748800  1
  Ca  Ca10  1  0.09967300  0.84146500  0.24968200  1
  Ca  Ca11  1  0.90032700  0.15853500  0.74968200  1
  Ca  Ca12  1  0.90032700  0.84146500  0.74968200  1
  Ca  Ca13  1  0.09967300  0.15853500  0.24968200  1
  Ca  Ca14  1  0.31504450  0.64299150  0.20204300  1
  Ca  Ca15  1  0.68495550  0.35700850  0.70204300  1
  Ca  Ca16  1  0.68495550  0.64299150  0.70204300  1
  Ca  Ca17  1  0.31504450  0.35700850  0.20204300  1
  Ca  Ca18  1  0.02701000  0.50000000  0.24748800  1
  Ca  Ca19  1  0.97299000  0.50000000  0.74748800  1
  Ga  Ga20  1  0.35450900  0.85667000  0.00966200  1
  Ga  Ga21  1  0.64549100  0.14333000  0.50966200  1
  Ga  Ga22  1  0.35450900  0.14333000  0.00966200  1
  Ga  Ga23  1  0.64549100  0.85667000  0.50966200  1
  Ga  Ga24  1  0.29992200  0.00000000  0.44375600  1
  Ga  Ga25  1  0.70007800  0.00000000  0.94375600  1
  Ga  Ga26  1  0.00043700  0.00000000  0.46692100  1
  Ga  Ga27  1  0.99956300  0.00000000  0.96692100  1
  Ga  Ga28  1  0.40345700  0.75571700  0.47855300  1
  Ga  Ga29  1  0.59654300  0.24428300  0.97855300  1
  Ga  Ga30  1  0.59654300  0.75571700  0.97855300  1
  Ga  Ga31  1  0.40345700  0.24428300  0.47855300  1
  Ga  Ga32  1  0.85450900  0.35667000  0.00966200  1
  Ga  Ga33  1  0.14549100  0.64333000  0.50966200  1
  Ga  Ga34  1  0.85450900  0.64333000  0.00966200  1
  Ga  Ga35  1  0.14549100  0.35667000  0.50966200  1
  Ga  Ga36  1  0.79992200  0.50000000  0.44375600  1
  Ga  Ga37  1  0.20007800  0.50000000  0.94375600  1
  Ga  Ga38  1  0.50043700  0.50000000  0.46692100  1
  Ga  Ga39  1  0.49956300  0.50000000  0.96692100  1
  Ga  Ga40  1  0.90345700  0.25571700  0.47855300  1
  Ga  Ga41  1  0.09654300  0.74428300  0.97855300  1
  Ga  Ga42  1  0.09654300  0.25571700  0.97855300  1
  Ga  Ga43  1  0.90345700  0.74428300  0.47855300  1
  O  O44  1  0.70185600  0.00000000  0.11723400  1
  O  O45  1  0.29814400  0.00000000  0.61723400  1
  O  O46  1  0.37611700  0.12470500  0.36932900  1
  O  O47  1  0.62388300  0.87529500  0.86932900  1
  O  O48  1  0.62388300  0.12470500  0.86932900  1
  O  O49  1  0.37611700  0.87529500  0.36932900  1
  O  O50  1  0.98902400  0.00000000  0.13821800  1
  O  O51  1  0.01097600  0.00000000  0.63821800  1
  O  O52  1  0.64929650  0.83928150  0.33723200  1
  O  O53  1  0.35070350  0.16071850  0.83723200  1
  O  O54  1  0.35070350  0.83928150  0.83723200  1
  O  O55  1  0.64929650  0.16071850  0.33723200  1
  O  O56  1  0.85323300  0.00000000  0.87854700  1
  O  O57  1  0.14676700  0.00000000  0.37854700  1
  O  O58  1  0.43427350  0.37357950  0.37951900  1
  O  O59  1  0.56572650  0.62642050  0.87951900  1
  O  O60  1  0.56572650  0.37357950  0.87951900  1
  O  O61  1  0.43427350  0.62642050  0.37951900  1
  O  O62  1  0.52859200  0.76517400  0.59319300  1
  O  O63  1  0.47140800  0.23482600  0.09319300  1
  O  O64  1  0.47140800  0.76517400  0.09319300  1
  O  O65  1  0.52859200  0.23482600  0.59319300  1
  O  O66  1  0.77844850  0.21331250  0.58524100  1
  O  O67  1  0.22155150  0.78668750  0.08524100  1
  O  O68  1  0.22155150  0.21331250  0.08524100  1
  O  O69  1  0.77844850  0.78668750  0.58524100  1
  O  O70  1  0.61261200  0.00000000  0.57553000  1
  O  O71  1  0.38738800  0.00000000  0.07553000  1
  O  O72  1  0.20185600  0.50000000  0.11723400  1
  O  O73  1  0.79814400  0.50000000  0.61723400  1
  O  O74  1  0.87611700  0.62470500  0.36932900  1
  O  O75  1  0.12388300  0.37529500  0.86932900  1
  O  O76  1  0.12388300  0.62470500  0.86932900  1
  O  O77  1  0.87611700  0.37529500  0.36932900  1
  O  O78  1  0.48902400  0.50000000  0.13821800  1
  O  O79  1  0.51097600  0.50000000  0.63821800  1
  O  O80  1  0.14929650  0.33928150  0.33723200  1
  O  O81  1  0.85070350  0.66071850  0.83723200  1
  O  O82  1  0.85070350  0.33928150  0.83723200  1
  O  O83  1  0.14929650  0.66071850  0.33723200  1
  O  O84  1  0.35323300  0.50000000  0.87854700  1
  O  O85  1  0.64676700  0.50000000  0.37854700  1
  O  O86  1  0.93427350  0.87357950  0.37951900  1
  O  O87  1  0.06572650  0.12642050  0.87951900  1
  O  O88  1  0.06572650  0.87357950  0.87951900  1
  O  O89  1  0.93427350  0.12642050  0.37951900  1
  O  O90  1  0.02859200  0.26517400  0.59319300  1
  O  O91  1  0.97140800  0.73482600  0.09319300  1
  O  O92  1  0.97140800  0.26517400  0.09319300  1
  O  O93  1  0.02859200  0.73482600  0.59319300  1
  O  O94  1  0.27844850  0.71331250  0.58524100  1
  O  O95  1  0.72155150  0.28668750  0.08524100  1
  O  O96  1  0.72155150  0.71331250  0.08524100  1
  O  O97  1  0.27844850  0.28668750  0.58524100  1
  O  O98  1  0.11261200  0.50000000  0.57553000  1
  O  O99  1  0.88738800  0.50000000  0.07553000  1
