# generated using pymatgen
data_Na5P3O10
_symmetry_space_group_name_H-M   'P 1'
_cell_length_a   16.31225200
_cell_length_b   5.29171400
_cell_length_c   11.34203446
_cell_angle_alpha   90.00000000
_cell_angle_beta   93.52278705
_cell_angle_gamma   90.00000000
_symmetry_Int_Tables_number   1
_chemical_formula_structural   Na5P3O10
_chemical_formula_sum   'Na20 P12 O40'
_cell_volume   977.19187303
_cell_formula_units_Z   4
loop_
 _symmetry_equiv_pos_site_id
 _symmetry_equiv_pos_as_xyz
  1  'x, y, z'
loop_
 _atom_site_type_symbol
 _atom_site_label
 _atom_site_symmetry_multiplicity
 _atom_site_fract_x
 _atom_site_fract_y
 _atom_site_fract_z
 _atom_site_occupancy
  Na  Na0  1  0.54171500  0.23639500  0.96211100  1
  Na  Na1  1  0.54171500  0.76360500  0.46211100  1
  Na  Na2  1  0.95828500  0.26360500  0.03788900  1
  Na  Na3  1  0.83972400  0.72920600  0.79371100  1
  Na  Na4  1  0.66027600  0.22920600  0.70628900  1
  Na  Na5  1  0.66027600  0.77079400  0.20628900  1
  Na  Na6  1  0.75000000  0.75000000  0.50000000  1
  Na  Na7  1  0.75000000  0.25000000  0.00000000  1
  Na  Na8  1  0.83972400  0.27079400  0.29371100  1
  Na  Na9  1  0.95828500  0.73639500  0.53788900  1
  Na  Na10  1  0.04171500  0.73639500  0.96211100  1
  Na  Na11  1  0.04171500  0.26360500  0.46211100  1
  Na  Na12  1  0.45828500  0.76360500  0.03788900  1
  Na  Na13  1  0.33972400  0.22920600  0.79371100  1
  Na  Na14  1  0.16027600  0.72920600  0.70628900  1
  Na  Na15  1  0.16027600  0.27079400  0.20628900  1
  Na  Na16  1  0.25000000  0.25000000  0.50000000  1
  Na  Na17  1  0.25000000  0.75000000  0.00000000  1
  Na  Na18  1  0.33972400  0.77079400  0.29371100  1
  Na  Na19  1  0.45828500  0.23639500  0.53788900  1
  P  P20  1  0.85321050  0.80327850  0.10000400  1
  P  P21  1  0.64678950  0.30327850  0.39999600  1
  P  P22  1  0.64678950  0.69672150  0.89999600  1
  P  P23  1  0.85321050  0.19672150  0.60000400  1
  P  P24  1  0.00000000  0.69198300  0.25000000  1
  P  P25  1  0.00000000  0.30801700  0.75000000  1
  P  P26  1  0.35321050  0.30327850  0.10000400  1
  P  P27  1  0.14678950  0.80327850  0.39999600  1
  P  P28  1  0.14678950  0.19672150  0.89999600  1
  P  P29  1  0.35321050  0.69672150  0.60000400  1
  P  P30  1  0.50000000  0.19198300  0.25000000  1
  P  P31  1  0.50000000  0.80801700  0.75000000  1
  O  O32  1  0.78246450  0.05195150  0.65009700  1
  O  O33  1  0.87949000  0.90983900  0.98233200  1
  O  O34  1  0.62051000  0.40983900  0.51766800  1
  O  O35  1  0.62051000  0.59016100  0.01766800  1
  O  O36  1  0.87949000  0.09016100  0.48233200  1
  O  O37  1  0.78246450  0.94804850  0.15009700  1
  O  O38  1  0.96237450  0.45644050  0.84728100  1
  O  O39  1  0.53762550  0.95644050  0.65271900  1
  O  O40  1  0.53762550  0.04355950  0.15271900  1
  O  O41  1  0.96237450  0.54355950  0.34728100  1
  O  O42  1  0.93413750  0.10757250  0.69375200  1
  O  O43  1  0.56586250  0.60757250  0.80624800  1
  O  O44  1  0.56586250  0.39242750  0.30624800  1
  O  O45  1  0.93413750  0.89242750  0.19375200  1
  O  O46  1  0.71753550  0.55195150  0.84990300  1
  O  O47  1  0.65165350  0.98422350  0.89324100  1
  O  O48  1  0.65165350  0.01577650  0.39324100  1
  O  O49  1  0.84834650  0.51577650  0.10675900  1
  O  O50  1  0.84834650  0.48422350  0.60675900  1
  O  O51  1  0.71753550  0.44804850  0.34990300  1
  O  O52  1  0.28246450  0.55195150  0.65009700  1
  O  O53  1  0.37949000  0.40983900  0.98233200  1
  O  O54  1  0.12051000  0.90983900  0.51766800  1
  O  O55  1  0.12051000  0.09016100  0.01766800  1
  O  O56  1  0.37949000  0.59016100  0.48233200  1
  O  O57  1  0.28246450  0.44804850  0.15009700  1
  O  O58  1  0.46237450  0.95644050  0.84728100  1
  O  O59  1  0.03762550  0.45644050  0.65271900  1
  O  O60  1  0.03762550  0.54355950  0.15271900  1
  O  O61  1  0.46237450  0.04355950  0.34728100  1
  O  O62  1  0.43413750  0.60757250  0.69375200  1
  O  O63  1  0.06586250  0.10757250  0.80624800  1
  O  O64  1  0.06586250  0.89242750  0.30624800  1
  O  O65  1  0.43413750  0.39242750  0.19375200  1
  O  O66  1  0.21753550  0.05195150  0.84990300  1
  O  O67  1  0.15165350  0.48422350  0.89324100  1
  O  O68  1  0.15165350  0.51577650  0.39324100  1
  O  O69  1  0.34834650  0.01577650  0.10675900  1
  O  O70  1  0.34834650  0.98422350  0.60675900  1
  O  O71  1  0.21753550  0.94804850  0.34990300  1
