# generated using pymatgen
data_La2CdS4
_symmetry_space_group_name_H-M   'P 1'
_cell_length_a   8.59189000
_cell_length_b   8.59189000
_cell_length_c   9.00872200
_cell_angle_alpha   90.00000000
_cell_angle_beta   90.00000000
_cell_angle_gamma   90.00000000
_symmetry_Int_Tables_number   1
_chemical_formula_structural   La2CdS4
_chemical_formula_sum   'La8 Cd4 S16'
_cell_volume   665.02902699
_cell_formula_units_Z   4
loop_
 _symmetry_equiv_pos_site_id
 _symmetry_equiv_pos_as_xyz
  1  'x, y, z'
loop_
 _atom_site_type_symbol
 _atom_site_label
 _atom_site_symmetry_multiplicity
 _atom_site_fract_x
 _atom_site_fract_y
 _atom_site_fract_z
 _atom_site_occupancy
  La  La0  1  0.25000000  0.85754600  0.37500000  1
  La  La1  1  0.35754600  0.25000000  0.12500000  1
  La  La2  1  0.25000000  0.64245400  0.87500000  1
  La  La3  1  0.14245400  0.25000000  0.62500000  1
  La  La4  1  0.75000000  0.35754600  0.87500000  1
  La  La5  1  0.85754600  0.75000000  0.62500000  1
  La  La6  1  0.75000000  0.14245400  0.37500000  1
  La  La7  1  0.64245400  0.75000000  0.12500000  1
  Cd  Cd8  1  0.00000000  0.50000000  0.25000000  1
  Cd  Cd9  1  0.00000000  0.00000000  0.00000000  1
  Cd  Cd10  1  0.50000000  0.00000000  0.75000000  1
  Cd  Cd11  1  0.50000000  0.50000000  0.50000000  1
  S  S12  1  0.69708100  0.06875300  0.06269800  1
  S  S13  1  0.43124700  0.30291900  0.81269800  1
  S  S14  1  0.06875300  0.30291900  0.93730200  1
  S  S15  1  0.06875300  0.19708100  0.31269800  1
  S  S16  1  0.19708100  0.93124700  0.68730200  1
  S  S17  1  0.30291900  0.56875300  0.18730200  1
  S  S18  1  0.43124700  0.19708100  0.43730200  1
  S  S19  1  0.80291900  0.43124700  0.56269800  1
  S  S20  1  0.19708100  0.56875300  0.56269800  1
  S  S21  1  0.93124700  0.80291900  0.31269800  1
  S  S22  1  0.56875300  0.80291900  0.43730200  1
  S  S23  1  0.56875300  0.69708100  0.81269800  1
  S  S24  1  0.69708100  0.43124700  0.18730200  1
  S  S25  1  0.80291900  0.06875300  0.68730200  1
  S  S26  1  0.93124700  0.69708100  0.93730200  1
  S  S27  1  0.30291900  0.93124700  0.06269800  1
