# generated using pymatgen
data_Si19Te8
_symmetry_space_group_name_H-M   'P 1'
_cell_length_a   14.88141206
_cell_length_b   14.88141206
_cell_length_c   18.39584964
_cell_angle_alpha   90.00000000
_cell_angle_beta   90.00000000
_cell_angle_gamma   120.00000000
_symmetry_Int_Tables_number   1
_chemical_formula_structural   Si19Te8
_chemical_formula_sum   'Si114 Te48'
_cell_volume   3528.08278762
_cell_formula_units_Z   6
loop_
 _symmetry_equiv_pos_site_id
 _symmetry_equiv_pos_as_xyz
  1  'x, y, z'
loop_
 _atom_site_type_symbol
 _atom_site_label
 _atom_site_symmetry_multiplicity
 _atom_site_fract_x
 _atom_site_fract_y
 _atom_site_fract_z
 _atom_site_occupancy
  Si  Si0  1  0.51263300  0.57550100  0.10565900  1
  Si  Si1  1  0.06286800  0.48736700  0.10565900  1
  Si  Si2  1  0.42449900  0.93713200  0.10565900  1
  Si  Si3  1  0.17929967  0.27046533  0.93899233  1
  Si  Si4  1  0.33333333  0.66666667  0.52329267  1
  Si  Si5  1  0.33333333  0.66666667  0.02329267  1
  Si  Si6  1  0.09116567  0.82070033  0.93899233  1
  Si  Si7  1  0.72953467  0.90883433  0.93899233  1
  Si  Si8  1  0.41988100  0.57166100  0.99809000  1
  Si  Si9  1  0.15178000  0.58011900  0.99809000  1
  Si  Si10  1  0.42833900  0.84822000  0.99809000  1
  Si  Si11  1  0.41988100  0.84822000  0.49809000  1
  Si  Si12  1  0.42833900  0.58011900  0.49809000  1
  Si  Si13  1  0.15178000  0.57166100  0.49809000  1
  Si  Si14  1  0.15198700  0.73314700  0.23674600  1
  Si  Si15  1  0.58116000  0.84801300  0.23674600  1
  Si  Si16  1  0.26685300  0.41884000  0.23674600  1
  Si  Si17  1  0.81865367  0.75217333  0.07007933  1
  Si  Si18  1  0.08532367  0.42564433  0.41770133  1
  Si  Si19  1  0.57435567  0.65967933  0.41770133  1
  Si  Si20  1  0.34032067  0.91467633  0.41770133  1
  Si  Si21  1  0.57435567  0.91467633  0.91770133  1
  Si  Si22  1  0.08532367  0.65967933  0.91770133  1
  Si  Si23  1  0.34032067  0.42564433  0.91770133  1
  Si  Si24  1  0.11756367  0.89150333  0.05676233  1
  Si  Si25  1  0.10849667  0.22606033  0.05676233  1
  Si  Si26  1  0.77393967  0.88243633  0.05676233  1
  Si  Si27  1  0.44183000  0.54910300  0.22342900  1
  Si  Si28  1  0.45089700  0.89272700  0.22342900  1
  Si  Si29  1  0.10727300  0.55817000  0.22342900  1
  Si  Si30  1  0.18143867  0.15755533  0.13777833  1
  Si  Si31  1  0.84244467  0.02388333  0.13777833  1
  Si  Si32  1  0.97611667  0.81856133  0.13777833  1
  Si  Si33  1  0.17577800  0.48522800  0.30444500  1
  Si  Si34  1  0.51477200  0.69055000  0.30444500  1
  Si  Si35  1  0.30945000  0.82422200  0.30444500  1
  Si  Si36  1  0.24782667  0.06648033  0.07007933  1
  Si  Si37  1  0.93351967  0.18134633  0.07007933  1
  Si  Si38  1  0.17929967  0.90883433  0.43899233  1
  Si  Si39  1  0.72953467  0.82070033  0.43899233  1
  Si  Si40  1  0.09116567  0.27046533  0.43899233  1
  Si  Si41  1  0.84596633  0.60379867  0.27232567  1
  Si  Si42  1  0.00000000  0.00000000  0.85662600  1
  Si  Si43  1  0.00000000  0.00000000  0.35662600  1
  Si  Si44  1  0.75783233  0.15403367  0.27232567  1
  Si  Si45  1  0.39620133  0.24216767  0.27232567  1
  Si  Si46  1  0.08654767  0.90499433  0.33142333  1
  Si  Si47  1  0.81844667  0.91345233  0.33142333  1
  Si  Si48  1  0.09500567  0.18155333  0.33142333  1
  Si  Si49  1  0.08654767  0.18155333  0.83142333  1
  Si  Si50  1  0.09500567  0.91345233  0.83142333  1
  Si  Si51  1  0.81844667  0.90499433  0.83142333  1
  Si  Si52  1  0.81865367  0.06648033  0.57007933  1
  Si  Si53  1  0.24782667  0.18134633  0.57007933  1
  Si  Si54  1  0.93351967  0.75217333  0.57007933  1
  Si  Si55  1  0.48532033  0.08550667  0.40341267  1
  Si  Si56  1  0.75199033  0.75897767  0.75103467  1
  Si  Si57  1  0.24102233  0.99301267  0.75103467  1
  Si  Si58  1  0.00698733  0.24800967  0.75103467  1
  Si  Si59  1  0.24102233  0.24800967  0.25103467  1
  Si  Si60  1  0.75199033  0.99301267  0.25103467  1
  Si  Si61  1  0.00698733  0.75897767  0.25103467  1
  Si  Si62  1  0.78423033  0.22483667  0.39009567  1
  Si  Si63  1  0.77516333  0.55939367  0.39009567  1
  Si  Si64  1  0.44060633  0.21576967  0.39009567  1
  Si  Si65  1  0.10849667  0.88243633  0.55676233  1
  Si  Si66  1  0.11756367  0.22606033  0.55676233  1
  Si  Si67  1  0.77393967  0.89150333  0.55676233  1
  Si  Si68  1  0.84810533  0.49088867  0.47111167  1
  Si  Si69  1  0.50911133  0.35721667  0.47111167  1
  Si  Si70  1  0.64278333  0.15189467  0.47111167  1
  Si  Si71  1  0.84244467  0.81856133  0.63777833  1
  Si  Si72  1  0.18143867  0.02388333  0.63777833  1
  Si  Si73  1  0.97611667  0.15755533  0.63777833  1
  Si  Si74  1  0.91449333  0.39981367  0.40341267  1
  Si  Si75  1  0.60018633  0.51467967  0.40341267  1
  Si  Si76  1  0.84596633  0.24216767  0.77232567  1
  Si  Si77  1  0.39620133  0.15403367  0.77232567  1
  Si  Si78  1  0.75783233  0.60379867  0.77232567  1
  Si  Si79  1  0.51263300  0.93713200  0.60565900  1
  Si  Si80  1  0.66666667  0.33333333  0.18995933  1
  Si  Si81  1  0.66666667  0.33333333  0.68995933  1
  Si  Si82  1  0.42449900  0.48736700  0.60565900  1
  Si  Si83  1  0.06286800  0.57550100  0.60565900  1
  Si  Si84  1  0.75321433  0.23832767  0.66475667  1
  Si  Si85  1  0.48511333  0.24678567  0.66475667  1
  Si  Si86  1  0.76167233  0.51488667  0.66475667  1
  Si  Si87  1  0.75321433  0.51488667  0.16475667  1
  Si  Si88  1  0.76167233  0.24678567  0.16475667  1
  Si  Si89  1  0.48511333  0.23832767  0.16475667  1
  Si  Si90  1  0.48532033  0.39981367  0.90341267  1
  Si  Si91  1  0.91449333  0.51467967  0.90341267  1
  Si  Si92  1  0.60018633  0.08550667  0.90341267  1
  Si  Si93  1  0.15198700  0.41884000  0.73674600  1
  Si  Si94  1  0.41865700  0.09231100  0.08436800  1
  Si  Si95  1  0.90768900  0.32634600  0.08436800  1
  Si  Si96  1  0.67365400  0.58134300  0.08436800  1
  Si  Si97  1  0.90768900  0.58134300  0.58436800  1
  Si  Si98  1  0.41865700  0.32634600  0.58436800  1
  Si  Si99  1  0.67365400  0.09231100  0.58436800  1
  Si  Si100  1  0.45089700  0.55817000  0.72342900  1
  Si  Si101  1  0.44183000  0.89272700  0.72342900  1
  Si  Si102  1  0.10727300  0.54910300  0.72342900  1
  Si  Si103  1  0.77516333  0.21576967  0.89009567  1
  Si  Si104  1  0.78423033  0.55939367  0.89009567  1
  Si  Si105  1  0.44060633  0.22483667  0.89009567  1
  Si  Si106  1  0.51477200  0.82422200  0.80444500  1
  Si  Si107  1  0.17577800  0.69055000  0.80444500  1
  Si  Si108  1  0.30945000  0.48522800  0.80444500  1
  Si  Si109  1  0.50911133  0.15189467  0.97111167  1
  Si  Si110  1  0.84810533  0.35721667  0.97111167  1
  Si  Si111  1  0.64278333  0.49088867  0.97111167  1
  Si  Si112  1  0.58116000  0.73314700  0.73674600  1
  Si  Si113  1  0.26685300  0.84801300  0.73674600  1
  Te  Te114  1  0.21379467  0.79358633  0.10276233  1
  Te  Te115  1  0.57979167  0.78620533  0.10276233  1
  Te  Te116  1  0.20641367  0.42020833  0.10276233  1
  Te  Te117  1  0.54712800  0.08687500  0.26942900  1
  Te  Te118  1  0.53974700  0.45287200  0.26942900  1
  Te  Te119  1  0.91312500  0.46025300  0.26942900  1
  Te  Te120  1  0.32622133  0.91516867  0.92037267  1
  Te  Te121  1  0.58894733  0.67377867  0.92037267  1
  Te  Te122  1  0.08483133  0.41105267  0.92037267  1
  Te  Te123  1  0.65955467  0.07771933  0.08703933  1
  Te  Te124  1  0.41816467  0.34044533  0.08703933  1
  Te  Te125  1  0.92228067  0.58183533  0.08703933  1
  Te  Te126  1  0.33333333  0.66666667  0.35450867  1
  Te  Te127  1  0.33333333  0.66666667  0.85450867  1
  Te  Te128  1  0.33333333  0.66666667  0.16671267  1
  Te  Te129  1  0.33333333  0.66666667  0.66671267  1
  Te  Te130  1  0.88046133  0.12691967  0.43609567  1
  Te  Te131  1  0.24645833  0.11953867  0.43609567  1
  Te  Te132  1  0.87308033  0.75354167  0.43609567  1
  Te  Te133  1  0.21379467  0.42020833  0.60276233  1
  Te  Te134  1  0.20641367  0.78620533  0.60276233  1
  Te  Te135  1  0.57979167  0.79358633  0.60276233  1
  Te  Te136  1  0.99288800  0.24850200  0.25370600  1
  Te  Te137  1  0.25561400  0.00711200  0.25370600  1
  Te  Te138  1  0.75149800  0.74438600  0.25370600  1
  Te  Te139  1  0.32622133  0.41105267  0.42037267  1
  Te  Te140  1  0.08483133  0.67377867  0.42037267  1
  Te  Te141  1  0.58894733  0.91516867  0.42037267  1
  Te  Te142  1  0.00000000  0.00000000  0.68784200  1
  Te  Te143  1  0.00000000  0.00000000  0.18784200  1
  Te  Te144  1  0.00000000  0.00000000  0.50004600  1
  Te  Te145  1  0.00000000  0.00000000  0.00004600  1
  Te  Te146  1  0.54712800  0.46025300  0.76942900  1
  Te  Te147  1  0.91312500  0.45287200  0.76942900  1
  Te  Te148  1  0.53974700  0.08687500  0.76942900  1
  Te  Te149  1  0.88046133  0.75354167  0.93609567  1
  Te  Te150  1  0.87308033  0.11953867  0.93609567  1
  Te  Te151  1  0.24645833  0.12691967  0.93609567  1
  Te  Te152  1  0.65955467  0.58183533  0.58703933  1
  Te  Te153  1  0.92228067  0.34044533  0.58703933  1
  Te  Te154  1  0.41816467  0.07771933  0.58703933  1
  Te  Te155  1  0.99288800  0.74438600  0.75370600  1
  Te  Te156  1  0.75149800  0.00711200  0.75370600  1
  Te  Te157  1  0.25561400  0.24850200  0.75370600  1
  Te  Te158  1  0.66666667  0.33333333  0.02117533  1
  Te  Te159  1  0.66666667  0.33333333  0.52117533  1
  Te  Te160  1  0.66666667  0.33333333  0.83337933  1
  Te  Te161  1  0.66666667  0.33333333  0.33337933  1
