# generated using pymatgen
data_Nd3Sb5O12
_symmetry_space_group_name_H-M   'P 1'
_cell_length_a   11.15009200
_cell_length_b   11.15009200
_cell_length_c   11.15009200
_cell_angle_alpha   90.00000000
_cell_angle_beta   90.00000000
_cell_angle_gamma   90.00000000
_symmetry_Int_Tables_number   1
_chemical_formula_structural   Nd3Sb5O12
_chemical_formula_sum   'Nd12 Sb20 O48'
_cell_volume   1386.23018829
_cell_formula_units_Z   4
loop_
 _symmetry_equiv_pos_site_id
 _symmetry_equiv_pos_as_xyz
  1  'x, y, z'
loop_
 _atom_site_type_symbol
 _atom_site_label
 _atom_site_symmetry_multiplicity
 _atom_site_fract_x
 _atom_site_fract_y
 _atom_site_fract_z
 _atom_site_occupancy
  Nd  Nd0  1  0.00000000  0.50000000  0.25000000  1
  Nd  Nd1  1  0.00000000  0.25000000  0.50000000  1
  Nd  Nd2  1  0.50000000  0.25000000  0.00000000  1
  Nd  Nd3  1  0.25000000  0.00000000  0.50000000  1
  Nd  Nd4  1  0.25000000  0.50000000  0.00000000  1
  Nd  Nd5  1  0.50000000  0.00000000  0.25000000  1
  Nd  Nd6  1  0.50000000  0.00000000  0.75000000  1
  Nd  Nd7  1  0.50000000  0.75000000  0.00000000  1
  Nd  Nd8  1  0.00000000  0.75000000  0.50000000  1
  Nd  Nd9  1  0.75000000  0.50000000  0.00000000  1
  Nd  Nd10  1  0.75000000  0.00000000  0.50000000  1
  Nd  Nd11  1  0.00000000  0.50000000  0.75000000  1
  Sb  Sb12  1  0.25296400  0.74703600  0.25296400  1
  Sb  Sb13  1  0.74703600  0.25296400  0.25296400  1
  Sb  Sb14  1  0.25296400  0.25296400  0.74703600  1
  Sb  Sb15  1  0.24703600  0.24703600  0.24703600  1
  Sb  Sb16  1  0.71847300  0.00000000  0.00000000  1
  Sb  Sb17  1  0.28152700  0.00000000  0.00000000  1
  Sb  Sb18  1  0.00000000  0.00000000  0.28152700  1
  Sb  Sb19  1  0.00000000  0.00000000  0.71847300  1
  Sb  Sb20  1  0.00000000  0.71847300  0.00000000  1
  Sb  Sb21  1  0.00000000  0.28152700  0.00000000  1
  Sb  Sb22  1  0.75296400  0.24703600  0.75296400  1
  Sb  Sb23  1  0.24703600  0.75296400  0.75296400  1
  Sb  Sb24  1  0.75296400  0.75296400  0.24703600  1
  Sb  Sb25  1  0.74703600  0.74703600  0.74703600  1
  Sb  Sb26  1  0.21847300  0.50000000  0.50000000  1
  Sb  Sb27  1  0.78152700  0.50000000  0.50000000  1
  Sb  Sb28  1  0.50000000  0.50000000  0.78152700  1
  Sb  Sb29  1  0.50000000  0.50000000  0.21847300  1
  Sb  Sb30  1  0.50000000  0.21847300  0.50000000  1
  Sb  Sb31  1  0.50000000  0.78152700  0.50000000  1
  O  O32  1  0.13749750  0.13749750  0.66501250  1
  O  O33  1  0.36250250  0.16501250  0.36250250  1
  O  O34  1  0.16501250  0.36250250  0.36250250  1
  O  O35  1  0.33498750  0.86250250  0.13749750  1
  O  O36  1  0.86250250  0.33498750  0.13749750  1
  O  O37  1  0.13749750  0.86250250  0.33498750  1
  O  O38  1  0.86250250  0.13749750  0.33498750  1
  O  O39  1  0.13749750  0.33498750  0.86250250  1
  O  O40  1  0.13749750  0.66501250  0.13749750  1
  O  O41  1  0.66501250  0.13749750  0.13749750  1
  O  O42  1  0.33498750  0.13749750  0.86250250  1
  O  O43  1  0.36250250  0.36250250  0.16501250  1
  O  O44  1  0.40095400  0.40095400  0.89156500  1
  O  O45  1  0.09904600  0.39156500  0.09904600  1
  O  O46  1  0.39156500  0.09904600  0.09904600  1
  O  O47  1  0.60843500  0.09904600  0.90095400  1
  O  O48  1  0.09904600  0.09904600  0.39156500  1
  O  O49  1  0.60843500  0.90095400  0.09904600  1
  O  O50  1  0.89156500  0.40095400  0.40095400  1
  O  O51  1  0.40095400  0.89156500  0.40095400  1
  O  O52  1  0.90095400  0.60843500  0.09904600  1
  O  O53  1  0.09904600  0.90095400  0.60843500  1
  O  O54  1  0.90095400  0.09904600  0.60843500  1
  O  O55  1  0.09904600  0.60843500  0.90095400  1
  O  O56  1  0.63749750  0.63749750  0.16501250  1
  O  O57  1  0.86250250  0.66501250  0.86250250  1
  O  O58  1  0.66501250  0.86250250  0.86250250  1
  O  O59  1  0.83498750  0.36250250  0.63749750  1
  O  O60  1  0.36250250  0.83498750  0.63749750  1
  O  O61  1  0.63749750  0.36250250  0.83498750  1
  O  O62  1  0.36250250  0.63749750  0.83498750  1
  O  O63  1  0.63749750  0.83498750  0.36250250  1
  O  O64  1  0.63749750  0.16501250  0.63749750  1
  O  O65  1  0.16501250  0.63749750  0.63749750  1
  O  O66  1  0.83498750  0.63749750  0.36250250  1
  O  O67  1  0.86250250  0.86250250  0.66501250  1
  O  O68  1  0.90095400  0.90095400  0.39156500  1
  O  O69  1  0.59904600  0.89156500  0.59904600  1
  O  O70  1  0.89156500  0.59904600  0.59904600  1
  O  O71  1  0.10843500  0.59904600  0.40095400  1
  O  O72  1  0.59904600  0.59904600  0.89156500  1
  O  O73  1  0.10843500  0.40095400  0.59904600  1
  O  O74  1  0.39156500  0.90095400  0.90095400  1
  O  O75  1  0.90095400  0.39156500  0.90095400  1
  O  O76  1  0.40095400  0.10843500  0.59904600  1
  O  O77  1  0.59904600  0.40095400  0.10843500  1
  O  O78  1  0.40095400  0.59904600  0.10843500  1
  O  O79  1  0.59904600  0.10843500  0.40095400  1
