# generated using pymatgen
data_Sr3Ti2O7
_symmetry_space_group_name_H-M   'P 1'
_cell_length_a   3.94090800
_cell_length_b   3.94090800
_cell_length_c   20.51188600
_cell_angle_alpha   90.00000000
_cell_angle_beta   90.00000000
_cell_angle_gamma   90.00000000
_symmetry_Int_Tables_number   1
_chemical_formula_structural   Sr3Ti2O7
_chemical_formula_sum   'Sr6 Ti4 O14'
_cell_volume   318.56509379
_cell_formula_units_Z   2
loop_
 _symmetry_equiv_pos_site_id
 _symmetry_equiv_pos_as_xyz
  1  'x, y, z'
loop_
 _atom_site_type_symbol
 _atom_site_label
 _atom_site_symmetry_multiplicity
 _atom_site_fract_x
 _atom_site_fract_y
 _atom_site_fract_z
 _atom_site_occupancy
  Sr  Sr0  1  0.00000000  0.00000000  0.31573700  1
  Sr  Sr1  1  0.50000000  0.50000000  0.00000000  1
  Sr  Sr2  1  0.50000000  0.50000000  0.18426300  1
  Sr  Sr3  1  0.50000000  0.50000000  0.81573700  1
  Sr  Sr4  1  0.00000000  0.00000000  0.50000000  1
  Sr  Sr5  1  0.00000000  0.00000000  0.68426300  1
  Ti  Ti6  1  0.00000000  0.00000000  0.09776800  1
  Ti  Ti7  1  0.50000000  0.50000000  0.40223200  1
  Ti  Ti8  1  0.50000000  0.50000000  0.59776800  1
  Ti  Ti9  1  0.00000000  0.00000000  0.90223200  1
  O  O10  1  0.50000000  0.00000000  0.40366100  1
  O  O11  1  0.50000000  0.50000000  0.30619200  1
  O  O12  1  0.00000000  0.00000000  0.00000000  1
  O  O13  1  0.50000000  0.00000000  0.09633900  1
  O  O14  1  0.00000000  0.50000000  0.09633900  1
  O  O15  1  0.00000000  0.50000000  0.40366100  1
  O  O16  1  0.00000000  0.00000000  0.19380800  1
  O  O17  1  0.00000000  0.50000000  0.90366100  1
  O  O18  1  0.00000000  0.00000000  0.80619200  1
  O  O19  1  0.50000000  0.50000000  0.50000000  1
  O  O20  1  0.00000000  0.50000000  0.59633900  1
  O  O21  1  0.50000000  0.00000000  0.59633900  1
  O  O22  1  0.50000000  0.00000000  0.90366100  1
  O  O23  1  0.50000000  0.50000000  0.69380800  1
