# generated using pymatgen
data_Ba8P5Br
_symmetry_space_group_name_H-M   'P 1'
_cell_length_a   9.94260800
_cell_length_b   9.94260800
_cell_length_c   9.89534200
_cell_angle_alpha   90.00000000
_cell_angle_beta   90.00000000
_cell_angle_gamma   90.00000000
_symmetry_Int_Tables_number   1
_chemical_formula_structural   Ba8P5Br
_chemical_formula_sum   'Ba16 P10 Br2'
_cell_volume   978.20852433
_cell_formula_units_Z   2
loop_
 _symmetry_equiv_pos_site_id
 _symmetry_equiv_pos_as_xyz
  1  'x, y, z'
loop_
 _atom_site_type_symbol
 _atom_site_label
 _atom_site_symmetry_multiplicity
 _atom_site_fract_x
 _atom_site_fract_y
 _atom_site_fract_z
 _atom_site_occupancy
  Ba  Ba0  1  0.30633900  0.93761100  0.42902300  1
  Ba  Ba1  1  0.17221900  0.92647000  0.81353300  1
  Ba  Ba2  1  0.32778100  0.57353000  0.31353300  1
  Ba  Ba3  1  0.19366100  0.56238900  0.92902300  1
  Ba  Ba4  1  0.06238900  0.30633900  0.57097700  1
  Ba  Ba5  1  0.43761100  0.19366100  0.07097700  1
  Ba  Ba6  1  0.07353000  0.17221900  0.18646700  1
  Ba  Ba7  1  0.42647000  0.32778100  0.68646700  1
  Ba  Ba8  1  0.80633900  0.43761100  0.92902300  1
  Ba  Ba9  1  0.67221900  0.42647000  0.31353300  1
  Ba  Ba10  1  0.82778100  0.07353000  0.81353300  1
  Ba  Ba11  1  0.69366100  0.06238900  0.42902300  1
  Ba  Ba12  1  0.56238900  0.80633900  0.07097700  1
  Ba  Ba13  1  0.93761100  0.69366100  0.57097700  1
  Ba  Ba14  1  0.57353000  0.67221900  0.68646700  1
  Ba  Ba15  1  0.92647000  0.82778100  0.18646700  1
  P  P16  1  0.37097850  0.25535350  0.37689550  1
  P  P17  1  0.74464650  0.37097850  0.62310450  1
  P  P18  1  0.12902150  0.24464650  0.87689550  1
  P  P19  1  0.00000000  0.00000000  0.50000000  1
  P  P20  1  0.75535350  0.12902150  0.12310450  1
  P  P21  1  0.87097850  0.75535350  0.87689550  1
  P  P22  1  0.24464650  0.87097850  0.12310450  1
  P  P23  1  0.62902150  0.74464650  0.37689550  1
  P  P24  1  0.50000000  0.50000000  0.00000000  1
  P  P25  1  0.25535350  0.62902150  0.62310450  1
  Br  Br26  1  0.00000000  0.50000000  0.25000000  1
  Br  Br27  1  0.50000000  0.00000000  0.75000000  1
