# generated using pymatgen
data_Al2NiO4
_symmetry_space_group_name_H-M   'P 1'
_cell_length_a   9.96910600
_cell_length_b   5.77175800
_cell_length_c   13.99505714
_cell_angle_alpha   90.00000000
_cell_angle_beta   90.11691247
_cell_angle_gamma   90.00000000
_symmetry_Int_Tables_number   1
_chemical_formula_structural   Al2NiO4
_chemical_formula_sum   'Al24 Ni12 O48'
_cell_volume   805.26365708
_cell_formula_units_Z   12
loop_
 _symmetry_equiv_pos_site_id
 _symmetry_equiv_pos_as_xyz
  1  'x, y, z'
loop_
 _atom_site_type_symbol
 _atom_site_label
 _atom_site_symmetry_multiplicity
 _atom_site_fract_x
 _atom_site_fract_y
 _atom_site_fract_z
 _atom_site_occupancy
  Al  Al0  1  0.41906750  0.74787650  0.16744200  1
  Al  Al1  1  0.00072700  0.00000000  0.00402000  1
  Al  Al2  1  0.99509800  0.00000000  0.37893600  1
  Al  Al3  1  0.41906750  0.25212350  0.16744200  1
  Al  Al4  1  0.74971400  0.74985600  0.49933900  1
  Al  Al5  1  0.32579900  0.00000000  0.70838900  1
  Al  Al6  1  0.74971400  0.25014400  0.49933900  1
  Al  Al7  1  0.67323000  0.00000000  0.28792700  1
  Al  Al8  1  0.58194450  0.24781150  0.83182400  1
  Al  Al9  1  0.58194450  0.75218850  0.83182400  1
  Al  Al10  1  0.00468700  0.00000000  0.62206600  1
  Al  Al11  1  0.33954000  0.00000000  0.95985100  1
  Al  Al12  1  0.91906750  0.24787650  0.16744200  1
  Al  Al13  1  0.50072700  0.50000000  0.00402000  1
  Al  Al14  1  0.49509800  0.50000000  0.37893600  1
  Al  Al15  1  0.91906750  0.75212350  0.16744200  1
  Al  Al16  1  0.24971400  0.24985600  0.49933900  1
  Al  Al17  1  0.82579900  0.50000000  0.70838900  1
  Al  Al18  1  0.24971400  0.75014400  0.49933900  1
  Al  Al19  1  0.17323000  0.50000000  0.28792700  1
  Al  Al20  1  0.08194450  0.74781150  0.83182400  1
  Al  Al21  1  0.08194450  0.25218850  0.83182400  1
  Al  Al22  1  0.50468700  0.50000000  0.62206600  1
  Al  Al23  1  0.83954000  0.50000000  0.95985100  1
  Ni  Ni24  1  0.66534700  0.00000000  0.04166800  1
  Ni  Ni25  1  0.33404700  0.00000000  0.33264400  1
  Ni  Ni26  1  0.16706000  0.00000000  0.16753000  1
  Ni  Ni27  1  0.66558100  0.00000000  0.66662200  1
  Ni  Ni28  1  0.49993900  0.00000000  0.49972100  1
  Ni  Ni29  1  0.83097000  0.00000000  0.83229000  1
  Ni  Ni30  1  0.16534700  0.50000000  0.04166800  1
  Ni  Ni31  1  0.83404700  0.50000000  0.33264400  1
  Ni  Ni32  1  0.66706000  0.50000000  0.16753000  1
  Ni  Ni33  1  0.16558100  0.50000000  0.66662200  1
  Ni  Ni34  1  0.99993900  0.50000000  0.49972100  1
  Ni  Ni35  1  0.33097000  0.50000000  0.83229000  1
  O  O36  1  0.56668750  0.72956050  0.08499300  1
  O  O37  1  0.99385500  0.00000000  0.25015400  1
  O  O38  1  0.56668750  0.27043950  0.08499300  1
  O  O39  1  0.85370300  0.00000000  0.08985800  1
  O  O40  1  0.50043000  0.00000000  0.24199300  1
  O  O41  1  0.40594950  0.25120950  0.42251200  1
  O  O42  1  0.26194100  0.25269500  0.24412500  1
  O  O43  1  0.34268600  0.00000000  0.08874100  1
  O  O44  1  0.40594950  0.74879050  0.42251200  1
  O  O45  1  0.32437400  0.00000000  0.57831900  1
  O  O46  1  0.26194100  0.74730500  0.24412500  1
  O  O47  1  0.16914000  0.00000000  0.42358600  1
  O  O48  1  0.73853900  0.25461700  0.75459400  1
  O  O49  1  0.83085500  0.00000000  0.57743800  1
  O  O50  1  0.59366950  0.25167250  0.57831800  1
  O  O51  1  0.65285300  0.00000000  0.90018400  1
  O  O52  1  0.67506300  0.00000000  0.42025300  1
  O  O53  1  0.73853900  0.74538300  0.75459400  1
  O  O54  1  0.49624200  0.00000000  0.75514800  1
  O  O55  1  0.59366950  0.74832750  0.57831800  1
  O  O56  1  0.15826300  0.00000000  0.91633900  1
  O  O57  1  0.42766850  0.73954050  0.91771100  1
  O  O58  1  0.00752800  0.00000000  0.75458200  1
  O  O59  1  0.42766850  0.26045950  0.91771100  1
  O  O60  1  0.06668750  0.22956050  0.08499300  1
  O  O61  1  0.49385500  0.50000000  0.25015400  1
  O  O62  1  0.06668750  0.77043950  0.08499300  1
  O  O63  1  0.35370300  0.50000000  0.08985800  1
  O  O64  1  0.00043000  0.50000000  0.24199300  1
  O  O65  1  0.90594950  0.75120950  0.42251200  1
  O  O66  1  0.76194100  0.75269500  0.24412500  1
  O  O67  1  0.84268600  0.50000000  0.08874100  1
  O  O68  1  0.90594950  0.24879050  0.42251200  1
  O  O69  1  0.82437400  0.50000000  0.57831900  1
  O  O70  1  0.76194100  0.24730500  0.24412500  1
  O  O71  1  0.66914000  0.50000000  0.42358600  1
  O  O72  1  0.23853900  0.75461700  0.75459400  1
  O  O73  1  0.33085500  0.50000000  0.57743800  1
  O  O74  1  0.09366950  0.75167250  0.57831800  1
  O  O75  1  0.15285300  0.50000000  0.90018400  1
  O  O76  1  0.17506300  0.50000000  0.42025300  1
  O  O77  1  0.23853900  0.24538300  0.75459400  1
  O  O78  1  0.99624200  0.50000000  0.75514800  1
  O  O79  1  0.09366950  0.24832750  0.57831800  1
  O  O80  1  0.65826300  0.50000000  0.91633900  1
  O  O81  1  0.92766850  0.23954050  0.91771100  1
  O  O82  1  0.50752800  0.50000000  0.75458200  1
  O  O83  1  0.92766850  0.76045950  0.91771100  1
