# generated using pymatgen
data_K2MgF4
_symmetry_space_group_name_H-M   'P 1'
_cell_length_a   4.03520200
_cell_length_b   4.03520200
_cell_length_c   13.35048000
_cell_angle_alpha   90.00000000
_cell_angle_beta   90.00000000
_cell_angle_gamma   90.00000000
_symmetry_Int_Tables_number   1
_chemical_formula_structural   K2MgF4
_chemical_formula_sum   'K4 Mg2 F8'
_cell_volume   217.38393243
_cell_formula_units_Z   2
loop_
 _symmetry_equiv_pos_site_id
 _symmetry_equiv_pos_as_xyz
  1  'x, y, z'
loop_
 _atom_site_type_symbol
 _atom_site_label
 _atom_site_symmetry_multiplicity
 _atom_site_fract_x
 _atom_site_fract_y
 _atom_site_fract_z
 _atom_site_occupancy
  K  K0  1  0.50000000  0.50000000  0.14816500  1
  K  K1  1  0.00000000  0.00000000  0.35183500  1
  K  K2  1  0.00000000  0.00000000  0.64816500  1
  K  K3  1  0.50000000  0.50000000  0.85183500  1
  Mg  Mg4  1  0.00000000  0.00000000  0.00000000  1
  Mg  Mg5  1  0.50000000  0.50000000  0.50000000  1
  F  F6  1  0.00000000  0.50000000  0.00000000  1
  F  F7  1  0.50000000  0.00000000  0.00000000  1
  F  F8  1  0.50000000  0.50000000  0.34788700  1
  F  F9  1  0.00000000  0.00000000  0.15211300  1
  F  F10  1  0.50000000  0.00000000  0.50000000  1
  F  F11  1  0.00000000  0.50000000  0.50000000  1
  F  F12  1  0.00000000  0.00000000  0.84788700  1
  F  F13  1  0.50000000  0.50000000  0.65211300  1
