# generated using pymatgen
data_Sr4Ti3O10
_symmetry_space_group_name_H-M   'P 1'
_cell_length_a   3.94301200
_cell_length_b   3.94301200
_cell_length_c   28.39673400
_cell_angle_alpha   90.00000000
_cell_angle_beta   90.00000000
_cell_angle_gamma   90.00000000
_symmetry_Int_Tables_number   1
_chemical_formula_structural   Sr4Ti3O10
_chemical_formula_sum   'Sr8 Ti6 O20'
_cell_volume   441.49378153
_cell_formula_units_Z   2
loop_
 _symmetry_equiv_pos_site_id
 _symmetry_equiv_pos_as_xyz
  1  'x, y, z'
loop_
 _atom_site_type_symbol
 _atom_site_label
 _atom_site_symmetry_multiplicity
 _atom_site_fract_x
 _atom_site_fract_y
 _atom_site_fract_z
 _atom_site_occupancy
  Sr  Sr0  1  0.50000000  0.50000000  0.06833200  1
  Sr  Sr1  1  0.00000000  0.00000000  0.43166800  1
  Sr  Sr2  1  0.00000000  0.00000000  0.29773800  1
  Sr  Sr3  1  0.50000000  0.50000000  0.20226200  1
  Sr  Sr4  1  0.00000000  0.00000000  0.56833200  1
  Sr  Sr5  1  0.50000000  0.50000000  0.93166800  1
  Sr  Sr6  1  0.50000000  0.50000000  0.79773800  1
  Sr  Sr7  1  0.00000000  0.00000000  0.70226200  1
  Ti  Ti8  1  0.00000000  0.00000000  0.00000000  1
  Ti  Ti9  1  0.50000000  0.50000000  0.35984600  1
  Ti  Ti10  1  0.00000000  0.00000000  0.14015400  1
  Ti  Ti11  1  0.50000000  0.50000000  0.50000000  1
  Ti  Ti12  1  0.00000000  0.00000000  0.85984600  1
  Ti  Ti13  1  0.50000000  0.50000000  0.64015400  1
  O  O14  1  0.00000000  0.50000000  0.13888700  1
  O  O15  1  0.50000000  0.50000000  0.29066600  1
  O  O16  1  0.00000000  0.00000000  0.20933400  1
  O  O17  1  0.50000000  0.00000000  0.00000000  1
  O  O18  1  0.00000000  0.50000000  0.00000000  1
  O  O19  1  0.00000000  0.00000000  0.06941000  1
  O  O20  1  0.50000000  0.50000000  0.43059000  1
  O  O21  1  0.50000000  0.00000000  0.13888700  1
  O  O22  1  0.00000000  0.50000000  0.36111300  1
  O  O23  1  0.50000000  0.00000000  0.36111300  1
  O  O24  1  0.50000000  0.00000000  0.63888700  1
  O  O25  1  0.00000000  0.00000000  0.79066600  1
  O  O26  1  0.50000000  0.50000000  0.70933400  1
  O  O27  1  0.00000000  0.50000000  0.50000000  1
  O  O28  1  0.50000000  0.00000000  0.50000000  1
  O  O29  1  0.50000000  0.50000000  0.56941000  1
  O  O30  1  0.00000000  0.00000000  0.93059000  1
  O  O31  1  0.00000000  0.50000000  0.63888700  1
  O  O32  1  0.50000000  0.00000000  0.86111300  1
  O  O33  1  0.00000000  0.50000000  0.86111300  1
