# generated using pymatgen
data_V3(PO4)4
_symmetry_space_group_name_H-M   'P 1'
_cell_length_a   7.80035000
_cell_length_b   7.64238600
_cell_length_c   10.26868151
_cell_angle_alpha   90.00000000
_cell_angle_beta   94.40698815
_cell_angle_gamma   90.00000000
_symmetry_Int_Tables_number   1
_chemical_formula_structural   V3(PO4)4
_chemical_formula_sum   'V6 P8 O32'
_cell_volume   610.33995420
_cell_formula_units_Z   2
loop_
 _symmetry_equiv_pos_site_id
 _symmetry_equiv_pos_as_xyz
  1  'x, y, z'
loop_
 _atom_site_type_symbol
 _atom_site_label
 _atom_site_symmetry_multiplicity
 _atom_site_fract_x
 _atom_site_fract_y
 _atom_site_fract_z
 _atom_site_occupancy
  V  V0  1  0.26971600  0.52138300  0.87517200  1
  V  V1  1  0.72767800  0.96574500  0.63338800  1
  V  V2  1  0.16031800  0.85897300  0.32085400  1
  V  V3  1  0.73028400  0.02138300  0.12482800  1
  V  V4  1  0.27232200  0.46574500  0.36661200  1
  V  V5  1  0.83968200  0.35897300  0.67914600  1
  P  P6  1  0.95162300  0.17090400  0.89735000  1
  P  P7  1  0.05954900  0.70019700  0.60722900  1
  P  P8  1  0.54921900  0.79956100  0.35115600  1
  P  P9  1  0.45916900  0.32789700  0.12585700  1
  P  P10  1  0.04837700  0.67090400  0.10265000  1
  P  P11  1  0.54083100  0.82789700  0.87414300  1
  P  P12  1  0.45078100  0.29956100  0.64884400  1
  P  P13  1  0.94045100  0.20019700  0.39277100  1
  O  O14  1  0.03663000  0.37049300  0.37217000  1
  O  O15  1  0.09609900  0.04923200  0.91060000  1
  O  O16  1  0.90390100  0.54923200  0.08940000  1
  O  O17  1  0.92784600  0.54759700  0.59156400  1
  O  O18  1  0.18747000  0.63620400  0.22824400  1
  O  O19  1  0.68880800  0.86647500  0.98123900  1
  O  O20  1  0.38291500  0.92397300  0.32972100  1
  O  O21  1  0.00910400  0.86589900  0.16035100  1
  O  O22  1  0.48568300  0.63190900  0.89282100  1
  O  O23  1  0.99089600  0.36589900  0.83964900  1
  O  O24  1  0.81253000  0.13620400  0.77175600  1
  O  O25  1  0.84138300  0.18118700  0.01765600  1
  O  O26  1  0.07215400  0.04759700  0.40843600  1
  O  O27  1  0.14588700  0.70373100  0.46991100  1
  O  O28  1  0.51431700  0.13190900  0.10717900  1
  O  O29  1  0.65258200  0.83044000  0.23284200  1
  O  O30  1  0.20015600  0.65706700  0.71308000  1
  O  O31  1  0.51577300  0.11465700  0.62313900  1
  O  O32  1  0.31119200  0.36647500  0.01876100  1
  O  O33  1  0.79984400  0.15706700  0.28692000  1
  O  O34  1  0.61708500  0.42397300  0.67027900  1
  O  O35  1  0.59513000  0.45944900  0.14925400  1
  O  O36  1  0.15861700  0.68118700  0.98234400  1
  O  O37  1  0.34741800  0.33044000  0.76715800  1
  O  O38  1  0.65267100  0.81370900  0.74434800  1
  O  O39  1  0.33921600  0.36180300  0.52835800  1
  O  O40  1  0.48422700  0.61465700  0.37686100  1
  O  O41  1  0.40487000  0.95944900  0.85074600  1
  O  O42  1  0.34732900  0.31370900  0.25565200  1
  O  O43  1  0.66078400  0.86180300  0.47164200  1
  O  O44  1  0.85411300  0.20373100  0.53008900  1
  O  O45  1  0.96337000  0.87049300  0.62783000  1
