# generated using pymatgen
data_Y(AgCl2)3
_symmetry_space_group_name_H-M   'P 1'
_cell_length_a   6.99658562
_cell_length_b   6.99658562
_cell_length_c   18.54083656
_cell_angle_alpha   90.00000000
_cell_angle_beta   90.00000000
_cell_angle_gamma   120.00000000
_symmetry_Int_Tables_number   1
_chemical_formula_structural   Y(AgCl2)3
_chemical_formula_sum   'Y3 Ag9 Cl18'
_cell_volume   786.01758750
_cell_formula_units_Z   3
loop_
 _symmetry_equiv_pos_site_id
 _symmetry_equiv_pos_as_xyz
  1  'x, y, z'
loop_
 _atom_site_type_symbol
 _atom_site_label
 _atom_site_symmetry_multiplicity
 _atom_site_fract_x
 _atom_site_fract_y
 _atom_site_fract_z
 _atom_site_occupancy
  Y  Y0  1  0.00000000  0.00000000  0.00000000  1
  Y  Y1  1  0.66666667  0.33333333  0.33333333  1
  Y  Y2  1  0.33333333  0.66666667  0.66666667  1
  Ag  Ag3  1  0.00000000  0.00000000  0.20749600  1
  Ag  Ag4  1  0.33333333  0.66666667  0.16666667  1
  Ag  Ag5  1  0.66666667  0.33333333  0.12583733  1
  Ag  Ag6  1  0.66666667  0.33333333  0.54082933  1
  Ag  Ag7  1  1.00000000  0.00000000  0.50000000  1
  Ag  Ag8  1  0.33333333  0.66666667  0.45917067  1
  Ag  Ag9  1  0.33333333  0.66666667  0.87416267  1
  Ag  Ag10  1  0.66666667  0.33333333  0.83333333  1
  Ag  Ag11  1  0.00000000  0.00000000  0.79250400  1
  Cl  Cl12  1  0.68488367  0.98226633  0.08527733  1
  Cl  Cl13  1  0.01773367  0.70261733  0.08527733  1
  Cl  Cl14  1  0.29738267  0.31511633  0.08527733  1
  Cl  Cl15  1  0.36928400  0.01821700  0.24805600  1
  Cl  Cl16  1  0.64893300  0.63071600  0.24805600  1
  Cl  Cl17  1  0.98178300  0.35106700  0.24805600  1
  Cl  Cl18  1  0.35155033  0.31559967  0.41861067  1
  Cl  Cl19  1  0.68440033  0.03595067  0.41861067  1
  Cl  Cl20  1  0.96404933  0.64844967  0.41861067  1
  Cl  Cl21  1  0.03595067  0.35155033  0.58138933  1
  Cl  Cl22  1  0.31559967  0.96404933  0.58138933  1
  Cl  Cl23  1  0.64844967  0.68440033  0.58138933  1
  Cl  Cl24  1  0.01821700  0.64893300  0.75194400  1
  Cl  Cl25  1  0.35106700  0.36928400  0.75194400  1
  Cl  Cl26  1  0.63071600  0.98178300  0.75194400  1
  Cl  Cl27  1  0.70261733  0.68488367  0.91472267  1
  Cl  Cl28  1  0.98226633  0.29738267  0.91472267  1
  Cl  Cl29  1  0.31511633  0.01773367  0.91472267  1
