# generated using pymatgen
data_RbHfF5
_symmetry_space_group_name_H-M   'P 1'
_cell_length_a   8.00253000
_cell_length_b   13.55918200
_cell_length_c   7.99580600
_cell_angle_alpha   90.00000000
_cell_angle_beta   90.00000000
_cell_angle_gamma   90.00000000
_symmetry_Int_Tables_number   1
_chemical_formula_structural   RbHfF5
_chemical_formula_sum   'Rb8 Hf8 F40'
_cell_volume   867.60700430
_cell_formula_units_Z   8
loop_
 _symmetry_equiv_pos_site_id
 _symmetry_equiv_pos_as_xyz
  1  'x, y, z'
loop_
 _atom_site_type_symbol
 _atom_site_label
 _atom_site_symmetry_multiplicity
 _atom_site_fract_x
 _atom_site_fract_y
 _atom_site_fract_z
 _atom_site_occupancy
  Rb  Rb0  1  0.50000000  0.29509600  0.50000000  1
  Rb  Rb1  1  0.50000000  0.20490400  0.00000000  1
  Rb  Rb2  1  0.50000000  0.70490400  0.50000000  1
  Rb  Rb3  1  0.50000000  0.79509600  0.00000000  1
  Rb  Rb4  1  0.00000000  0.79509600  0.50000000  1
  Rb  Rb5  1  0.00000000  0.70490400  0.00000000  1
  Rb  Rb6  1  0.00000000  0.20490400  0.50000000  1
  Rb  Rb7  1  0.00000000  0.29509600  0.00000000  1
  Hf  Hf8  1  0.66152800  0.00000000  0.66093800  1
  Hf  Hf9  1  0.83847200  0.00000000  0.16093800  1
  Hf  Hf10  1  0.33847200  0.00000000  0.33906200  1
  Hf  Hf11  1  0.16152800  0.00000000  0.83906200  1
  Hf  Hf12  1  0.16152800  0.50000000  0.66093800  1
  Hf  Hf13  1  0.33847200  0.50000000  0.16093800  1
  Hf  Hf14  1  0.83847200  0.50000000  0.33906200  1
  Hf  Hf15  1  0.66152800  0.50000000  0.83906200  1
  F  F16  1  0.50000000  0.58701200  0.00000000  1
  F  F17  1  0.50000000  0.91298800  0.50000000  1
  F  F18  1  0.50000000  0.41298800  0.00000000  1
  F  F19  1  0.50000000  0.08701200  0.50000000  1
  F  F20  1  0.28918800  0.00000000  0.06297500  1
  F  F21  1  0.21081200  0.00000000  0.56297500  1
  F  F22  1  0.71081200  0.00000000  0.93702500  1
  F  F23  1  0.78918800  0.00000000  0.43702500  1
  F  F24  1  0.71348750  0.85749450  0.70950400  1
  F  F25  1  0.78651250  0.14250550  0.20950400  1
  F  F26  1  0.28651250  0.14250550  0.29049600  1
  F  F27  1  0.21348750  0.85749450  0.79049600  1
  F  F28  1  0.71348750  0.14250550  0.70950400  1
  F  F29  1  0.78651250  0.85749450  0.20950400  1
  F  F30  1  0.28651250  0.85749450  0.29049600  1
  F  F31  1  0.21348750  0.14250550  0.79049600  1
  F  F32  1  0.43868600  0.00000000  0.78980500  1
  F  F33  1  0.06131400  0.00000000  0.28980500  1
  F  F34  1  0.56131400  0.00000000  0.21019500  1
  F  F35  1  0.93868600  0.00000000  0.71019500  1
  F  F36  1  0.00000000  0.08701200  0.00000000  1
  F  F37  1  0.00000000  0.41298800  0.50000000  1
  F  F38  1  0.00000000  0.91298800  0.00000000  1
  F  F39  1  0.00000000  0.58701200  0.50000000  1
  F  F40  1  0.78918800  0.50000000  0.06297500  1
  F  F41  1  0.71081200  0.50000000  0.56297500  1
  F  F42  1  0.21081200  0.50000000  0.93702500  1
  F  F43  1  0.28918800  0.50000000  0.43702500  1
  F  F44  1  0.21348750  0.35749450  0.70950400  1
  F  F45  1  0.28651250  0.64250550  0.20950400  1
  F  F46  1  0.78651250  0.64250550  0.29049600  1
  F  F47  1  0.71348750  0.35749450  0.79049600  1
  F  F48  1  0.21348750  0.64250550  0.70950400  1
  F  F49  1  0.28651250  0.35749450  0.20950400  1
  F  F50  1  0.78651250  0.35749450  0.29049600  1
  F  F51  1  0.71348750  0.64250550  0.79049600  1
  F  F52  1  0.93868600  0.50000000  0.78980500  1
  F  F53  1  0.56131400  0.50000000  0.28980500  1
  F  F54  1  0.06131400  0.50000000  0.21019500  1
  F  F55  1  0.43868600  0.50000000  0.71019500  1
