# generated using pymatgen
data_Zr3InF15
_symmetry_space_group_name_H-M   'P 1'
_cell_length_a   12.31818667
_cell_length_b   12.31818667
_cell_length_c   11.30119922
_cell_angle_alpha   90.00000000
_cell_angle_beta   90.00000000
_cell_angle_gamma   120.00000000
_symmetry_Int_Tables_number   1
_chemical_formula_structural   Zr3InF15
_chemical_formula_sum   'Zr18 In6 F90'
_cell_volume   1485.07615553
_cell_formula_units_Z   6
loop_
 _symmetry_equiv_pos_site_id
 _symmetry_equiv_pos_as_xyz
  1  'x, y, z'
loop_
 _atom_site_type_symbol
 _atom_site_label
 _atom_site_symmetry_multiplicity
 _atom_site_fract_x
 _atom_site_fract_y
 _atom_site_fract_z
 _atom_site_occupancy
  Zr  Zr0  1  0.23602367  0.90269033  0.58333333  1
  Zr  Zr1  1  0.90269033  0.66666667  0.41666667  1
  Zr  Zr2  1  0.66666667  0.76397633  0.58333333  1
  Zr  Zr3  1  0.33333333  0.23602367  0.41666667  1
  Zr  Zr4  1  0.09730967  0.33333333  0.58333333  1
  Zr  Zr5  1  0.76397633  0.09730967  0.41666667  1
  Zr  Zr6  1  0.90269033  0.23602367  0.91666667  1
  Zr  Zr7  1  0.56935700  0.00000000  0.75000000  1
  Zr  Zr8  1  0.33333333  0.09730967  0.91666667  1
  Zr  Zr9  1  1.00000000  0.56935700  0.75000000  1
  Zr  Zr10  1  0.76397633  0.66666667  0.91666667  1
  Zr  Zr11  1  0.43064300  0.43064300  0.75000000  1
  Zr  Zr12  1  0.56935700  0.56935700  0.25000000  1
  Zr  Zr13  1  0.23602367  0.33333333  0.08333333  1
  Zr  Zr14  1  0.00000000  0.43064300  0.25000000  1
  Zr  Zr15  1  0.66666667  0.90269033  0.08333333  1
  Zr  Zr16  1  0.43064300  1.00000000  0.25000000  1
  Zr  Zr17  1  0.09730967  0.76397633  0.08333333  1
  In  In18  1  0.00000000  0.00000000  0.75000000  1
  In  In19  1  0.00000000  0.00000000  0.25000000  1
  In  In20  1  0.66666667  0.33333333  0.08333333  1
  In  In21  1  0.66666667  0.33333333  0.58333333  1
  In  In22  1  0.33333333  0.66666667  0.41666667  1
  In  In23  1  0.33333333  0.66666667  0.91666667  1
  F  F24  1  0.95430267  0.62096933  0.58333333  1
  F  F25  1  0.15911667  0.07710933  0.36074333  1
  F  F26  1  0.38421633  0.14102567  0.29138967  1
  F  F27  1  0.62096933  0.66666667  0.41666667  1
  F  F28  1  0.49245000  0.74867400  0.52741000  1
  F  F29  1  0.71754967  0.90985733  0.45805633  1
  F  F30  1  0.74377600  0.49245000  0.47259000  1
  F  F31  1  0.74867400  0.25622400  0.47259000  1
  F  F32  1  0.75680933  0.61578367  0.29138967  1
  F  F33  1  0.80769233  0.71754967  0.54194367  1
  F  F34  1  0.66666667  0.04569733  0.58333333  1
  F  F35  1  0.85897433  0.24319067  0.29138967  1
  F  F36  1  0.90985733  0.19230767  0.54194367  1
  F  F37  1  0.91799267  0.84088333  0.36074333  1
  F  F38  1  0.92289067  0.08200733  0.36074333  1
  F  F39  1  0.07710933  0.91799267  0.63925667  1
  F  F40  1  0.08200733  0.15911667  0.63925667  1
  F  F41  1  0.09014267  0.80769233  0.45805633  1
  F  F42  1  0.14102567  0.75680933  0.70861033  1
  F  F43  1  0.33333333  0.95430267  0.41666667  1
  F  F44  1  0.19230767  0.28245033  0.45805633  1
  F  F45  1  0.24319067  0.38421633  0.70861033  1
  F  F46  1  0.25132600  0.74377600  0.52741000  1
  F  F47  1  0.25622400  0.50755000  0.52741000  1
  F  F48  1  0.28245033  0.09014267  0.54194367  1
  F  F49  1  0.50755000  0.25132600  0.47259000  1
  F  F50  1  0.37903067  0.33333333  0.58333333  1
  F  F51  1  0.61578367  0.85897433  0.70861033  1
  F  F52  1  0.84088333  0.92289067  0.63925667  1
  F  F53  1  0.04569733  0.37903067  0.41666667  1
  F  F54  1  0.62096933  0.95430267  0.91666667  1
  F  F55  1  0.82578333  0.41044267  0.69407667  1
  F  F56  1  0.05088300  0.47435900  0.62472300  1
  F  F57  1  0.28763600  0.00000000  0.75000000  1
  F  F58  1  0.15911667  0.08200733  0.86074333  1
  F  F59  1  0.38421633  0.24319067  0.79138967  1
  F  F60  1  0.41044267  0.82578333  0.80592333  1
  F  F61  1  0.41534067  0.58955733  0.80592333  1
  F  F62  1  0.42347600  0.94911700  0.62472300  1
  F  F63  1  0.47435900  0.05088300  0.87527700  1
  F  F64  1  0.33333333  0.37903067  0.91666667  1
  F  F65  1  0.52564100  0.57652400  0.62472300  1
  F  F66  1  0.57652400  0.52564100  0.87527700  1
  F  F67  1  0.58465933  0.17421667  0.69407667  1
  F  F68  1  0.58955733  0.41534067  0.69407667  1
  F  F69  1  0.74377600  0.25132600  0.97259000  1
  F  F70  1  0.74867400  0.49245000  0.97259000  1
  F  F71  1  0.75680933  0.14102567  0.79138967  1
  F  F72  1  0.80769233  0.09014267  0.04194367  1
  F  F73  1  0.00000000  0.28763600  0.75000000  1
  F  F74  1  0.85897433  0.61578367  0.79138967  1
  F  F75  1  0.90985733  0.71754967  0.04194367  1
  F  F76  1  0.91799267  0.07710933  0.86074333  1
  F  F77  1  0.92289067  0.84088333  0.86074333  1
  F  F78  1  0.94911700  0.42347600  0.87527700  1
  F  F79  1  0.17421667  0.58465933  0.80592333  1
  F  F80  1  0.04569733  0.66666667  0.91666667  1
  F  F81  1  0.28245033  0.19230767  0.04194367  1
  F  F82  1  0.50755000  0.25622400  0.97259000  1
  F  F83  1  0.71236400  0.71236400  0.75000000  1
  F  F84  1  0.28763600  0.28763600  0.25000000  1
  F  F85  1  0.49245000  0.74377600  0.02741000  1
  F  F86  1  0.71754967  0.80769233  0.95805633  1
  F  F87  1  0.95430267  0.33333333  0.08333333  1
  F  F88  1  0.82578333  0.41534067  0.19407667  1
  F  F89  1  0.05088300  0.57652400  0.12472300  1
  F  F90  1  0.07710933  0.15911667  0.13925667  1
  F  F91  1  0.08200733  0.92289067  0.13925667  1
  F  F92  1  0.09014267  0.28245033  0.95805633  1
  F  F93  1  0.14102567  0.38421633  0.20861033  1
  F  F94  1  0.00000000  0.71236400  0.25000000  1
  F  F95  1  0.19230767  0.90985733  0.95805633  1
  F  F96  1  0.24319067  0.85897433  0.20861033  1
  F  F97  1  0.25132600  0.50755000  0.02741000  1
  F  F98  1  0.25622400  0.74867400  0.02741000  1
  F  F99  1  0.41044267  0.58465933  0.30592333  1
  F  F100  1  0.41534067  0.82578333  0.30592333  1
  F  F101  1  0.42347600  0.47435900  0.12472300  1
  F  F102  1  0.47435900  0.42347600  0.37527700  1
  F  F103  1  0.66666667  0.62096933  0.08333333  1
  F  F104  1  0.52564100  0.94911700  0.12472300  1
  F  F105  1  0.57652400  0.05088300  0.37527700  1
  F  F106  1  0.58465933  0.41044267  0.19407667  1
  F  F107  1  0.58955733  0.17421667  0.19407667  1
  F  F108  1  0.61578367  0.75680933  0.20861033  1
  F  F109  1  0.84088333  0.91799267  0.13925667  1
  F  F110  1  0.71236400  0.00000000  0.25000000  1
  F  F111  1  0.94911700  0.52564100  0.37527700  1
  F  F112  1  0.17421667  0.58955733  0.30592333  1
  F  F113  1  0.37903067  0.04569733  0.08333333  1
