# generated using pymatgen
data_LiFe5O8
_symmetry_space_group_name_H-M   'P 1'
_cell_length_a   5.83891014
_cell_length_b   5.83891014
_cell_length_c   14.26575316
_cell_angle_alpha   90.00000000
_cell_angle_beta   90.00000000
_cell_angle_gamma   120.00000000
_symmetry_Int_Tables_number   1
_chemical_formula_structural   LiFe5O8
_chemical_formula_sum   'Li3 Fe15 O24'
_cell_volume   421.20054108
_cell_formula_units_Z   3
loop_
 _symmetry_equiv_pos_site_id
 _symmetry_equiv_pos_as_xyz
  1  'x, y, z'
loop_
 _atom_site_type_symbol
 _atom_site_label
 _atom_site_symmetry_multiplicity
 _atom_site_fract_x
 _atom_site_fract_y
 _atom_site_fract_z
 _atom_site_occupancy
  Li  Li0  1  0.00000000  0.00000000  0.00000000  1
  Li  Li1  1  0.66666667  0.33333333  0.33333333  1
  Li  Li2  1  0.33333333  0.66666667  0.66666667  1
  Fe  Fe3  1  0.33333333  0.66666667  0.28680767  1
  Fe  Fe4  1  0.33333333  0.66666667  0.04652567  1
  Fe  Fe5  1  0.33333333  0.16666667  0.16666667  1
  Fe  Fe6  1  0.16666667  0.33333333  0.83333333  1
  Fe  Fe7  1  0.83333333  0.16666667  0.16666667  1
  Fe  Fe8  1  0.00000000  0.00000000  0.62014100  1
  Fe  Fe9  1  0.00000000  0.00000000  0.37985900  1
  Fe  Fe10  1  0.00000000  0.50000000  0.50000000  1
  Fe  Fe11  1  0.83333333  0.66666667  0.16666667  1
  Fe  Fe12  1  0.50000000  0.50000000  0.50000000  1
  Fe  Fe13  1  0.66666667  0.33333333  0.95347433  1
  Fe  Fe14  1  0.66666667  0.33333333  0.71319233  1
  Fe  Fe15  1  0.66666667  0.83333333  0.83333333  1
  Fe  Fe16  1  0.50000000  0.00000000  0.50000000  1
  Fe  Fe17  1  0.16666667  0.83333333  0.83333333  1
  O  O18  1  0.15647767  0.84352233  0.09227833  1
  O  O19  1  0.68704467  0.84352233  0.09227833  1
  O  O20  1  0.15647767  0.31295533  0.09227833  1
  O  O21  1  0.33333333  0.66666667  0.91026067  1
  O  O22  1  0.33333333  0.66666667  0.42307267  1
  O  O23  1  0.97962200  0.48981100  0.24105500  1
  O  O24  1  0.51018900  0.02037800  0.24105500  1
  O  O25  1  0.51018900  0.48981100  0.24105500  1
  O  O26  1  0.82314433  0.17685567  0.42561167  1
  O  O27  1  0.35371133  0.17685567  0.42561167  1
  O  O28  1  0.82314433  0.64628867  0.42561167  1
  O  O29  1  0.00000000  0.00000000  0.24359400  1
  O  O30  1  0.00000000  0.00000000  0.75640600  1
  O  O31  1  0.64628867  0.82314433  0.57438833  1
  O  O32  1  0.17685567  0.35371133  0.57438833  1
  O  O33  1  0.17685567  0.82314433  0.57438833  1
  O  O34  1  0.48981100  0.51018900  0.75894500  1
  O  O35  1  0.02037800  0.51018900  0.75894500  1
  O  O36  1  0.48981100  0.97962200  0.75894500  1
  O  O37  1  0.66666667  0.33333333  0.57692733  1
  O  O38  1  0.66666667  0.33333333  0.08973933  1
  O  O39  1  0.31295533  0.15647767  0.90772167  1
  O  O40  1  0.84352233  0.68704467  0.90772167  1
  O  O41  1  0.84352233  0.15647767  0.90772167  1
