# generated using pymatgen
data_Sr2AuN
_symmetry_space_group_name_H-M   'P 1'
_cell_length_a   3.79201000
_cell_length_b   19.21239600
_cell_length_c   5.30453800
_cell_angle_alpha   90.00000000
_cell_angle_beta   90.00000000
_cell_angle_gamma   90.00000000
_symmetry_Int_Tables_number   1
_chemical_formula_structural   Sr2AuN
_chemical_formula_sum   'Sr8 Au4 N4'
_cell_volume   386.45467773
_cell_formula_units_Z   4
loop_
 _symmetry_equiv_pos_site_id
 _symmetry_equiv_pos_as_xyz
  1  'x, y, z'
loop_
 _atom_site_type_symbol
 _atom_site_label
 _atom_site_symmetry_multiplicity
 _atom_site_fract_x
 _atom_site_fract_y
 _atom_site_fract_z
 _atom_site_occupancy
  Sr  Sr0  1  0.00000000  0.78572700  0.75000000  1
  Sr  Sr1  1  0.50000000  0.71427300  0.25000000  1
  Sr  Sr2  1  0.50000000  0.89903600  0.25000000  1
  Sr  Sr3  1  0.00000000  0.60096400  0.75000000  1
  Sr  Sr4  1  0.50000000  0.28572700  0.75000000  1
  Sr  Sr5  1  0.00000000  0.21427300  0.25000000  1
  Sr  Sr6  1  0.00000000  0.39903600  0.25000000  1
  Sr  Sr7  1  0.50000000  0.10096400  0.75000000  1
  Au  Au8  1  0.00000000  0.96014200  0.75000000  1
  Au  Au9  1  0.50000000  0.53985800  0.25000000  1
  Au  Au10  1  0.50000000  0.46014200  0.75000000  1
  Au  Au11  1  0.00000000  0.03985800  0.25000000  1
  N  N12  1  0.00000000  0.80707600  0.25000000  1
  N  N13  1  0.50000000  0.69292400  0.75000000  1
  N  N14  1  0.50000000  0.30707600  0.25000000  1
  N  N15  1  0.00000000  0.19292400  0.75000000  1
