# generated using pymatgen
data_Ba2TaCrO6
_symmetry_space_group_name_H-M   'P 1'
_cell_length_a   5.81948654
_cell_length_b   5.81948654
_cell_length_c   19.14643665
_cell_angle_alpha   90.00000000
_cell_angle_beta   90.00000000
_cell_angle_gamma   120.00000000
_symmetry_Int_Tables_number   1
_chemical_formula_structural   Ba2TaCrO6
_chemical_formula_sum   'Ba8 Ta4 Cr4 O24'
_cell_volume   561.54934739
_cell_formula_units_Z   4
loop_
 _symmetry_equiv_pos_site_id
 _symmetry_equiv_pos_as_xyz
  1  'x, y, z'
loop_
 _atom_site_type_symbol
 _atom_site_label
 _atom_site_symmetry_multiplicity
 _atom_site_fract_x
 _atom_site_fract_y
 _atom_site_fract_z
 _atom_site_occupancy
  Ba  Ba0  1  0.00000000  0.00000000  0.00000000  1
  Ba  Ba1  1  0.66666667  0.33333333  0.25000000  1
  Ba  Ba2  1  0.33333333  0.66666667  0.75000000  1
  Ba  Ba3  1  0.00000000  0.00000000  0.50000000  1
  Ba  Ba4  1  0.33333333  0.66666667  0.14205796  1
  Ba  Ba5  1  0.66666667  0.33333333  0.85794204  1
  Ba  Ba6  1  0.66666667  0.33333333  0.64205796  1
  Ba  Ba7  1  0.33333333  0.66666667  0.35794204  1
  Ta  Ta8  1  0.33333333  0.66666667  0.56341883  1
  Ta  Ta9  1  0.66666667  0.33333333  0.06341883  1
  Ta  Ta10  1  0.66666667  0.33333333  0.43658117  1
  Ta  Ta11  1  0.33333333  0.66666667  0.93658117  1
  Cr  Cr12  1  0.00000000  0.00000000  0.81861232  1
  Cr  Cr13  1  0.00000000  0.00000000  0.18138768  1
  Cr  Cr14  1  0.00000000  0.00000000  0.68138768  1
  Cr  Cr15  1  0.00000000  0.00000000  0.31861232  1
  O  O16  1  0.17065971  0.82934029  0.87992944  1
  O  O17  1  0.17065971  0.34131942  0.87992944  1
  O  O18  1  0.65868058  0.82934029  0.87992944  1
  O  O19  1  0.34131942  0.17065971  0.37992944  1
  O  O20  1  0.82934029  0.65868058  0.12007056  1
  O  O21  1  0.82934029  0.17065971  0.37992944  1
  O  O22  1  0.82934029  0.65868058  0.37992944  1
  O  O23  1  0.17065971  0.82934029  0.62007056  1
  O  O24  1  0.65868058  0.82934029  0.62007056  1
  O  O25  1  0.34131942  0.17065971  0.12007056  1
  O  O26  1  0.82934029  0.17065971  0.12007056  1
  O  O27  1  0.17065971  0.34131942  0.62007056  1
  O  O28  1  0.84971796  0.69943593  0.75000000  1
  O  O29  1  0.15028203  0.84971796  0.25000000  1
  O  O30  1  0.69943593  0.84971797  0.25000000  1
  O  O31  1  0.30056407  0.15028203  0.75000000  1
  O  O32  1  0.50000000  0.00000000  0.00000000  1
  O  O33  1  0.50000000  0.50000000  0.50000000  1
  O  O34  1  0.00000000  0.50000000  0.50000000  1
  O  O35  1  0.00000000  0.50000000  0.00000000  1
  O  O36  1  0.84971797  0.15028204  0.75000000  1
  O  O37  1  0.50000000  0.00000000  0.50000000  1
  O  O38  1  0.15028204  0.30056407  0.25000000  1
  O  O39  1  0.50000000  0.50000000  0.00000000  1
