# generated using pymatgen
data_Na3AgO2
_symmetry_space_group_name_H-M   'P 1'
_cell_length_a   5.52713200
_cell_length_b   5.99915800
_cell_length_c   11.02771200
_cell_angle_alpha   90.00000000
_cell_angle_beta   90.00000000
_cell_angle_gamma   90.00000000
_symmetry_Int_Tables_number   1
_chemical_formula_structural   Na3AgO2
_chemical_formula_sum   'Na12 Ag4 O8'
_cell_volume   365.65839803
_cell_formula_units_Z   4
loop_
 _symmetry_equiv_pos_site_id
 _symmetry_equiv_pos_as_xyz
  1  'x, y, z'
loop_
 _atom_site_type_symbol
 _atom_site_label
 _atom_site_symmetry_multiplicity
 _atom_site_fract_x
 _atom_site_fract_y
 _atom_site_fract_z
 _atom_site_occupancy
  Na  Na0  1  0.00000000  0.75000000  0.23932700  1
  Na  Na1  1  0.50000000  0.75000000  0.00000000  1
  Na  Na2  1  0.00000000  0.25000000  0.23932700  1
  Na  Na3  1  0.50000000  0.75000000  0.26067300  1
  Na  Na4  1  0.50000000  0.25000000  0.00000000  1
  Na  Na5  1  0.50000000  0.25000000  0.26067300  1
  Na  Na6  1  0.50000000  0.25000000  0.73932700  1
  Na  Na7  1  0.00000000  0.25000000  0.50000000  1
  Na  Na8  1  0.50000000  0.75000000  0.73932700  1
  Na  Na9  1  0.00000000  0.25000000  0.76067300  1
  Na  Na10  1  0.00000000  0.75000000  0.50000000  1
  Na  Na11  1  0.00000000  0.75000000  0.76067300  1
  Ag  Ag12  1  0.00000000  0.00000000  0.00000000  1
  Ag  Ag13  1  0.00000000  0.50000000  0.00000000  1
  Ag  Ag14  1  0.50000000  0.50000000  0.50000000  1
  Ag  Ag15  1  0.50000000  0.00000000  0.50000000  1
  O  O16  1  0.72642400  0.00000000  0.13546100  1
  O  O17  1  0.22642400  0.00000000  0.36453900  1
  O  O18  1  0.77357600  0.50000000  0.36453900  1
  O  O19  1  0.27357600  0.50000000  0.13546100  1
  O  O20  1  0.22642400  0.50000000  0.63546100  1
  O  O21  1  0.72642400  0.50000000  0.86453900  1
  O  O22  1  0.27357600  0.00000000  0.86453900  1
  O  O23  1  0.77357600  0.00000000  0.63546100  1
