# generated using pymatgen
data_NaYO2
_symmetry_space_group_name_H-M   'P 1'
_cell_length_a   6.68987800
_cell_length_b   13.32182400
_cell_length_c   5.99629741
_cell_angle_alpha   90.00000000
_cell_angle_beta   122.71451676
_cell_angle_gamma   90.00000000
_symmetry_Int_Tables_number   1
_chemical_formula_structural   NaYO2
_chemical_formula_sum   'Na8 Y8 O16'
_cell_volume   449.62875600
_cell_formula_units_Z   8
loop_
 _symmetry_equiv_pos_site_id
 _symmetry_equiv_pos_as_xyz
  1  'x, y, z'
loop_
 _atom_site_type_symbol
 _atom_site_label
 _atom_site_symmetry_multiplicity
 _atom_site_fract_x
 _atom_site_fract_y
 _atom_site_fract_z
 _atom_site_occupancy
  Na  Na0  1  0.50000000  0.31918000  0.75000000  1
  Na  Na1  1  0.00000000  0.05593400  0.75000000  1
  Na  Na2  1  0.00000000  0.18082000  0.25000000  1
  Na  Na3  1  0.50000000  0.44406600  0.25000000  1
  Na  Na4  1  0.00000000  0.81918000  0.75000000  1
  Na  Na5  1  0.50000000  0.55593400  0.75000000  1
  Na  Na6  1  0.50000000  0.68082000  0.25000000  1
  Na  Na7  1  0.00000000  0.94406600  0.25000000  1
  Y  Y8  1  0.00000000  0.43296000  0.25000000  1
  Y  Y9  1  0.50000000  0.06704000  0.75000000  1
  Y  Y10  1  0.50000000  0.19318300  0.25000000  1
  Y  Y11  1  0.00000000  0.30681700  0.75000000  1
  Y  Y12  1  0.50000000  0.93296000  0.25000000  1
  Y  Y13  1  0.00000000  0.56704000  0.75000000  1
  Y  Y14  1  0.00000000  0.69318300  0.25000000  1
  Y  Y15  1  0.50000000  0.80681700  0.75000000  1
  O  O16  1  0.20589550  0.43645450  0.70628000  1
  O  O17  1  0.79410450  0.43645450  0.79372000  1
  O  O18  1  0.29410450  0.06354550  0.29372000  1
  O  O19  1  0.70589550  0.06354550  0.20628000  1
  O  O20  1  0.72873950  0.18802950  0.70799700  1
  O  O21  1  0.22873950  0.31197050  0.20799700  1
  O  O22  1  0.77126050  0.31197050  0.29200300  1
  O  O23  1  0.27126050  0.18802950  0.79200300  1
  O  O24  1  0.70589550  0.93645450  0.70628000  1
  O  O25  1  0.29410450  0.93645450  0.79372000  1
  O  O26  1  0.79410450  0.56354550  0.29372000  1
  O  O27  1  0.20589550  0.56354550  0.20628000  1
  O  O28  1  0.22873950  0.68802950  0.70799700  1
  O  O29  1  0.72873950  0.81197050  0.20799700  1
  O  O30  1  0.27126050  0.81197050  0.29200300  1
  O  O31  1  0.77126050  0.68802950  0.79200300  1
