# generated using pymatgen
data_LiNi(PO3)4
_symmetry_space_group_name_H-M   'P 1'
_cell_length_a   9.43011600
_cell_length_b   13.53387800
_cell_length_c   7.81759183
_cell_angle_alpha   90.00000000
_cell_angle_beta   102.51383163
_cell_angle_gamma   90.00000000
_symmetry_Int_Tables_number   1
_chemical_formula_structural   LiNi(PO3)4
_chemical_formula_sum   'Li4 Ni4 P16 O48'
_cell_volume   974.02597998
_cell_formula_units_Z   4
loop_
 _symmetry_equiv_pos_site_id
 _symmetry_equiv_pos_as_xyz
  1  'x, y, z'
loop_
 _atom_site_type_symbol
 _atom_site_label
 _atom_site_symmetry_multiplicity
 _atom_site_fract_x
 _atom_site_fract_y
 _atom_site_fract_z
 _atom_site_occupancy
  Li  Li0  1  0.34581300  0.15374100  0.25965000  1
  Li  Li1  1  0.34581300  0.84625900  0.75965000  1
  Li  Li2  1  0.84581300  0.65374100  0.25965000  1
  Li  Li3  1  0.84581300  0.34625900  0.75965000  1
  Ni  Ni4  1  0.50183750  0.37116850  0.74535500  1
  Ni  Ni5  1  0.50183750  0.62883150  0.24535500  1
  Ni  Ni6  1  0.00183750  0.87116850  0.74535500  1
  Ni  Ni7  1  0.00183750  0.12883150  0.24535500  1
  P  P8  1  0.40580800  0.82815100  0.38227800  1
  P  P9  1  0.87119150  0.07789450  0.81907900  1
  P  P10  1  0.13079600  0.92138500  0.16613600  1
  P  P11  1  0.13079600  0.07861500  0.66613600  1
  P  P12  1  0.40580800  0.17184900  0.88227800  1
  P  P13  1  0.87119150  0.92210550  0.31907900  1
  P  P14  1  0.59030300  0.16708200  0.63459500  1
  P  P15  1  0.59030300  0.83291800  0.13459500  1
  P  P16  1  0.90580800  0.32815100  0.38227800  1
  P  P17  1  0.37119150  0.57789450  0.81907900  1
  P  P18  1  0.63079600  0.42138500  0.16613600  1
  P  P19  1  0.63079600  0.57861500  0.66613600  1
  P  P20  1  0.90580800  0.67184900  0.88227800  1
  P  P21  1  0.37119150  0.42210550  0.31907900  1
  P  P22  1  0.09030300  0.66708200  0.63459500  1
  P  P23  1  0.09030300  0.33291800  0.13459500  1
  O  O24  1  0.26148750  0.89294450  0.32204100  1
  O  O25  1  0.49814250  0.37571550  0.23644800  1
  O  O26  1  0.51613350  0.11742650  0.78175000  1
  O  O27  1  0.12413800  0.03434900  0.16584500  1
  O  O28  1  0.63702450  0.27355450  0.69411100  1
  O  O29  1  0.37313450  0.27462550  0.80155500  1
  O  O30  1  0.49814250  0.62428450  0.73644800  1
  O  O31  1  0.12413800  0.96565100  0.66584500  1
  O  O32  1  0.50382050  0.15215550  0.45566500  1
  O  O33  1  0.86009400  0.12959300  0.98488100  1
  O  O34  1  0.73634550  0.89578450  0.16195900  1
  O  O35  1  0.88560550  0.03370250  0.33048800  1
  O  O36  1  0.26148750  0.10705550  0.82204100  1
  O  O37  1  0.63702450  0.72644550  0.19411100  1
  O  O38  1  0.44958700  0.84105700  0.57404300  1
  O  O39  1  0.14645000  0.12605100  0.49802300  1
  O  O40  1  0.50382050  0.84784450  0.95566500  1
  O  O41  1  0.14645000  0.87394900  0.99802300  1
  O  O42  1  0.86009400  0.87040700  0.48488100  1
  O  O43  1  0.88560550  0.96629750  0.83048800  1
  O  O44  1  0.51613350  0.88257350  0.28175000  1
  O  O45  1  0.73634550  0.10421550  0.66195900  1
  O  O46  1  0.37313450  0.72537450  0.30155500  1
  O  O47  1  0.44958700  0.15894300  0.07404300  1
  O  O48  1  0.76148750  0.39294450  0.32204100  1
  O  O49  1  0.99814250  0.87571550  0.23644800  1
  O  O50  1  0.01613350  0.61742650  0.78175000  1
  O  O51  1  0.62413800  0.53434900  0.16584500  1
  O  O52  1  0.13702450  0.77355450  0.69411100  1
  O  O53  1  0.87313450  0.77462550  0.80155500  1
  O  O54  1  0.99814250  0.12428450  0.73644800  1
  O  O55  1  0.62413800  0.46565100  0.66584500  1
  O  O56  1  0.00382050  0.65215550  0.45566500  1
  O  O57  1  0.36009400  0.62959300  0.98488100  1
  O  O58  1  0.23634550  0.39578450  0.16195900  1
  O  O59  1  0.38560550  0.53370250  0.33048800  1
  O  O60  1  0.76148750  0.60705550  0.82204100  1
  O  O61  1  0.13702450  0.22644550  0.19411100  1
  O  O62  1  0.94958700  0.34105700  0.57404300  1
  O  O63  1  0.64645000  0.62605100  0.49802300  1
  O  O64  1  0.00382050  0.34784450  0.95566500  1
  O  O65  1  0.64645000  0.37394900  0.99802300  1
  O  O66  1  0.36009400  0.37040700  0.48488100  1
  O  O67  1  0.38560550  0.46629750  0.83048800  1
  O  O68  1  0.01613350  0.38257350  0.28175000  1
  O  O69  1  0.23634550  0.60421550  0.66195900  1
  O  O70  1  0.87313450  0.22537450  0.30155500  1
  O  O71  1  0.94958700  0.65894300  0.07404300  1
