# generated using pymatgen
data_BrO2F
_symmetry_space_group_name_H-M   'P 1'
_cell_length_a   9.36830600
_cell_length_b   5.37657600
_cell_length_c   6.69900289
_cell_angle_alpha   90.00000000
_cell_angle_beta   118.47614001
_cell_angle_gamma   90.00000000
_symmetry_Int_Tables_number   1
_chemical_formula_structural   BrO2F
_chemical_formula_sum   'Br4 O8 F4'
_cell_volume   296.60172679
_cell_formula_units_Z   4
loop_
 _symmetry_equiv_pos_site_id
 _symmetry_equiv_pos_as_xyz
  1  'x, y, z'
loop_
 _atom_site_type_symbol
 _atom_site_label
 _atom_site_symmetry_multiplicity
 _atom_site_fract_x
 _atom_site_fract_y
 _atom_site_fract_z
 _atom_site_occupancy
  Br  Br0  1  0.48819800  0.26527100  0.24860800  1
  Br  Br1  1  0.48819800  0.73472900  0.74860800  1
  Br  Br2  1  0.98819800  0.76527100  0.24860800  1
  Br  Br3  1  0.98819800  0.23472900  0.74860800  1
  O  O4  1  0.31953650  0.89353250  0.63208500  1
  O  O5  1  0.46364150  0.46245050  0.63004600  1
  O  O6  1  0.31953650  0.10646750  0.13208500  1
  O  O7  1  0.46364150  0.53754950  0.13004600  1
  O  O8  1  0.81953650  0.39353250  0.63208500  1
  O  O9  1  0.96364150  0.96245050  0.63004600  1
  O  O10  1  0.81953650  0.60646750  0.13208500  1
  O  O11  1  0.96364150  0.03754950  0.13004600  1
  F  F12  1  0.60742400  0.89909700  0.62566000  1
  F  F13  1  0.10742400  0.60090300  0.12566000  1
  F  F14  1  0.10742400  0.39909700  0.62566000  1
  F  F15  1  0.60742400  0.10090300  0.12566000  1
