# generated using pymatgen
data_Mg(GaO2)2
_symmetry_space_group_name_H-M   'P 1'
_cell_length_a   5.88320200
_cell_length_b   5.98998000
_cell_length_c   8.34626800
_cell_angle_alpha   90.00000000
_cell_angle_beta   90.00000000
_cell_angle_gamma   90.00000000
_symmetry_Int_Tables_number   1
_chemical_formula_structural   Mg(GaO2)2
_chemical_formula_sum   'Mg4 Ga8 O16'
_cell_volume   294.12467368
_cell_formula_units_Z   4
loop_
 _symmetry_equiv_pos_site_id
 _symmetry_equiv_pos_as_xyz
  1  'x, y, z'
loop_
 _atom_site_type_symbol
 _atom_site_label
 _atom_site_symmetry_multiplicity
 _atom_site_fract_x
 _atom_site_fract_y
 _atom_site_fract_z
 _atom_site_occupancy
  Mg  Mg0  1  0.25000000  0.25000000  0.25000000  1
  Mg  Mg1  1  0.75000000  0.25000000  0.25000000  1
  Mg  Mg2  1  0.75000000  0.75000000  0.75000000  1
  Mg  Mg3  1  0.25000000  0.75000000  0.75000000  1
  Ga  Ga4  1  0.50000000  0.25000000  0.63515000  1
  Ga  Ga5  1  0.50000000  0.75000000  0.36485000  1
  Ga  Ga6  1  0.50000000  0.00000000  0.00000000  1
  Ga  Ga7  1  0.00000000  0.00000000  0.50000000  1
  Ga  Ga8  1  0.00000000  0.75000000  0.13515000  1
  Ga  Ga9  1  0.00000000  0.25000000  0.86485000  1
  Ga  Ga10  1  0.00000000  0.50000000  0.50000000  1
  Ga  Ga11  1  0.50000000  0.50000000  0.00000000  1
  O  O12  1  0.50000000  0.00925050  0.23815450  1
  O  O13  1  0.00000000  0.99074950  0.73815450  1
  O  O14  1  0.76392100  0.75000000  0.50086100  1
  O  O15  1  0.23607900  0.75000000  0.50086100  1
  O  O16  1  0.76392100  0.25000000  0.49913900  1
  O  O17  1  0.23607900  0.25000000  0.49913900  1
  O  O18  1  0.00000000  0.00925050  0.26184550  1
  O  O19  1  0.50000000  0.99074950  0.76184550  1
  O  O20  1  0.00000000  0.50925050  0.73815450  1
  O  O21  1  0.50000000  0.49074950  0.23815450  1
  O  O22  1  0.26392100  0.25000000  0.00086100  1
  O  O23  1  0.73607900  0.25000000  0.00086100  1
  O  O24  1  0.26392100  0.75000000  0.99913900  1
  O  O25  1  0.73607900  0.75000000  0.99913900  1
  O  O26  1  0.50000000  0.50925050  0.76184550  1
  O  O27  1  0.00000000  0.49074950  0.26184550  1
