# generated using pymatgen
data_LiNdSe2
_symmetry_space_group_name_H-M   'P 1'
_cell_length_a   5.87823600
_cell_length_b   5.87823600
_cell_length_c   11.81938200
_cell_angle_alpha   90.00000000
_cell_angle_beta   90.00000000
_cell_angle_gamma   90.00000000
_symmetry_Int_Tables_number   1
_chemical_formula_structural   LiNdSe2
_chemical_formula_sum   'Li4 Nd4 Se8'
_cell_volume   408.40288897
_cell_formula_units_Z   4
loop_
 _symmetry_equiv_pos_site_id
 _symmetry_equiv_pos_as_xyz
  1  'x, y, z'
loop_
 _atom_site_type_symbol
 _atom_site_label
 _atom_site_symmetry_multiplicity
 _atom_site_fract_x
 _atom_site_fract_y
 _atom_site_fract_z
 _atom_site_occupancy
  Li  Li0  1  0.50000000  0.50000000  0.00000000  1
  Li  Li1  1  0.50000000  0.00000000  0.25000000  1
  Li  Li2  1  0.00000000  0.00000000  0.50000000  1
  Li  Li3  1  0.00000000  0.50000000  0.75000000  1
  Nd  Nd4  1  0.00000000  0.00000000  0.00000000  1
  Nd  Nd5  1  0.00000000  0.50000000  0.25000000  1
  Nd  Nd6  1  0.50000000  0.50000000  0.50000000  1
  Nd  Nd7  1  0.50000000  0.00000000  0.75000000  1
  Se  Se8  1  0.50000000  0.50000000  0.25003700  1
  Se  Se9  1  0.00000000  0.50000000  0.00003700  1
  Se  Se10  1  0.00000000  0.00000000  0.24996300  1
  Se  Se11  1  0.00000000  0.50000000  0.49996300  1
  Se  Se12  1  0.00000000  0.00000000  0.75003700  1
  Se  Se13  1  0.50000000  0.00000000  0.50003700  1
  Se  Se14  1  0.50000000  0.50000000  0.74996300  1
  Se  Se15  1  0.50000000  0.00000000  0.99996300  1
