# generated using pymatgen
data_BaSc2O4
_symmetry_space_group_name_H-M   'P 1'
_cell_length_a   9.92665600
_cell_length_b   5.87734000
_cell_length_c   20.74012916
_cell_angle_alpha   90.00000000
_cell_angle_beta   90.03627237
_cell_angle_gamma   90.00000000
_symmetry_Int_Tables_number   1
_chemical_formula_structural   BaSc2O4
_chemical_formula_sum   'Ba12 Sc24 O48'
_cell_volume   1210.02726625
_cell_formula_units_Z   12
loop_
 _symmetry_equiv_pos_site_id
 _symmetry_equiv_pos_as_xyz
  1  'x, y, z'
loop_
 _atom_site_type_symbol
 _atom_site_label
 _atom_site_symmetry_multiplicity
 _atom_site_fract_x
 _atom_site_fract_y
 _atom_site_fract_z
 _atom_site_occupancy
  Ba  Ba0  1  0.83442100  0.89215500  0.36238300  1
  Ba  Ba1  1  0.16557900  0.89215500  0.13761700  1
  Ba  Ba2  1  0.16557900  0.10784500  0.63761700  1
  Ba  Ba3  1  0.83442100  0.10784500  0.86238300  1
  Ba  Ba4  1  0.50000000  0.89261800  0.25000000  1
  Ba  Ba5  1  0.50000000  0.10738200  0.75000000  1
  Ba  Ba6  1  0.33442100  0.39215500  0.36238300  1
  Ba  Ba7  1  0.66557900  0.39215500  0.13761700  1
  Ba  Ba8  1  0.66557900  0.60784500  0.63761700  1
  Ba  Ba9  1  0.33442100  0.60784500  0.86238300  1
  Ba  Ba10  1  0.00000000  0.39261800  0.25000000  1
  Ba  Ba11  1  0.00000000  0.60738200  0.75000000  1
  Sc  Sc12  1  0.83701050  0.87883450  0.05269600  1
  Sc  Sc13  1  0.16298950  0.87883450  0.44730400  1
  Sc  Sc14  1  0.16298950  0.12116550  0.94730400  1
  Sc  Sc15  1  0.83701050  0.12116550  0.55269600  1
  Sc  Sc16  1  0.50178100  0.88518400  0.42940400  1
  Sc  Sc17  1  0.49821900  0.88518400  0.07059600  1
  Sc  Sc18  1  0.49821900  0.11481600  0.57059600  1
  Sc  Sc19  1  0.50178100  0.11481600  0.92940400  1
  Sc  Sc20  1  0.83151550  0.89179550  0.19530400  1
  Sc  Sc21  1  0.16848450  0.89179550  0.30469600  1
  Sc  Sc22  1  0.16848450  0.10820450  0.80469600  1
  Sc  Sc23  1  0.83151550  0.10820450  0.69530400  1
  Sc  Sc24  1  0.33701050  0.37883450  0.05269600  1
  Sc  Sc25  1  0.66298950  0.37883450  0.44730400  1
  Sc  Sc26  1  0.66298950  0.62116550  0.94730400  1
  Sc  Sc27  1  0.33701050  0.62116550  0.55269600  1
  Sc  Sc28  1  0.00178100  0.38518400  0.42940400  1
  Sc  Sc29  1  0.99821900  0.38518400  0.07059600  1
  Sc  Sc30  1  0.99821900  0.61481600  0.57059600  1
  Sc  Sc31  1  0.00178100  0.61481600  0.92940400  1
  Sc  Sc32  1  0.33151550  0.39179550  0.19530400  1
  Sc  Sc33  1  0.66848450  0.39179550  0.30469600  1
  Sc  Sc34  1  0.66848450  0.60820450  0.80469600  1
  Sc  Sc35  1  0.33151550  0.60820450  0.69530400  1
  O  O36  1  0.66981650  0.85240550  0.12462900  1
  O  O37  1  0.33018350  0.85240550  0.37537100  1
  O  O38  1  0.33018350  0.14759450  0.87537100  1
  O  O39  1  0.66981650  0.14759450  0.62462900  1
  O  O40  1  0.50000000  0.42684900  0.25000000  1
  O  O41  1  0.50000000  0.57315100  0.75000000  1
  O  O42  1  0.00000000  0.00000000  0.00000000  1
  O  O43  1  0.00000000  0.00000000  0.50000000  1
  O  O44  1  0.26359300  0.13329500  0.25146300  1
  O  O45  1  0.73640700  0.13329500  0.24853700  1
  O  O46  1  0.73640700  0.86670500  0.74853700  1
  O  O47  1  0.26359300  0.86670500  0.75146300  1
  O  O48  1  0.43234950  0.16191150  0.12360400  1
  O  O49  1  0.56765050  0.16191150  0.37639600  1
  O  O50  1  0.56765050  0.83808850  0.87639600  1
  O  O51  1  0.43234950  0.83808850  0.62360400  1
  O  O52  1  0.34759100  0.05495300  0.00334700  1
  O  O53  1  0.65240900  0.05495300  0.49665300  1
  O  O54  1  0.60712950  0.35698750  0.88106100  1
  O  O55  1  0.39287050  0.35698750  0.61893900  1
  O  O56  1  0.39287050  0.64301250  0.11893900  1
  O  O57  1  0.60712950  0.64301250  0.38106100  1
  O  O58  1  0.34759100  0.94504700  0.50334700  1
  O  O59  1  0.65240900  0.94504700  0.99665300  1
  O  O60  1  0.16981650  0.35240550  0.12462900  1
  O  O61  1  0.83018350  0.35240550  0.37537100  1
  O  O62  1  0.83018350  0.64759450  0.87537100  1
  O  O63  1  0.16981650  0.64759450  0.62462900  1
  O  O64  1  0.00000000  0.92684900  0.25000000  1
  O  O65  1  0.00000000  0.07315100  0.75000000  1
  O  O66  1  0.50000000  0.50000000  0.00000000  1
  O  O67  1  0.50000000  0.50000000  0.50000000  1
  O  O68  1  0.76359300  0.63329500  0.25146300  1
  O  O69  1  0.23640700  0.63329500  0.24853700  1
  O  O70  1  0.23640700  0.36670500  0.74853700  1
  O  O71  1  0.76359300  0.36670500  0.75146300  1
  O  O72  1  0.93234950  0.66191150  0.12360400  1
  O  O73  1  0.06765050  0.66191150  0.37639600  1
  O  O74  1  0.06765050  0.33808850  0.87639600  1
  O  O75  1  0.93234950  0.33808850  0.62360400  1
  O  O76  1  0.84759100  0.55495300  0.00334700  1
  O  O77  1  0.15240900  0.55495300  0.49665300  1
  O  O78  1  0.10712950  0.85698750  0.88106100  1
  O  O79  1  0.89287050  0.85698750  0.61893900  1
  O  O80  1  0.89287050  0.14301250  0.11893900  1
  O  O81  1  0.10712950  0.14301250  0.38106100  1
  O  O82  1  0.84759100  0.44504700  0.50334700  1
  O  O83  1  0.15240900  0.44504700  0.99665300  1
