# generated using pymatgen
data_SrTe3O8
_symmetry_space_group_name_H-M   'P 1'
_cell_length_a   6.96432200
_cell_length_b   6.96432200
_cell_length_c   6.85824100
_cell_angle_alpha   90.00000000
_cell_angle_beta   90.00000000
_cell_angle_gamma   90.00000000
_symmetry_Int_Tables_number   1
_chemical_formula_structural   SrTe3O8
_chemical_formula_sum   'Sr2 Te6 O16'
_cell_volume   332.63690248
_cell_formula_units_Z   2
loop_
 _symmetry_equiv_pos_site_id
 _symmetry_equiv_pos_as_xyz
  1  'x, y, z'
loop_
 _atom_site_type_symbol
 _atom_site_label
 _atom_site_symmetry_multiplicity
 _atom_site_fract_x
 _atom_site_fract_y
 _atom_site_fract_z
 _atom_site_occupancy
  Sr  Sr0  1  0.00000000  0.00000000  0.25000000  1
  Sr  Sr1  1  0.00000000  0.00000000  0.75000000  1
  Te  Te2  1  0.56572000  0.78479900  0.00000000  1
  Te  Te3  1  0.21520100  0.56572000  0.50000000  1
  Te  Te4  1  0.78479900  0.43428000  0.50000000  1
  Te  Te5  1  0.43428000  0.21520100  0.00000000  1
  Te  Te6  1  0.00000000  0.50000000  0.00000000  1
  Te  Te7  1  0.50000000  0.00000000  0.50000000  1
  O  O8  1  0.32238000  0.95376500  0.00000000  1
  O  O9  1  0.04623500  0.32238000  0.50000000  1
  O  O10  1  0.95376500  0.67762000  0.50000000  1
  O  O11  1  0.67762000  0.04623500  0.00000000  1
  O  O12  1  0.88288300  0.75691700  0.00000000  1
  O  O13  1  0.24308300  0.88288300  0.50000000  1
  O  O14  1  0.75691700  0.11711700  0.50000000  1
  O  O15  1  0.11711700  0.24308300  0.00000000  1
  O  O16  1  0.41217100  0.18795800  0.30602200  1
  O  O17  1  0.81204200  0.41217100  0.80602200  1
  O  O18  1  0.18795800  0.58782900  0.80602200  1
  O  O19  1  0.58782900  0.81204200  0.30602200  1
  O  O20  1  0.58782900  0.81204200  0.69397800  1
  O  O21  1  0.18795800  0.58782900  0.19397800  1
  O  O22  1  0.81204200  0.41217100  0.19397800  1
  O  O23  1  0.41217100  0.18795800  0.69397800  1
