# generated using pymatgen
data_BaLaI4
_symmetry_space_group_name_H-M   'P 1'
_cell_length_a   10.51530000
_cell_length_b   15.30392400
_cell_length_c   7.56438582
_cell_angle_alpha   90.00000000
_cell_angle_beta   122.85366902
_cell_angle_gamma   90.00000000
_symmetry_Int_Tables_number   1
_chemical_formula_structural   BaLaI4
_chemical_formula_sum   'Ba4 La4 I16'
_cell_volume   1022.60481636
_cell_formula_units_Z   4
loop_
 _symmetry_equiv_pos_site_id
 _symmetry_equiv_pos_as_xyz
  1  'x, y, z'
loop_
 _atom_site_type_symbol
 _atom_site_label
 _atom_site_symmetry_multiplicity
 _atom_site_fract_x
 _atom_site_fract_y
 _atom_site_fract_z
 _atom_site_occupancy
  Ba  Ba0  1  0.00000000  0.36569300  0.75000000  1
  Ba  Ba1  1  0.50000000  0.13430700  0.25000000  1
  Ba  Ba2  1  0.50000000  0.86569300  0.75000000  1
  Ba  Ba3  1  0.00000000  0.63430700  0.25000000  1
  La  La4  1  0.50000000  0.49929600  0.25000000  1
  La  La5  1  0.00000000  0.00070400  0.75000000  1
  La  La6  1  0.00000000  0.99929600  0.25000000  1
  La  La7  1  0.50000000  0.50070400  0.75000000  1
  I  I8  1  0.70471400  0.06298000  0.77982000  1
  I  I9  1  0.29528600  0.06298000  0.72018000  1
  I  I10  1  0.79528600  0.43702000  0.22018000  1
  I  I11  1  0.20471400  0.43702000  0.27982000  1
  I  I12  1  0.88417600  0.17325900  0.41508400  1
  I  I13  1  0.11582400  0.17325900  0.08491600  1
  I  I14  1  0.61582400  0.32674100  0.58491600  1
  I  I15  1  0.38417600  0.32674100  0.91508400  1
  I  I16  1  0.20471400  0.56298000  0.77982000  1
  I  I17  1  0.79528600  0.56298000  0.72018000  1
  I  I18  1  0.29528600  0.93702000  0.22018000  1
  I  I19  1  0.70471400  0.93702000  0.27982000  1
  I  I20  1  0.38417600  0.67325900  0.41508400  1
  I  I21  1  0.61582400  0.67325900  0.08491600  1
  I  I22  1  0.11582400  0.82674100  0.58491600  1
  I  I23  1  0.88417600  0.82674100  0.91508400  1
