# generated using pymatgen
data_LiTaO3
_symmetry_space_group_name_H-M   'P 1'
_cell_length_a   5.20829011
_cell_length_b   5.20829011
_cell_length_c   13.93662447
_cell_angle_alpha   90.00000000
_cell_angle_beta   90.00000000
_cell_angle_gamma   120.00000000
_symmetry_Int_Tables_number   1
_chemical_formula_structural   LiTaO3
_chemical_formula_sum   'Li6 Ta6 O18'
_cell_volume   327.39991657
_cell_formula_units_Z   6
loop_
 _symmetry_equiv_pos_site_id
 _symmetry_equiv_pos_as_xyz
  1  'x, y, z'
loop_
 _atom_site_type_symbol
 _atom_site_label
 _atom_site_symmetry_multiplicity
 _atom_site_fract_x
 _atom_site_fract_y
 _atom_site_fract_z
 _atom_site_occupancy
  Li  Li0  1  0.66666667  0.33333333  0.05107633  1
  Li  Li1  1  0.00000000  0.00000000  0.21774300  1
  Li  Li2  1  0.33333333  0.66666667  0.38440967  1
  Li  Li3  1  0.66666667  0.33333333  0.55107633  1
  Li  Li4  1  0.00000000  0.00000000  0.71774300  1
  Li  Li5  1  0.33333333  0.66666667  0.88440967  1
  Ta  Ta6  1  0.00000000  0.00000000  0.00055300  1
  Ta  Ta7  1  0.33333333  0.66666667  0.16721967  1
  Ta  Ta8  1  0.66666667  0.33333333  0.33388633  1
  Ta  Ta9  1  0.00000000  0.00000000  0.50055300  1
  Ta  Ta10  1  0.33333333  0.66666667  0.66721967  1
  Ta  Ta11  1  0.66666667  0.33333333  0.83388633  1
  O  O12  1  0.04151267  0.32382033  0.09783433  1
  O  O13  1  0.37484600  0.38435900  0.26450100  1
  O  O14  1  0.00951300  0.62515400  0.26450100  1
  O  O15  1  0.61564100  0.99048700  0.26450100  1
  O  O16  1  0.67617967  0.71769233  0.09783433  1
  O  O17  1  0.28230767  0.95848733  0.09783433  1
  O  O18  1  0.70817933  0.65715367  0.43116767  1
  O  O19  1  0.04151267  0.71769233  0.59783433  1
  O  O20  1  0.67617967  0.95848733  0.59783433  1
  O  O21  1  0.28230767  0.32382033  0.59783433  1
  O  O22  1  0.34284633  0.05102567  0.43116767  1
  O  O23  1  0.94897433  0.29182067  0.43116767  1
  O  O24  1  0.37484600  0.99048700  0.76450100  1
  O  O25  1  0.70817933  0.05102567  0.93116767  1
  O  O26  1  0.34284633  0.29182067  0.93116767  1
  O  O27  1  0.94897433  0.65715367  0.93116767  1
  O  O28  1  0.00951300  0.38435900  0.76450100  1
  O  O29  1  0.61564100  0.62515400  0.76450100  1
