# generated using pymatgen
data_Dy3S2Cl5
_symmetry_space_group_name_H-M   'P 1'
_cell_length_a   6.38704200
_cell_length_b   6.81623600
_cell_length_c   21.81445800
_cell_angle_alpha   90.00000000
_cell_angle_beta   90.00000000
_cell_angle_gamma   90.00000000
_symmetry_Int_Tables_number   1
_chemical_formula_structural   Dy3S2Cl5
_chemical_formula_sum   'Dy12 S8 Cl20'
_cell_volume   949.70520388
_cell_formula_units_Z   4
loop_
 _symmetry_equiv_pos_site_id
 _symmetry_equiv_pos_as_xyz
  1  'x, y, z'
loop_
 _atom_site_type_symbol
 _atom_site_label
 _atom_site_symmetry_multiplicity
 _atom_site_fract_x
 _atom_site_fract_y
 _atom_site_fract_z
 _atom_site_occupancy
  Dy  Dy0  1  0.04911200  0.38001500  0.40190100  1
  Dy  Dy1  1  0.54911200  0.11998500  0.59809900  1
  Dy  Dy2  1  0.45088800  0.88001500  0.09809900  1
  Dy  Dy3  1  0.95088800  0.61998500  0.90190100  1
  Dy  Dy4  1  0.95088800  0.61998500  0.59809900  1
  Dy  Dy5  1  0.45088800  0.88001500  0.40190100  1
  Dy  Dy6  1  0.54911200  0.11998500  0.90190100  1
  Dy  Dy7  1  0.04911200  0.38001500  0.09809900  1
  Dy  Dy8  1  0.55040800  0.53746400  0.75000000  1
  Dy  Dy9  1  0.05040800  0.96253600  0.25000000  1
  Dy  Dy10  1  0.94959200  0.03746400  0.75000000  1
  Dy  Dy11  1  0.44959200  0.46253600  0.25000000  1
  S  S12  1  0.80829400  0.32856900  0.67233000  1
  S  S13  1  0.30829400  0.17143100  0.17233000  1
  S  S14  1  0.80829400  0.32856900  0.82767000  1
  S  S15  1  0.19170600  0.67143100  0.32767000  1
  S  S16  1  0.69170600  0.82856900  0.67233000  1
  S  S17  1  0.69170600  0.82856900  0.82767000  1
  S  S18  1  0.19170600  0.67143100  0.17233000  1
  S  S19  1  0.30829400  0.17143100  0.32767000  1
  Cl  Cl20  1  0.15454400  0.68238500  0.75000000  1
  Cl  Cl21  1  0.65454400  0.81761500  0.25000000  1
  Cl  Cl22  1  0.34545600  0.18238500  0.75000000  1
  Cl  Cl23  1  0.84545600  0.31761500  0.25000000  1
  Cl  Cl24  1  0.83489100  0.03873300  0.11738700  1
  Cl  Cl25  1  0.83489100  0.03873300  0.38261300  1
  Cl  Cl26  1  0.33489100  0.46126700  0.88261300  1
  Cl  Cl27  1  0.66510900  0.53873300  0.38261300  1
  Cl  Cl28  1  0.16510900  0.96126700  0.61738700  1
  Cl  Cl29  1  0.16510900  0.96126700  0.88261300  1
  Cl  Cl30  1  0.66510900  0.53873300  0.11738700  1
  Cl  Cl31  1  0.33489100  0.46126700  0.61738700  1
  Cl  Cl32  1  0.32332900  0.16762700  0.02018500  1
  Cl  Cl33  1  0.82332900  0.33237300  0.97981500  1
  Cl  Cl34  1  0.17667100  0.66762700  0.47981500  1
  Cl  Cl35  1  0.67667100  0.83237300  0.52018500  1
  Cl  Cl36  1  0.67667100  0.83237300  0.97981500  1
  Cl  Cl37  1  0.17667100  0.66762700  0.02018500  1
  Cl  Cl38  1  0.82332900  0.33237300  0.52018500  1
  Cl  Cl39  1  0.32332900  0.16762700  0.47981500  1
