# generated using pymatgen
data_Al2FeO4
_symmetry_space_group_name_H-M   'P 1'
_cell_length_a   5.70540648
_cell_length_b   5.87570628
_cell_length_c   8.26663363
_cell_angle_alpha   90.00000000
_cell_angle_beta   90.00000000
_cell_angle_gamma   90.00000000
_symmetry_Int_Tables_number   1
_chemical_formula_structural   Al2FeO4
_chemical_formula_sum   'Al8 Fe4 O16'
_cell_volume   277.12477899
_cell_formula_units_Z   4
loop_
 _symmetry_equiv_pos_site_id
 _symmetry_equiv_pos_as_xyz
  1  'x, y, z'
loop_
 _atom_site_type_symbol
 _atom_site_label
 _atom_site_symmetry_multiplicity
 _atom_site_fract_x
 _atom_site_fract_y
 _atom_site_fract_z
 _atom_site_occupancy
  Al  Al0  1  0.50000000  0.25000000  0.13548950  1
  Al  Al1  1  0.50000000  0.75000000  0.86451050  1
  Al  Al2  1  0.00000000  0.00000000  0.00000000  1
  Al  Al3  1  0.00000000  0.50000000  0.00000000  1
  Al  Al4  1  0.00000000  0.75000000  0.63548950  1
  Al  Al5  1  0.00000000  0.25000000  0.36451050  1
  Al  Al6  1  0.50000000  0.50000000  0.50000000  1
  Al  Al7  1  0.50000000  0.00000000  0.50000000  1
  Fe  Fe8  1  0.25000000  0.25000000  0.75000000  1
  Fe  Fe9  1  0.25000000  0.75000000  0.25000000  1
  Fe  Fe10  1  0.75000000  0.75000000  0.25000000  1
  Fe  Fe11  1  0.75000000  0.25000000  0.75000000  1
  O  O12  1  0.50000000  0.49208500  0.26833100  1
  O  O13  1  0.00000000  0.50791500  0.76833100  1
  O  O14  1  0.00000000  0.49208500  0.23166900  1
  O  O15  1  0.50000000  0.50791500  0.73166900  1
  O  O16  1  0.23544600  0.25000000  0.00754000  1
  O  O17  1  0.76455400  0.25000000  0.00754000  1
  O  O18  1  0.23544600  0.75000000  0.99246000  1
  O  O19  1  0.76455400  0.75000000  0.99246000  1
  O  O20  1  0.00000000  0.99208500  0.76833100  1
  O  O21  1  0.50000000  0.00791500  0.26833100  1
  O  O22  1  0.50000000  0.99208500  0.73166900  1
  O  O23  1  0.00000000  0.00791500  0.23166900  1
  O  O24  1  0.73544600  0.75000000  0.50754000  1
  O  O25  1  0.26455400  0.75000000  0.50754000  1
  O  O26  1  0.73544600  0.25000000  0.49246000  1
  O  O27  1  0.26455400  0.25000000  0.49246000  1
