# generated using pymatgen
data_Sm2CdSe4
_symmetry_space_group_name_H-M   'P 1'
_cell_length_a   8.77444600
_cell_length_b   8.77444600
_cell_length_c   9.16753600
_cell_angle_alpha   90.00000000
_cell_angle_beta   90.00000000
_cell_angle_gamma   90.00000000
_symmetry_Int_Tables_number   1
_chemical_formula_structural   Sm2CdSe4
_chemical_formula_sum   'Sm8 Cd4 Se16'
_cell_volume   705.81687132
_cell_formula_units_Z   4
loop_
 _symmetry_equiv_pos_site_id
 _symmetry_equiv_pos_as_xyz
  1  'x, y, z'
loop_
 _atom_site_type_symbol
 _atom_site_label
 _atom_site_symmetry_multiplicity
 _atom_site_fract_x
 _atom_site_fract_y
 _atom_site_fract_z
 _atom_site_occupancy
  Sm  Sm0  1  0.63531500  0.25000000  0.12500000  1
  Sm  Sm1  1  0.25000000  0.36468500  0.87500000  1
  Sm  Sm2  1  0.86468500  0.25000000  0.62500000  1
  Sm  Sm3  1  0.25000000  0.13531500  0.37500000  1
  Sm  Sm4  1  0.13531500  0.75000000  0.62500000  1
  Sm  Sm5  1  0.75000000  0.86468500  0.37500000  1
  Sm  Sm6  1  0.36468500  0.75000000  0.12500000  1
  Sm  Sm7  1  0.75000000  0.63531500  0.87500000  1
  Cd  Cd8  1  0.00000000  0.00000000  0.00000000  1
  Cd  Cd9  1  0.00000000  0.50000000  0.25000000  1
  Cd  Cd10  1  0.50000000  0.50000000  0.50000000  1
  Cd  Cd11  1  0.50000000  0.00000000  0.75000000  1
  Se  Se12  1  0.93147200  0.19261900  0.31307700  1
  Se  Se13  1  0.19261900  0.43147200  0.56307700  1
  Se  Se14  1  0.19261900  0.06852800  0.68692300  1
  Se  Se15  1  0.30738100  0.06852800  0.06307700  1
  Se  Se16  1  0.43147200  0.80738100  0.43692300  1
  Se  Se17  1  0.06852800  0.69261900  0.93692300  1
  Se  Se18  1  0.30738100  0.43147200  0.18692300  1
  Se  Se19  1  0.56852800  0.30738100  0.81307700  1
  Se  Se20  1  0.43147200  0.69261900  0.81307700  1
  Se  Se21  1  0.69261900  0.93147200  0.06307700  1
  Se  Se22  1  0.69261900  0.56852800  0.18692300  1
  Se  Se23  1  0.80738100  0.56852800  0.56307700  1
  Se  Se24  1  0.93147200  0.30738100  0.93692300  1
  Se  Se25  1  0.56852800  0.19261900  0.43692300  1
  Se  Se26  1  0.80738100  0.93147200  0.68692300  1
  Se  Se27  1  0.06852800  0.80738100  0.31307700  1
