# generated using pymatgen
data_SrLiTa2O6F
_symmetry_space_group_name_H-M   'P 1'
_cell_length_a   7.42067400
_cell_length_b   7.52648400
_cell_length_c   10.53565200
_cell_angle_alpha   90.00000000
_cell_angle_beta   90.00000000
_cell_angle_gamma   90.00000000
_symmetry_Int_Tables_number   1
_chemical_formula_structural   SrLiTa2O6F
_chemical_formula_sum   'Sr4 Li4 Ta8 O24 F4'
_cell_volume   588.43285404
_cell_formula_units_Z   4
loop_
 _symmetry_equiv_pos_site_id
 _symmetry_equiv_pos_as_xyz
  1  'x, y, z'
loop_
 _atom_site_type_symbol
 _atom_site_label
 _atom_site_symmetry_multiplicity
 _atom_site_fract_x
 _atom_site_fract_y
 _atom_site_fract_z
 _atom_site_occupancy
  Sr  Sr0  1  0.50000000  0.00000000  0.00000000  1
  Sr  Sr1  1  0.00000000  0.00000000  0.50000000  1
  Sr  Sr2  1  0.00000000  0.50000000  0.50000000  1
  Sr  Sr3  1  0.50000000  0.50000000  0.00000000  1
  Li  Li4  1  0.75000000  0.25000000  0.25000000  1
  Li  Li5  1  0.25000000  0.25000000  0.25000000  1
  Li  Li6  1  0.25000000  0.75000000  0.75000000  1
  Li  Li7  1  0.75000000  0.75000000  0.75000000  1
  Ta  Ta8  1  0.75000000  0.75000000  0.25000000  1
  Ta  Ta9  1  0.00000000  0.00000000  0.00000000  1
  Ta  Ta10  1  0.25000000  0.75000000  0.25000000  1
  Ta  Ta11  1  0.50000000  0.00000000  0.50000000  1
  Ta  Ta12  1  0.25000000  0.25000000  0.75000000  1
  Ta  Ta13  1  0.50000000  0.50000000  0.50000000  1
  Ta  Ta14  1  0.75000000  0.25000000  0.75000000  1
  Ta  Ta15  1  0.00000000  0.50000000  0.00000000  1
  O  O16  1  0.80619950  0.93917050  0.12434150  1
  O  O17  1  0.00000000  0.75000000  0.32111300  1
  O  O18  1  0.19380050  0.93917050  0.12434150  1
  O  O19  1  0.30619950  0.06082950  0.62434150  1
  O  O20  1  0.19380050  0.06082950  0.87565850  1
  O  O21  1  0.50000000  0.25000000  0.43860500  1
  O  O22  1  0.00000000  0.25000000  0.67888700  1
  O  O23  1  0.69380050  0.06082950  0.62434150  1
  O  O24  1  0.80619950  0.06082950  0.87565850  1
  O  O25  1  0.69380050  0.93917050  0.37565850  1
  O  O26  1  0.30619950  0.93917050  0.37565850  1
  O  O27  1  0.50000000  0.75000000  0.56139500  1
  O  O28  1  0.30619950  0.43917050  0.62434150  1
  O  O29  1  0.50000000  0.25000000  0.82111300  1
  O  O30  1  0.69380050  0.43917050  0.62434150  1
  O  O31  1  0.80619950  0.56082950  0.12434150  1
  O  O32  1  0.69380050  0.56082950  0.37565850  1
  O  O33  1  0.00000000  0.75000000  0.93860500  1
  O  O34  1  0.50000000  0.75000000  0.17888700  1
  O  O35  1  0.19380050  0.56082950  0.12434150  1
  O  O36  1  0.30619950  0.56082950  0.37565850  1
  O  O37  1  0.19380050  0.43917050  0.87565850  1
  O  O38  1  0.80619950  0.43917050  0.87565850  1
  O  O39  1  0.00000000  0.25000000  0.06139500  1
  F  F40  1  0.00000000  0.25000000  0.35063000  1
  F  F41  1  0.00000000  0.75000000  0.64937000  1
  F  F42  1  0.50000000  0.75000000  0.85063000  1
  F  F43  1  0.50000000  0.25000000  0.14937000  1
