# generated using pymatgen
data_CuCN
_symmetry_space_group_name_H-M   'P 1'
_cell_length_a   6.16181608
_cell_length_b   6.16181608
_cell_length_c   4.81245760
_cell_angle_alpha   90.00000000
_cell_angle_beta   90.00000000
_cell_angle_gamma   120.00000000
_symmetry_Int_Tables_number   1
_chemical_formula_structural   CuCN
_chemical_formula_sum   'Cu3 C3 N3'
_cell_volume   158.23953956
_cell_formula_units_Z   3
loop_
 _symmetry_equiv_pos_site_id
 _symmetry_equiv_pos_as_xyz
  1  'x, y, z'
loop_
 _atom_site_type_symbol
 _atom_site_label
 _atom_site_symmetry_multiplicity
 _atom_site_fract_x
 _atom_site_fract_y
 _atom_site_fract_z
 _atom_site_occupancy
  Cu  Cu0  1  0.00000000  0.00000000  0.00023100  1
  Cu  Cu1  1  0.66666667  0.33333333  0.33356433  1
  Cu  Cu2  1  0.33333333  0.66666667  0.66689767  1
  C  C3  1  0.00000000  0.00000000  0.37788500  1
  C  C4  1  0.66666667  0.33333333  0.71121833  1
  C  C5  1  0.33333333  0.66666667  0.04455167  1
  N  N6  1  0.00000000  0.00000000  0.62188400  1
  N  N7  1  0.66666667  0.33333333  0.95521733  1
  N  N8  1  0.33333333  0.66666667  0.28855067  1
