# generated using pymatgen
data_Cu4SnP10
_symmetry_space_group_name_H-M   'P 1'
_cell_length_a   7.29248994
_cell_length_b   7.29248994
_cell_length_c   17.87691483
_cell_angle_alpha   90.00000000
_cell_angle_beta   90.00000000
_cell_angle_gamma   120.00000000
_symmetry_Int_Tables_number   1
_chemical_formula_structural   Cu4SnP10
_chemical_formula_sum   'Cu12 Sn3 P30'
_cell_volume   823.33178112
_cell_formula_units_Z   3
loop_
 _symmetry_equiv_pos_site_id
 _symmetry_equiv_pos_as_xyz
  1  'x, y, z'
loop_
 _atom_site_type_symbol
 _atom_site_label
 _atom_site_symmetry_multiplicity
 _atom_site_fract_x
 _atom_site_fract_y
 _atom_site_fract_z
 _atom_site_occupancy
  Cu  Cu0  1  0.66666667  0.33333333  0.33325433  1
  Cu  Cu1  1  0.49684433  0.50315567  0.12733767  1
  Cu  Cu2  1  0.00631133  0.50315567  0.12733767  1
  Cu  Cu3  1  0.49684433  0.99368867  0.12733767  1
  Cu  Cu4  1  0.33333333  0.66666667  0.66658767  1
  Cu  Cu5  1  0.16351100  0.83648900  0.46067100  1
  Cu  Cu6  1  0.67297800  0.83648900  0.46067100  1
  Cu  Cu7  1  0.16351100  0.32702200  0.46067100  1
  Cu  Cu8  1  0.00000000  0.00000000  0.99992100  1
  Cu  Cu9  1  0.83017767  0.16982233  0.79400433  1
  Cu  Cu10  1  0.33964467  0.16982233  0.79400433  1
  Cu  Cu11  1  0.83017767  0.66035533  0.79400433  1
  Sn  Sn12  1  0.33333333  0.66666667  0.23984167  1
  Sn  Sn13  1  0.00000000  0.00000000  0.57317500  1
  Sn  Sn14  1  0.66666667  0.33333333  0.90650833  1
  P  P15  1  0.32729000  0.16364500  0.16725900  1
  P  P16  1  0.83635500  0.67271000  0.16725900  1
  P  P17  1  0.00000000  0.00000000  0.12680000  1
  P  P18  1  0.32958733  0.16479367  0.28987767  1
  P  P19  1  0.49451200  0.50548800  0.00066000  1
  P  P20  1  0.83635500  0.16364500  0.16725900  1
  P  P21  1  0.83520633  0.67041267  0.28987767  1
  P  P22  1  0.83520633  0.16479367  0.28987767  1
  P  P23  1  0.49451200  0.98902400  0.00066000  1
  P  P24  1  0.01097600  0.50548800  0.00066000  1
  P  P25  1  0.99395667  0.49697833  0.50059233  1
  P  P26  1  0.50302167  0.00604333  0.50059233  1
  P  P27  1  0.66666667  0.33333333  0.46013333  1
  P  P28  1  0.99625400  0.49812700  0.62321100  1
  P  P29  1  0.16117867  0.83882133  0.33399333  1
  P  P30  1  0.50302167  0.49697833  0.50059233  1
  P  P31  1  0.50187300  0.00374600  0.62321100  1
  P  P32  1  0.50187300  0.49812700  0.62321100  1
  P  P33  1  0.16117867  0.32235733  0.33399333  1
  P  P34  1  0.67764267  0.83882133  0.33399333  1
  P  P35  1  0.66062333  0.83031167  0.83392567  1
  P  P36  1  0.16968833  0.33937667  0.83392567  1
  P  P37  1  0.33333333  0.66666667  0.79346667  1
  P  P38  1  0.66292067  0.83146033  0.95654433  1
  P  P39  1  0.82784533  0.17215467  0.66732667  1
  P  P40  1  0.16968833  0.83031167  0.83392567  1
  P  P41  1  0.16853967  0.33707933  0.95654433  1
  P  P42  1  0.16853967  0.83146033  0.95654433  1
  P  P43  1  0.82784533  0.65569067  0.66732667  1
  P  P44  1  0.34430933  0.17215467  0.66732667  1
