# generated using pymatgen
data_Mg5(HO3)2
_symmetry_space_group_name_H-M   'P 1'
_cell_length_a   3.04730205
_cell_length_b   3.04730205
_cell_length_c   14.81210100
_cell_angle_alpha   90.00000000
_cell_angle_beta   90.00000000
_cell_angle_gamma   120.00000000
_symmetry_Int_Tables_number   1
_chemical_formula_structural   Mg5(HO3)2
_chemical_formula_sum   'Mg5 H2 O6'
_cell_volume   119.11824971
_cell_formula_units_Z   1
loop_
 _symmetry_equiv_pos_site_id
 _symmetry_equiv_pos_as_xyz
  1  'x, y, z'
loop_
 _atom_site_type_symbol
 _atom_site_label
 _atom_site_symmetry_multiplicity
 _atom_site_fract_x
 _atom_site_fract_y
 _atom_site_fract_z
 _atom_site_occupancy
  Mg  Mg0  1  0.66666667  0.33333333  0.66876200  1
  Mg  Mg1  1  0.33333333  0.66666667  0.33123800  1
  Mg  Mg2  1  0.33333333  0.66666667  0.83460600  1
  Mg  Mg3  1  0.66666667  0.33333333  0.16539400  1
  Mg  Mg4  1  0.00000000  0.00000000  0.00000000  1
  H  H5  1  0.33333333  0.66666667  0.53120500  1
  H  H6  1  0.66666667  0.33333333  0.46879500  1
  O  O7  1  0.33333333  0.66666667  0.08272000  1
  O  O8  1  0.66666667  0.33333333  0.91728000  1
  O  O9  1  0.00000000  0.00000000  0.24819100  1
  O  O10  1  0.66666667  0.33333333  0.40344400  1
  O  O11  1  0.33333333  0.66666667  0.59655600  1
  O  O12  1  0.00000000  0.00000000  0.75180900  1
