# generated using pymatgen
data_Ac2S3
_symmetry_space_group_name_H-M   'P 1'
_cell_length_a   9.07674600
_cell_length_b   9.07674600
_cell_length_c   27.07260000
_cell_angle_alpha   90.00000000
_cell_angle_beta   90.00000000
_cell_angle_gamma   90.00000000
_symmetry_Int_Tables_number   1
_chemical_formula_structural   Ac2S3
_chemical_formula_sum   'Ac32 S48'
_cell_volume   2230.43890389
_cell_formula_units_Z   16
loop_
 _symmetry_equiv_pos_site_id
 _symmetry_equiv_pos_as_xyz
  1  'x, y, z'
loop_
 _atom_site_type_symbol
 _atom_site_label
 _atom_site_symmetry_multiplicity
 _atom_site_fract_x
 _atom_site_fract_y
 _atom_site_fract_z
 _atom_site_occupancy
  Ac  Ac0  1  0.74050600  0.64307900  0.21170650  1
  Ac  Ac1  1  0.00000000  0.00000000  0.16440900  1
  Ac  Ac2  1  0.37930150  0.75000000  0.12500000  1
  Ac  Ac3  1  0.25949400  0.14307900  0.03829350  1
  Ac  Ac4  1  0.00000000  0.50000000  0.08559100  1
  Ac  Ac5  1  0.74050600  0.85692100  0.03829350  1
  Ac  Ac6  1  0.62069850  0.25000000  0.12500000  1
  Ac  Ac7  1  0.35692100  0.75949400  0.46170650  1
  Ac  Ac8  1  0.00000000  0.50000000  0.41440900  1
  Ac  Ac9  1  0.25000000  0.12069850  0.37500000  1
  Ac  Ac10  1  0.64307900  0.24050600  0.46170650  1
  Ac  Ac11  1  0.75000000  0.87930150  0.37500000  1
  Ac  Ac12  1  0.50000000  0.50000000  0.33559100  1
  Ac  Ac13  1  0.85692100  0.24050600  0.28829350  1
  Ac  Ac14  1  0.14307900  0.75949400  0.28829350  1
  Ac  Ac15  1  0.25949400  0.35692100  0.21170650  1
  Ac  Ac16  1  0.24050600  0.14307900  0.71170650  1
  Ac  Ac17  1  0.50000000  0.50000000  0.66440900  1
  Ac  Ac18  1  0.87930150  0.25000000  0.62500000  1
  Ac  Ac19  1  0.75949400  0.64307900  0.53829350  1
  Ac  Ac20  1  0.50000000  0.00000000  0.58559100  1
  Ac  Ac21  1  0.24050600  0.35692100  0.53829350  1
  Ac  Ac22  1  0.12069850  0.75000000  0.62500000  1
  Ac  Ac23  1  0.85692100  0.25949400  0.96170650  1
  Ac  Ac24  1  0.50000000  0.00000000  0.91440900  1
  Ac  Ac25  1  0.75000000  0.62069850  0.87500000  1
  Ac  Ac26  1  0.14307900  0.74050600  0.96170650  1
  Ac  Ac27  1  0.25000000  0.37930150  0.87500000  1
  Ac  Ac28  1  0.00000000  0.00000000  0.83559100  1
  Ac  Ac29  1  0.35692100  0.74050600  0.78829350  1
  Ac  Ac30  1  0.64307900  0.25949400  0.78829350  1
  Ac  Ac31  1  0.75949400  0.85692100  0.71170650  1
  S  S32  1  0.92925000  0.32353500  0.18303250  1
  S  S33  1  0.68272950  0.92680750  0.14430200  1
  S  S34  1  0.07075000  0.67646500  0.18303250  1
  S  S35  1  0.07075000  0.82353500  0.06696750  1
  S  S36  1  0.92925000  0.17646500  0.06696750  1
  S  S37  1  0.31727050  0.07319250  0.14430200  1
  S  S38  1  0.41818250  0.83558250  0.01679600  1
  S  S39  1  0.31727050  0.42680750  0.10569800  1
  S  S40  1  0.66441750  0.91818250  0.48320400  1
  S  S41  1  0.58181750  0.16441750  0.01679600  1
  S  S42  1  0.68272950  0.57319250  0.10569800  1
  S  S43  1  0.07319250  0.81727050  0.39430200  1
  S  S44  1  0.92680750  0.18272950  0.39430200  1
  S  S45  1  0.33558250  0.08181750  0.48320400  1
  S  S46  1  0.42680750  0.81727050  0.35569800  1
  S  S47  1  0.32353500  0.42925000  0.43303250  1
  S  S48  1  0.17646500  0.42925000  0.31696750  1
  S  S49  1  0.57319250  0.18272950  0.35569800  1
  S  S50  1  0.67646500  0.57075000  0.43303250  1
  S  S51  1  0.58181750  0.33558250  0.23320400  1
  S  S52  1  0.41818250  0.66441750  0.23320400  1
  S  S53  1  0.82353500  0.57075000  0.31696750  1
  S  S54  1  0.83558250  0.91818250  0.26679600  1
  S  S55  1  0.16441750  0.08181750  0.26679600  1
  S  S56  1  0.42925000  0.82353500  0.68303250  1
  S  S57  1  0.18272950  0.42680750  0.64430200  1
  S  S58  1  0.57075000  0.17646500  0.68303250  1
  S  S59  1  0.57075000  0.32353500  0.56696750  1
  S  S60  1  0.42925000  0.67646500  0.56696750  1
  S  S61  1  0.81727050  0.57319250  0.64430200  1
  S  S62  1  0.91818250  0.33558250  0.51679600  1
  S  S63  1  0.81727050  0.92680750  0.60569800  1
  S  S64  1  0.16441750  0.41818250  0.98320400  1
  S  S65  1  0.08181750  0.66441750  0.51679600  1
  S  S66  1  0.18272950  0.07319250  0.60569800  1
  S  S67  1  0.57319250  0.31727050  0.89430200  1
  S  S68  1  0.42680750  0.68272950  0.89430200  1
  S  S69  1  0.83558250  0.58181750  0.98320400  1
  S  S70  1  0.92680750  0.31727050  0.85569800  1
  S  S71  1  0.82353500  0.92925000  0.93303250  1
  S  S72  1  0.67646500  0.92925000  0.81696750  1
  S  S73  1  0.07319250  0.68272950  0.85569800  1
  S  S74  1  0.17646500  0.07075000  0.93303250  1
  S  S75  1  0.08181750  0.83558250  0.73320400  1
  S  S76  1  0.91818250  0.16441750  0.73320400  1
  S  S77  1  0.32353500  0.07075000  0.81696750  1
  S  S78  1  0.33558250  0.41818250  0.76679600  1
  S  S79  1  0.66441750  0.58181750  0.76679600  1
