# generated using pymatgen
data_KNO2
_symmetry_space_group_name_H-M   'P 1'
_cell_length_a   7.37972000
_cell_length_b   5.73407800
_cell_length_c   4.27491309
_cell_angle_alpha   90.00000000
_cell_angle_beta   120.55171308
_cell_angle_gamma   90.00000000
_symmetry_Int_Tables_number   1
_chemical_formula_structural   KNO2
_chemical_formula_sum   'K2 N2 O4'
_cell_volume   155.78298728
_cell_formula_units_Z   2
loop_
 _symmetry_equiv_pos_site_id
 _symmetry_equiv_pos_as_xyz
  1  'x, y, z'
loop_
 _atom_site_type_symbol
 _atom_site_label
 _atom_site_symmetry_multiplicity
 _atom_site_fract_x
 _atom_site_fract_y
 _atom_site_fract_z
 _atom_site_occupancy
  K  K0  1  0.48343700  0.50000000  0.97768400  1
  K  K1  1  0.98343700  0.00000000  0.97768400  1
  N  N2  1  0.00997700  0.50000000  0.53915300  1
  N  N3  1  0.50997700  0.00000000  0.53915300  1
  O  O4  1  0.90629300  0.68773700  0.40758200  1
  O  O5  1  0.90629300  0.31226300  0.40758200  1
  O  O6  1  0.40629300  0.18773700  0.40758200  1
  O  O7  1  0.40629300  0.81226300  0.40758200  1
