# generated using pymatgen
data_RbGa3
_symmetry_space_group_name_H-M   'P 1'
_cell_length_a   6.42554600
_cell_length_b   6.42554600
_cell_length_c   15.20082000
_cell_angle_alpha   90.00000000
_cell_angle_beta   90.00000000
_cell_angle_gamma   90.00000000
_symmetry_Int_Tables_number   1
_chemical_formula_structural   RbGa3
_chemical_formula_sum   'Rb6 Ga18'
_cell_volume   627.60600512
_cell_formula_units_Z   6
loop_
 _symmetry_equiv_pos_site_id
 _symmetry_equiv_pos_as_xyz
  1  'x, y, z'
loop_
 _atom_site_type_symbol
 _atom_site_label
 _atom_site_symmetry_multiplicity
 _atom_site_fract_x
 _atom_site_fract_y
 _atom_site_fract_z
 _atom_site_occupancy
  Rb  Rb0  1  0.00000000  0.00000000  0.00000000  1
  Rb  Rb1  1  0.50000000  0.00000000  0.37208900  1
  Rb  Rb2  1  0.50000000  0.00000000  0.12791100  1
  Rb  Rb3  1  0.50000000  0.50000000  0.50000000  1
  Rb  Rb4  1  0.00000000  0.50000000  0.87208900  1
  Rb  Rb5  1  0.00000000  0.50000000  0.62791100  1
  Ga  Ga6  1  0.50000000  0.50000000  0.00000000  1
  Ga  Ga7  1  0.00000000  0.20748400  0.22324300  1
  Ga  Ga8  1  0.70748400  0.50000000  0.27675700  1
  Ga  Ga9  1  0.29251600  0.50000000  0.27675700  1
  Ga  Ga10  1  0.00000000  0.79251600  0.22324300  1
  Ga  Ga11  1  0.00000000  0.30606850  0.39122850  1
  Ga  Ga12  1  0.80606850  0.50000000  0.10877150  1
  Ga  Ga13  1  0.19393150  0.50000000  0.10877150  1
  Ga  Ga14  1  0.00000000  0.69393150  0.39122850  1
  Ga  Ga15  1  0.00000000  0.00000000  0.50000000  1
  Ga  Ga16  1  0.50000000  0.70748400  0.72324300  1
  Ga  Ga17  1  0.20748400  0.00000000  0.77675700  1
  Ga  Ga18  1  0.79251600  0.00000000  0.77675700  1
  Ga  Ga19  1  0.50000000  0.29251600  0.72324300  1
  Ga  Ga20  1  0.50000000  0.80606850  0.89122850  1
  Ga  Ga21  1  0.30606850  0.00000000  0.60877150  1
  Ga  Ga22  1  0.69393150  0.00000000  0.60877150  1
  Ga  Ga23  1  0.50000000  0.19393150  0.89122850  1
