# generated using pymatgen
data_CsNd5Se8
_symmetry_space_group_name_H-M   'P 1'
_cell_length_a   9.19579800
_cell_length_b   9.19579800
_cell_length_c   9.06509600
_cell_angle_alpha   90.00000000
_cell_angle_beta   90.00000000
_cell_angle_gamma   90.00000000
_symmetry_Int_Tables_number   1
_chemical_formula_structural   CsNd5Se8
_chemical_formula_sum   'Cs2 Nd10 Se16'
_cell_volume   766.56900129
_cell_formula_units_Z   2
loop_
 _symmetry_equiv_pos_site_id
 _symmetry_equiv_pos_as_xyz
  1  'x, y, z'
loop_
 _atom_site_type_symbol
 _atom_site_label
 _atom_site_symmetry_multiplicity
 _atom_site_fract_x
 _atom_site_fract_y
 _atom_site_fract_z
 _atom_site_occupancy
  Cs  Cs0  1  0.00000000  0.00000000  0.00000000  1
  Cs  Cs1  1  0.50000000  0.50000000  0.50000000  1
  Nd  Nd2  1  0.24529050  0.63174550  0.87135050  1
  Nd  Nd3  1  0.13174550  0.25470950  0.62864950  1
  Nd  Nd4  1  0.25470950  0.86825450  0.37135050  1
  Nd  Nd5  1  0.36825450  0.24529050  0.12864950  1
  Nd  Nd6  1  0.00000000  0.50000000  0.25000000  1
  Nd  Nd7  1  0.74529050  0.13174550  0.37135050  1
  Nd  Nd8  1  0.63174550  0.75470950  0.12864950  1
  Nd  Nd9  1  0.75470950  0.36825450  0.87135050  1
  Nd  Nd10  1  0.86825450  0.74529050  0.62864950  1
  Nd  Nd11  1  0.50000000  0.00000000  0.75000000  1
  Se  Se12  1  0.84319000  0.41558700  0.55412800  1
  Se  Se13  1  0.07209100  0.18588800  0.31579800  1
  Se  Se14  1  0.41558700  0.15681000  0.44587200  1
  Se  Se15  1  0.08441300  0.34319000  0.94587200  1
  Se  Se16  1  0.42790900  0.31411200  0.81579800  1
  Se  Se17  1  0.31411200  0.57209100  0.18420200  1
  Se  Se18  1  0.18588800  0.92790900  0.68420200  1
  Se  Se19  1  0.65681000  0.08441300  0.05412800  1
  Se  Se20  1  0.34319000  0.91558700  0.05412800  1
  Se  Se21  1  0.57209100  0.68588800  0.81579800  1
  Se  Se22  1  0.91558700  0.65681000  0.94587200  1
  Se  Se23  1  0.58441300  0.84319000  0.44587200  1
  Se  Se24  1  0.92790900  0.81411200  0.31579800  1
  Se  Se25  1  0.81411200  0.07209100  0.68420200  1
  Se  Se26  1  0.68588800  0.42790900  0.18420200  1
  Se  Se27  1  0.15681000  0.58441300  0.55412800  1
