# generated using pymatgen
data_Nd3NbO7
_symmetry_space_group_name_H-M   'P 1'
_cell_length_a   7.56481800
_cell_length_b   11.01641000
_cell_length_c   7.74611100
_cell_angle_alpha   90.00000000
_cell_angle_beta   90.00000000
_cell_angle_gamma   90.00000000
_symmetry_Int_Tables_number   1
_chemical_formula_structural   Nd3NbO7
_chemical_formula_sum   'Nd12 Nb4 O28'
_cell_volume   645.53871102
_cell_formula_units_Z   4
loop_
 _symmetry_equiv_pos_site_id
 _symmetry_equiv_pos_as_xyz
  1  'x, y, z'
loop_
 _atom_site_type_symbol
 _atom_site_label
 _atom_site_symmetry_multiplicity
 _atom_site_fract_x
 _atom_site_fract_y
 _atom_site_fract_z
 _atom_site_occupancy
  Nd  Nd0  1  0.70506650  0.22611950  0.75000000  1
  Nd  Nd1  1  0.29493350  0.77388050  0.25000000  1
  Nd  Nd2  1  0.00000000  0.00000000  0.50000000  1
  Nd  Nd3  1  0.00000000  0.00000000  0.00000000  1
  Nd  Nd4  1  0.29493350  0.22611950  0.25000000  1
  Nd  Nd5  1  0.70506650  0.77388050  0.75000000  1
  Nd  Nd6  1  0.20506650  0.72611950  0.75000000  1
  Nd  Nd7  1  0.79493350  0.27388050  0.25000000  1
  Nd  Nd8  1  0.50000000  0.50000000  0.50000000  1
  Nd  Nd9  1  0.50000000  0.50000000  0.00000000  1
  Nd  Nd10  1  0.79493350  0.72611950  0.25000000  1
  Nd  Nd11  1  0.20506650  0.27388050  0.75000000  1
  Nb  Nb12  1  0.50000000  0.00000000  0.00000000  1
  Nb  Nb13  1  0.50000000  0.00000000  0.50000000  1
  Nb  Nb14  1  0.00000000  0.50000000  0.00000000  1
  Nb  Nb15  1  0.00000000  0.50000000  0.50000000  1
  O  O16  1  0.57126200  0.00000000  0.75000000  1
  O  O17  1  0.42873800  0.00000000  0.25000000  1
  O  O18  1  0.47749900  0.36870200  0.75000000  1
  O  O19  1  0.52250100  0.63129800  0.25000000  1
  O  O20  1  0.47749900  0.63129800  0.75000000  1
  O  O21  1  0.52250100  0.36870200  0.25000000  1
  O  O22  1  0.31130650  0.12700050  0.96517900  1
  O  O23  1  0.68869350  0.87299950  0.46517900  1
  O  O24  1  0.31130650  0.87299950  0.96517900  1
  O  O25  1  0.68869350  0.12700050  0.46517900  1
  O  O26  1  0.31130650  0.12700050  0.53482100  1
  O  O27  1  0.68869350  0.87299950  0.03482100  1
  O  O28  1  0.68869350  0.12700050  0.03482100  1
  O  O29  1  0.31130650  0.87299950  0.53482100  1
  O  O30  1  0.07126200  0.50000000  0.75000000  1
  O  O31  1  0.92873800  0.50000000  0.25000000  1
  O  O32  1  0.97749900  0.86870200  0.75000000  1
  O  O33  1  0.02250100  0.13129800  0.25000000  1
  O  O34  1  0.97749900  0.13129800  0.75000000  1
  O  O35  1  0.02250100  0.86870200  0.25000000  1
  O  O36  1  0.81130650  0.62700050  0.96517900  1
  O  O37  1  0.18869350  0.37299950  0.46517900  1
  O  O38  1  0.81130650  0.37299950  0.96517900  1
  O  O39  1  0.18869350  0.62700050  0.46517900  1
  O  O40  1  0.81130650  0.62700050  0.53482100  1
  O  O41  1  0.18869350  0.37299950  0.03482100  1
  O  O42  1  0.18869350  0.62700050  0.03482100  1
  O  O43  1  0.81130650  0.37299950  0.53482100  1
