# generated using pymatgen
data_B2O3
_symmetry_space_group_name_H-M   'P 1'
_cell_length_a   4.40257543
_cell_length_b   4.40257543
_cell_length_c   8.81526800
_cell_angle_alpha   90.00000000
_cell_angle_beta   90.00000000
_cell_angle_gamma   120.00000000
_symmetry_Int_Tables_number   1
_chemical_formula_structural   B2O3
_chemical_formula_sum   'B6 O9'
_cell_volume   147.97207467
_cell_formula_units_Z   3
loop_
 _symmetry_equiv_pos_site_id
 _symmetry_equiv_pos_as_xyz
  1  'x, y, z'
loop_
 _atom_site_type_symbol
 _atom_site_label
 _atom_site_symmetry_multiplicity
 _atom_site_fract_x
 _atom_site_fract_y
 _atom_site_fract_z
 _atom_site_occupancy
  B  B0  1  0.78215000  0.59724700  0.77590700  1
  B  B1  1  0.81509700  0.21785000  0.44257367  1
  B  B2  1  0.40275300  0.18490300  0.10924033  1
  B  B3  1  0.21785000  0.81509700  0.55742633  1
  B  B4  1  0.59724700  0.78215000  0.22409300  1
  B  B5  1  0.18490300  0.40275300  0.89075967  1
  O  O6  1  0.12463400  0.53382500  0.46242600  1
  O  O7  1  0.46617500  0.59080900  0.79575933  1
  O  O8  1  0.40919100  0.87536600  0.12909267  1
  O  O9  1  0.00000000  0.82106850  0.66666667  1
  O  O10  1  0.82106850  0.00000000  0.33333333  1
  O  O11  1  0.17893150  0.17893150  0.00000000  1
  O  O12  1  0.53382500  0.12463400  0.53757400  1
  O  O13  1  0.59080900  0.46617500  0.20424067  1
  O  O14  1  0.87536600  0.40919100  0.87090733  1
