# generated using pymatgen
data_Ga3PO7
_symmetry_space_group_name_H-M   'P 1'
_cell_length_a   8.01074035
_cell_length_b   8.01074035
_cell_length_c   6.81436636
_cell_angle_alpha   90.00000000
_cell_angle_beta   90.00000000
_cell_angle_gamma   120.00000000
_symmetry_Int_Tables_number   1
_chemical_formula_structural   Ga3PO7
_chemical_formula_sum   'Ga9 P3 O21'
_cell_volume   378.70533279
_cell_formula_units_Z   3
loop_
 _symmetry_equiv_pos_site_id
 _symmetry_equiv_pos_as_xyz
  1  'x, y, z'
loop_
 _atom_site_type_symbol
 _atom_site_label
 _atom_site_symmetry_multiplicity
 _atom_site_fract_x
 _atom_site_fract_y
 _atom_site_fract_z
 _atom_site_occupancy
  Ga  Ga0  1  0.86987767  0.73975533  0.71303433  1
  Ga  Ga1  1  0.86987767  0.13012233  0.71303433  1
  Ga  Ga2  1  0.26024467  0.13012233  0.71303433  1
  Ga  Ga3  1  0.53654433  0.07308867  0.04636767  1
  Ga  Ga4  1  0.53654433  0.46345567  0.04636767  1
  Ga  Ga5  1  0.92691133  0.46345567  0.04636767  1
  Ga  Ga6  1  0.20321100  0.40642200  0.37970100  1
  Ga  Ga7  1  0.20321100  0.79678900  0.37970100  1
  Ga  Ga8  1  0.59357800  0.79678900  0.37970100  1
  P  P9  1  0.00000000  0.00000000  0.12506000  1
  P  P10  1  0.66666667  0.33333333  0.45839333  1
  P  P11  1  0.33333333  0.66666667  0.79172667  1
  O  O12  1  0.77295200  0.54590400  0.51722300  1
  O  O13  1  0.12611000  0.87389000  0.60827400  1
  O  O14  1  0.12611000  0.25222000  0.60827400  1
  O  O15  1  0.77295200  0.22704800  0.51722300  1
  O  O16  1  0.45409600  0.22704800  0.51722300  1
  O  O17  1  0.00000000  0.00000000  0.89087900  1
  O  O18  1  0.74778000  0.87389000  0.60827400  1
  O  O19  1  0.43961867  0.87923733  0.85055633  1
  O  O20  1  0.79277667  0.20722333  0.94160733  1
  O  O21  1  0.79277667  0.58555333  0.94160733  1
  O  O22  1  0.43961867  0.56038133  0.85055633  1
  O  O23  1  0.12076267  0.56038133  0.85055633  1
  O  O24  1  0.66666667  0.33333333  0.22421233  1
  O  O25  1  0.41444667  0.20722333  0.94160733  1
  O  O26  1  0.10628533  0.21257067  0.18388967  1
  O  O27  1  0.45944333  0.54055667  0.27494067  1
  O  O28  1  0.45944333  0.91888667  0.27494067  1
  O  O29  1  0.10628533  0.89371467  0.18388967  1
  O  O30  1  0.78742933  0.89371467  0.18388967  1
  O  O31  1  0.33333333  0.66666667  0.55754567  1
  O  O32  1  0.08111333  0.54055667  0.27494067  1
