# generated using pymatgen
data_Al4(B2O5)3
_symmetry_space_group_name_H-M   'P 1'
_cell_length_a   11.58648394
_cell_length_b   11.58648394
_cell_length_c   6.52739885
_cell_angle_alpha   90.00000000
_cell_angle_beta   90.00000000
_cell_angle_gamma   120.00000000
_symmetry_Int_Tables_number   1
_chemical_formula_structural   Al4(B2O5)3
_chemical_formula_sum   'Al12 B18 O45'
_cell_volume   758.88175305
_cell_formula_units_Z   3
loop_
 _symmetry_equiv_pos_site_id
 _symmetry_equiv_pos_as_xyz
  1  'x, y, z'
loop_
 _atom_site_type_symbol
 _atom_site_label
 _atom_site_symmetry_multiplicity
 _atom_site_fract_x
 _atom_site_fract_y
 _atom_site_fract_z
 _atom_site_occupancy
  Al  Al0  1  0.74296800  0.97480500  0.06012900  1
  Al  Al1  1  0.56517033  0.92369867  0.72679567  1
  Al  Al2  1  0.69186167  0.10149633  0.39346233  1
  Al  Al3  1  0.00000000  0.00000000  0.00144200  1
  Al  Al4  1  0.40963467  0.30813833  0.39346233  1
  Al  Al5  1  0.23183700  0.25703200  0.06012900  1
  Al  Al6  1  0.35852833  0.43482967  0.72679567  1
  Al  Al7  1  0.66666667  0.33333333  0.33477533  1
  Al  Al8  1  0.07630133  0.64147167  0.72679567  1
  Al  Al9  1  0.89850367  0.59036533  0.39346233  1
  Al  Al10  1  0.02519500  0.76816300  0.06012900  1
  Al  Al11  1  0.33333333  0.66666667  0.66810867  1
  B  B12  1  0.95703967  0.14163433  0.31551533  1
  B  B13  1  0.85126133  0.37629367  0.64884867  1
  B  B14  1  0.19169900  0.48207200  0.98218200  1
  B  B15  1  0.86389633  0.06132767  0.66034467  1
  B  B16  1  0.53076467  0.80277033  0.32701133  1
  B  B17  1  0.60533900  0.13590200  0.99367800  1
  B  B18  1  0.62370633  0.47496767  0.64884867  1
  B  B19  1  0.51792800  0.70962700  0.98218200  1
  B  B20  1  0.85836567  0.81540533  0.31551533  1
  B  B21  1  0.53056300  0.39466100  0.99367800  1
  B  B22  1  0.19743133  0.13610367  0.66034467  1
  B  B23  1  0.27200567  0.46923533  0.32701133  1
  B  B24  1  0.29037300  0.80830100  0.98218200  1
  B  B25  1  0.18459467  0.04296033  0.31551533  1
  B  B26  1  0.52503233  0.14873867  0.64884867  1
  B  B27  1  0.19722967  0.72799433  0.32701133  1
  B  B28  1  0.86409800  0.46943700  0.99367800  1
  B  B29  1  0.93867233  0.80256867  0.66034467  1
  O  O30  1  0.62234667  0.82541633  0.90169633  1
  O  O31  1  0.19937533  0.50403267  0.19409767  1
  O  O32  1  0.82930067  0.36200933  0.86076433  1
  O  O33  1  0.97132400  0.13395800  0.52743100  1
  O  O34  1  0.84125033  0.13026367  0.23502967  1
  O  O35  1  0.76435733  0.27658667  0.51571667  1
  O  O36  1  0.05674667  0.15443733  0.18238333  1
  O  O37  1  0.63067667  0.17897633  0.19447133  1
  O  O38  1  0.48769033  0.78503367  0.52780467  1
  O  O39  1  0.88163300  0.03599000  0.86113800  1
  O  O40  1  0.73699700  0.01959100  0.59698200  1
  O  O41  1  0.64707567  0.05073933  0.93031533  1
  O  O42  1  0.61592733  0.92966967  0.26364867  1
  O  O43  1  0.17889600  0.56897600  0.84905000  1
  O  O44  1  0.53640300  0.04432000  0.56836300  1
  O  O45  1  0.28901333  0.15874967  0.23502967  1
  O  O46  1  0.86604200  0.83736600  0.52743100  1
  O  O47  1  0.49596733  0.69534267  0.19409767  1
  O  O48  1  0.63799067  0.46729133  0.86076433  1
  O  O49  1  0.50791700  0.46359700  0.56836300  1
  O  O50  1  0.43102400  0.60992000  0.84905000  1
  O  O51  1  0.72341333  0.48777067  0.51571667  1
  O  O52  1  0.29734333  0.51230967  0.52780467  1
  O  O53  1  0.15435700  0.11836700  0.86113800  1
  O  O54  1  0.54829967  0.36932333  0.19447133  1
  O  O55  1  0.40366367  0.35292433  0.93031533  1
  O  O56  1  0.31374233  0.38407267  0.26364867  1
  O  O57  1  0.28259400  0.26300300  0.59698200  1
  O  O58  1  0.84556267  0.90230933  0.18238333  1
  O  O59  1  0.20306967  0.37765333  0.90169633  1
  O  O60  1  0.95568000  0.49208300  0.56836300  1
  O  O61  1  0.53270867  0.17069933  0.86076433  1
  O  O62  1  0.16263400  0.02867600  0.52743100  1
  O  O63  1  0.30465733  0.80062467  0.19409767  1
  O  O64  1  0.17458367  0.79693033  0.90169633  1
  O  O65  1  0.09769067  0.94325333  0.18238333  1
  O  O66  1  0.39008000  0.82110400  0.84905000  1
  O  O67  1  0.96401000  0.84564300  0.86113800  1
  O  O68  1  0.82102367  0.45170033  0.19447133  1
  O  O69  1  0.21496633  0.70265667  0.52780467  1
  O  O70  1  0.07033033  0.68625767  0.26364867  1
  O  O71  1  0.98040900  0.71740600  0.59698200  1
  O  O72  1  0.94926067  0.59633633  0.93031533  1
  O  O73  1  0.51222933  0.23564267  0.51571667  1
  O  O74  1  0.86973633  0.71098667  0.23502967  1
