# generated using pymatgen
data_Tm2S3
_symmetry_space_group_name_H-M   'P 1'
_cell_length_a   8.22598400
_cell_length_b   8.22598400
_cell_length_c   24.60905800
_cell_angle_alpha   90.00000000
_cell_angle_beta   90.00000000
_cell_angle_gamma   90.00000000
_symmetry_Int_Tables_number   1
_chemical_formula_structural   Tm2S3
_chemical_formula_sum   'Tm32 S48'
_cell_volume   1665.21652009
_cell_formula_units_Z   16
loop_
 _symmetry_equiv_pos_site_id
 _symmetry_equiv_pos_as_xyz
  1  'x, y, z'
loop_
 _atom_site_type_symbol
 _atom_site_label
 _atom_site_symmetry_multiplicity
 _atom_site_fract_x
 _atom_site_fract_y
 _atom_site_fract_z
 _atom_site_occupancy
  Tm  Tm0  1  0.73934000  0.63931300  0.21150700  1
  Tm  Tm1  1  0.26066000  0.36068700  0.21150700  1
  Tm  Tm2  1  0.00000000  0.00000000  0.16483800  1
  Tm  Tm3  1  0.38303700  0.75000000  0.12500000  1
  Tm  Tm4  1  0.00000000  0.50000000  0.08516200  1
  Tm  Tm5  1  0.26066000  0.13931300  0.03849300  1
  Tm  Tm6  1  0.61696300  0.25000000  0.12500000  1
  Tm  Tm7  1  0.73934000  0.86068700  0.03849300  1
  Tm  Tm8  1  0.36068700  0.76066000  0.46150700  1
  Tm  Tm9  1  0.25000000  0.11696300  0.37500000  1
  Tm  Tm10  1  0.00000000  0.50000000  0.41483800  1
  Tm  Tm11  1  0.63931300  0.23934000  0.46150700  1
  Tm  Tm12  1  0.75000000  0.88303700  0.37500000  1
  Tm  Tm13  1  0.50000000  0.50000000  0.33516200  1
  Tm  Tm14  1  0.86068700  0.23934000  0.28849300  1
  Tm  Tm15  1  0.13931300  0.76066000  0.28849300  1
  Tm  Tm16  1  0.23934000  0.13931300  0.71150700  1
  Tm  Tm17  1  0.76066000  0.86068700  0.71150700  1
  Tm  Tm18  1  0.50000000  0.50000000  0.66483800  1
  Tm  Tm19  1  0.88303700  0.25000000  0.62500000  1
  Tm  Tm20  1  0.50000000  0.00000000  0.58516200  1
  Tm  Tm21  1  0.76066000  0.63931300  0.53849300  1
  Tm  Tm22  1  0.11696300  0.75000000  0.62500000  1
  Tm  Tm23  1  0.23934000  0.36068700  0.53849300  1
  Tm  Tm24  1  0.86068700  0.26066000  0.96150700  1
  Tm  Tm25  1  0.75000000  0.61696300  0.87500000  1
  Tm  Tm26  1  0.50000000  0.00000000  0.91483800  1
  Tm  Tm27  1  0.13931300  0.73934000  0.96150700  1
  Tm  Tm28  1  0.25000000  0.38303700  0.87500000  1
  Tm  Tm29  1  0.00000000  0.00000000  0.83516200  1
  Tm  Tm30  1  0.36068700  0.73934000  0.78849300  1
  Tm  Tm31  1  0.63931300  0.26066000  0.78849300  1
  S  S32  1  0.68452000  0.93072900  0.14353700  1
  S  S33  1  0.06390900  0.68169700  0.18468900  1
  S  S34  1  0.06390900  0.81830300  0.06531100  1
  S  S35  1  0.93609100  0.31830300  0.18468900  1
  S  S36  1  0.93609100  0.18169700  0.06531100  1
  S  S37  1  0.68452000  0.56927100  0.10646300  1
  S  S38  1  0.31548000  0.06927100  0.14353700  1
  S  S39  1  0.31548000  0.43072900  0.10646300  1
  S  S40  1  0.67579700  0.92146000  0.48234600  1
  S  S41  1  0.57854000  0.17579700  0.01765400  1
  S  S42  1  0.42146000  0.82420300  0.01765400  1
  S  S43  1  0.06927100  0.81548000  0.39353700  1
  S  S44  1  0.93072900  0.18452000  0.39353700  1
  S  S45  1  0.68169700  0.56390900  0.43468900  1
  S  S46  1  0.32420300  0.07854000  0.48234600  1
  S  S47  1  0.31830300  0.43609100  0.43468900  1
  S  S48  1  0.18169700  0.43609100  0.31531100  1
  S  S49  1  0.56927100  0.18452000  0.35646300  1
  S  S50  1  0.43072900  0.81548000  0.35646300  1
  S  S51  1  0.57854000  0.32420300  0.23234600  1
  S  S52  1  0.42146000  0.67579700  0.23234600  1
  S  S53  1  0.17579700  0.07854000  0.26765400  1
  S  S54  1  0.81830300  0.56390900  0.31531100  1
  S  S55  1  0.82420300  0.92146000  0.26765400  1
  S  S56  1  0.18452000  0.43072900  0.64353700  1
  S  S57  1  0.56390900  0.18169700  0.68468900  1
  S  S58  1  0.56390900  0.31830300  0.56531100  1
  S  S59  1  0.43609100  0.81830300  0.68468900  1
  S  S60  1  0.43609100  0.68169700  0.56531100  1
  S  S61  1  0.18452000  0.06927100  0.60646300  1
  S  S62  1  0.81548000  0.56927100  0.64353700  1
  S  S63  1  0.81548000  0.93072900  0.60646300  1
  S  S64  1  0.17579700  0.42146000  0.98234600  1
  S  S65  1  0.07854000  0.67579700  0.51765400  1
  S  S66  1  0.92146000  0.32420300  0.51765400  1
  S  S67  1  0.56927100  0.31548000  0.89353700  1
  S  S68  1  0.43072900  0.68452000  0.89353700  1
  S  S69  1  0.18169700  0.06390900  0.93468900  1
  S  S70  1  0.82420300  0.57854000  0.98234600  1
  S  S71  1  0.81830300  0.93609100  0.93468900  1
  S  S72  1  0.68169700  0.93609100  0.81531100  1
  S  S73  1  0.06927100  0.68452000  0.85646300  1
  S  S74  1  0.93072900  0.31548000  0.85646300  1
  S  S75  1  0.07854000  0.82420300  0.73234600  1
  S  S76  1  0.92146000  0.17579700  0.73234600  1
  S  S77  1  0.67579700  0.57854000  0.76765400  1
  S  S78  1  0.31830300  0.06390900  0.81531100  1
  S  S79  1  0.32420300  0.42146000  0.76765400  1
