# generated using pymatgen
data_Mg3TeO6
_symmetry_space_group_name_H-M   'P 1'
_cell_length_a   8.70077273
_cell_length_b   8.70077273
_cell_length_c   10.47002216
_cell_angle_alpha   90.00000000
_cell_angle_beta   90.00000000
_cell_angle_gamma   120.00000000
_symmetry_Int_Tables_number   1
_chemical_formula_structural   Mg3TeO6
_chemical_formula_sum   'Mg18 Te6 O36'
_cell_volume   686.42624722
_cell_formula_units_Z   6
loop_
 _symmetry_equiv_pos_site_id
 _symmetry_equiv_pos_as_xyz
  1  'x, y, z'
loop_
 _atom_site_type_symbol
 _atom_site_label
 _atom_site_symmetry_multiplicity
 _atom_site_fract_x
 _atom_site_fract_y
 _atom_site_fract_z
 _atom_site_occupancy
  Mg  Mg0  1  0.73525233  0.95958167  0.71147867  1
  Mg  Mg1  1  0.22432933  0.26474767  0.71147867  1
  Mg  Mg2  1  0.95958167  0.22432933  0.28852133  1
  Mg  Mg3  1  0.77567067  0.73525233  0.28852133  1
  Mg  Mg4  1  0.26474767  0.04041833  0.28852133  1
  Mg  Mg5  1  0.04041833  0.77567067  0.71147867  1
  Mg  Mg6  1  0.40191900  0.29291500  0.04481200  1
  Mg  Mg7  1  0.89099600  0.59808100  0.04481200  1
  Mg  Mg8  1  0.62624833  0.55766267  0.62185467  1
  Mg  Mg9  1  0.44233733  0.06858567  0.62185467  1
  Mg  Mg10  1  0.93141433  0.37375167  0.62185467  1
  Mg  Mg11  1  0.70708500  0.10900400  0.04481200  1
  Mg  Mg12  1  0.06858567  0.62624833  0.37814533  1
  Mg  Mg13  1  0.55766267  0.93141433  0.37814533  1
  Mg  Mg14  1  0.29291500  0.89099600  0.95518800  1
  Mg  Mg15  1  0.10900400  0.40191900  0.95518800  1
  Mg  Mg16  1  0.59808100  0.70708500  0.95518800  1
  Mg  Mg17  1  0.37375167  0.44233733  0.37814533  1
  Te  Te18  1  0.00000000  0.00000000  0.00000000  1
  Te  Te19  1  0.00000000  0.00000000  0.50000000  1
  Te  Te20  1  0.66666667  0.33333333  0.33333333  1
  Te  Te21  1  0.66666667  0.33333333  0.83333333  1
  Te  Te22  1  0.33333333  0.66666667  0.66666667  1
  Te  Te23  1  0.33333333  0.66666667  0.16666667  1
  O  O24  1  0.02562667  0.83962933  0.38389333  1
  O  O25  1  0.16037067  0.18599733  0.38389333  1
  O  O26  1  0.81400267  0.97437333  0.38389333  1
  O  O27  1  0.97437333  0.16037067  0.61610667  1
  O  O28  1  0.83962933  0.81400267  0.61610667  1
  O  O29  1  0.18599733  0.02562667  0.61610667  1
  O  O30  1  0.36367267  0.49412333  0.56763433  1
  O  O31  1  0.50587667  0.86954933  0.56763433  1
  O  O32  1  0.86954933  0.36367267  0.43236567  1
  O  O33  1  0.49412333  0.13045067  0.43236567  1
  O  O34  1  0.63632733  0.50587667  0.43236567  1
  O  O35  1  0.13045067  0.63632733  0.56763433  1
  O  O36  1  0.69229333  0.17296267  0.71722667  1
  O  O37  1  0.82703733  0.51933067  0.71722667  1
  O  O38  1  0.48066933  0.30770667  0.71722667  1
  O  O39  1  0.64104000  0.49370400  0.94944000  1
  O  O40  1  0.50629600  0.14733600  0.94944000  1
  O  O41  1  0.85266400  0.35896000  0.94944000  1
  O  O42  1  0.03033933  0.82745667  0.90096767  1
  O  O43  1  0.17254333  0.20288267  0.90096767  1
  O  O44  1  0.53621600  0.69700600  0.76569900  1
  O  O45  1  0.16079000  0.46378400  0.76569900  1
  O  O46  1  0.30299400  0.83921000  0.76569900  1
  O  O47  1  0.79711733  0.96966067  0.90096767  1
  O  O48  1  0.35896000  0.50629600  0.05056000  1
  O  O49  1  0.49370400  0.85266400  0.05056000  1
  O  O50  1  0.14733600  0.64104000  0.05056000  1
  O  O51  1  0.30770667  0.82703733  0.28277333  1
  O  O52  1  0.17296267  0.48066933  0.28277333  1
  O  O53  1  0.51933067  0.69229333  0.28277333  1
  O  O54  1  0.69700600  0.16079000  0.23430100  1
  O  O55  1  0.83921000  0.53621600  0.23430100  1
  O  O56  1  0.20288267  0.03033933  0.09903233  1
  O  O57  1  0.82745667  0.79711733  0.09903233  1
  O  O58  1  0.96966067  0.17254333  0.09903233  1
  O  O59  1  0.46378400  0.30299400  0.23430100  1
