# generated using pymatgen
data_Na10Zn4O9
_symmetry_space_group_name_H-M   'P 1'
_cell_length_a   13.71296200
_cell_length_b   10.89167600
_cell_length_c   8.74267119
_cell_angle_alpha   90.00000000
_cell_angle_beta   106.03094944
_cell_angle_gamma   90.00000000
_symmetry_Int_Tables_number   1
_chemical_formula_structural   Na10Zn4O9
_chemical_formula_sum   'Na40 Zn16 O36'
_cell_volume   1255.00203789
_cell_formula_units_Z   4
loop_
 _symmetry_equiv_pos_site_id
 _symmetry_equiv_pos_as_xyz
  1  'x, y, z'
loop_
 _atom_site_type_symbol
 _atom_site_label
 _atom_site_symmetry_multiplicity
 _atom_site_fract_x
 _atom_site_fract_y
 _atom_site_fract_z
 _atom_site_occupancy
  Na  Na0  1  0.50000000  0.50012700  0.00000000  1
  Na  Na1  1  0.20394650  0.84775150  0.63181400  1
  Na  Na2  1  0.37854300  0.70666100  0.70832800  1
  Na  Na3  1  0.22389150  0.97467250  0.36100700  1
  Na  Na4  1  0.50000000  0.80032400  0.00000000  1
  Na  Na5  1  0.22488300  0.16558500  0.62542600  1
  Na  Na6  1  0.37574900  0.00647400  0.93840100  1
  Na  Na7  1  0.50000000  0.72776300  0.50000000  1
  Na  Na8  1  0.37324550  0.85831450  0.22547400  1
  Na  Na9  1  0.62145700  0.70666100  0.29167200  1
  Na  Na10  1  0.62675450  0.85831450  0.77452600  1
  Na  Na11  1  0.36042950  0.13192150  0.22764700  1
  Na  Na12  1  0.43655050  0.21625050  0.78909300  1
  Na  Na13  1  0.63957050  0.13192150  0.77235300  1
  Na  Na14  1  0.50000000  0.26284400  0.50000000  1
  Na  Na15  1  0.62425100  0.00647400  0.06159900  1
  Na  Na16  1  0.79605350  0.84775150  0.36818600  1
  Na  Na17  1  0.56344950  0.21625050  0.21090700  1
  Na  Na18  1  0.77610850  0.97467250  0.63899300  1
  Na  Na19  1  0.77511700  0.16558500  0.37457400  1
  Na  Na20  1  0.00000000  0.00012700  0.00000000  1
  Na  Na21  1  0.70394650  0.34775150  0.63181400  1
  Na  Na22  1  0.87854300  0.20666100  0.70832800  1
  Na  Na23  1  0.72389150  0.47467250  0.36100700  1
  Na  Na24  1  0.00000000  0.30032400  0.00000000  1
  Na  Na25  1  0.72488300  0.66558500  0.62542600  1
  Na  Na26  1  0.87574900  0.50647400  0.93840100  1
  Na  Na27  1  0.00000000  0.22776300  0.50000000  1
  Na  Na28  1  0.87324550  0.35831450  0.22547400  1
  Na  Na29  1  0.12145700  0.20666100  0.29167200  1
  Na  Na30  1  0.12675450  0.35831450  0.77452600  1
  Na  Na31  1  0.86042950  0.63192150  0.22764700  1
  Na  Na32  1  0.93655050  0.71625050  0.78909300  1
  Na  Na33  1  0.13957050  0.63192150  0.77235300  1
  Na  Na34  1  0.00000000  0.76284400  0.50000000  1
  Na  Na35  1  0.12425100  0.50647400  0.06159900  1
  Na  Na36  1  0.29605350  0.34775150  0.36818600  1
  Na  Na37  1  0.06344950  0.71625050  0.21090700  1
  Na  Na38  1  0.27610850  0.47467250  0.63899300  1
  Na  Na39  1  0.27511700  0.66558500  0.37457400  1
  Zn  Zn40  1  0.03146700  0.00469400  0.66863000  1
  Zn  Zn41  1  0.18613950  0.85002950  0.96963400  1
  Zn  Zn42  1  0.18024500  0.14827600  0.96856600  1
  Zn  Zn43  1  0.41665450  0.99376450  0.59547700  1
  Zn  Zn44  1  0.58334550  0.99376450  0.40452300  1
  Zn  Zn45  1  0.81386050  0.85002950  0.03036600  1
  Zn  Zn46  1  0.81975500  0.14827600  0.03143400  1
  Zn  Zn47  1  0.96853300  0.00469400  0.33137000  1
  Zn  Zn48  1  0.53146700  0.50469400  0.66863000  1
  Zn  Zn49  1  0.68613950  0.35002950  0.96963400  1
  Zn  Zn50  1  0.68024500  0.64827600  0.96856600  1
  Zn  Zn51  1  0.91665450  0.49376450  0.59547700  1
  Zn  Zn52  1  0.08334550  0.49376450  0.40452300  1
  Zn  Zn53  1  0.31386050  0.35002950  0.03036600  1
  Zn  Zn54  1  0.31975500  0.64827600  0.03143400  1
  Zn  Zn55  1  0.46853300  0.50469400  0.33137000  1
  O  O56  1  0.31290750  0.80457750  0.89382500  1
  O  O57  1  0.10739900  0.01956400  0.49466400  1
  O  O58  1  0.35464700  0.84519800  0.49190100  1
  O  O59  1  0.45472300  0.65505500  0.19280700  1
  O  O60  1  0.54527700  0.65505500  0.80719300  1
  O  O61  1  0.20917500  0.00010800  0.10233100  1
  O  O62  1  0.30057950  0.19876650  0.89093200  1
  O  O63  1  0.35364150  0.14763150  0.49618700  1
  O  O64  1  0.50811800  0.00559100  0.80522200  1
  O  O65  1  0.49188200  0.00559100  0.19477800  1
  O  O66  1  0.64535300  0.84519800  0.50809900  1
  O  O67  1  0.68709250  0.80457750  0.10617500  1
  O  O68  1  0.79082500  0.00010800  0.89766900  1
  O  O69  1  0.43424250  0.34448650  0.22230100  1
  O  O70  1  0.56575750  0.34448650  0.77769900  1
  O  O71  1  0.64635850  0.14763150  0.50381300  1
  O  O72  1  0.89260100  0.01956400  0.50533600  1
  O  O73  1  0.69942050  0.19876650  0.10906800  1
  O  O74  1  0.81290750  0.30457750  0.89382500  1
  O  O75  1  0.60739900  0.51956400  0.49466400  1
  O  O76  1  0.85464700  0.34519800  0.49190100  1
  O  O77  1  0.95472300  0.15505500  0.19280700  1
  O  O78  1  0.04527700  0.15505500  0.80719300  1
  O  O79  1  0.70917500  0.50010800  0.10233100  1
  O  O80  1  0.80057950  0.69876650  0.89093200  1
  O  O81  1  0.85364150  0.64763150  0.49618700  1
  O  O82  1  0.00811800  0.50559100  0.80522200  1
  O  O83  1  0.99188200  0.50559100  0.19477800  1
  O  O84  1  0.14535300  0.34519800  0.50809900  1
  O  O85  1  0.18709250  0.30457750  0.10617500  1
  O  O86  1  0.29082500  0.50010800  0.89766900  1
  O  O87  1  0.93424250  0.84448650  0.22230100  1
  O  O88  1  0.06575750  0.84448650  0.77769900  1
  O  O89  1  0.14635850  0.64763150  0.50381300  1
  O  O90  1  0.39260100  0.51956400  0.50533600  1
  O  O91  1  0.19942050  0.69876650  0.10906800  1
