# generated using pymatgen
data_La2PbS4
_symmetry_space_group_name_H-M   'P 1'
_cell_length_a   8.82746200
_cell_length_b   8.82746200
_cell_length_c   8.78419400
_cell_angle_alpha   90.00000000
_cell_angle_beta   90.00000000
_cell_angle_gamma   90.00000000
_symmetry_Int_Tables_number   1
_chemical_formula_structural   La2PbS4
_chemical_formula_sum   'La8 Pb4 S16'
_cell_volume   684.50028309
_cell_formula_units_Z   4
loop_
 _symmetry_equiv_pos_site_id
 _symmetry_equiv_pos_as_xyz
  1  'x, y, z'
loop_
 _atom_site_type_symbol
 _atom_site_label
 _atom_site_symmetry_multiplicity
 _atom_site_fract_x
 _atom_site_fract_y
 _atom_site_fract_z
 _atom_site_occupancy
  La  La0  1  0.25000000  0.13467400  0.12500000  1
  La  La1  1  0.25000000  0.36532600  0.62500000  1
  La  La2  1  0.86532600  0.25000000  0.87500000  1
  La  La3  1  0.63467400  0.25000000  0.37500000  1
  La  La4  1  0.75000000  0.63467400  0.62500000  1
  La  La5  1  0.75000000  0.86532600  0.12500000  1
  La  La6  1  0.36532600  0.75000000  0.37500000  1
  La  La7  1  0.13467400  0.75000000  0.87500000  1
  Pb  Pb8  1  0.50000000  0.00000000  0.75000000  1
  Pb  Pb9  1  0.00000000  0.00000000  0.50000000  1
  Pb  Pb10  1  0.00000000  0.50000000  0.25000000  1
  Pb  Pb11  1  0.50000000  0.50000000  0.00000000  1
  S  S12  1  0.57461050  0.32720750  0.69166650  1
  S  S13  1  0.57461050  0.17279250  0.05833350  1
  S  S14  1  0.92538950  0.32720750  0.55833350  1
  S  S15  1  0.82720750  0.57461050  0.94166650  1
  S  S16  1  0.82720750  0.92538950  0.80833350  1
  S  S17  1  0.67279250  0.92538950  0.44166650  1
  S  S18  1  0.67279250  0.57461050  0.30833350  1
  S  S19  1  0.92538950  0.17279250  0.19166650  1
  S  S20  1  0.07461050  0.82720750  0.19166650  1
  S  S21  1  0.07461050  0.67279250  0.55833350  1
  S  S22  1  0.42538950  0.82720750  0.05833350  1
  S  S23  1  0.32720750  0.07461050  0.44166650  1
  S  S24  1  0.32720750  0.42538950  0.30833350  1
  S  S25  1  0.17279250  0.42538950  0.94166650  1
  S  S26  1  0.17279250  0.07461050  0.80833350  1
  S  S27  1  0.42538950  0.67279250  0.69166650  1
