# generated using pymatgen
data_Rb6Br4O
_symmetry_space_group_name_H-M   'P 1'
_cell_length_a   13.36107553
_cell_length_b   13.36107553
_cell_length_c   16.75691933
_cell_angle_alpha   90.00000000
_cell_angle_beta   90.00000000
_cell_angle_gamma   120.00000000
_symmetry_Int_Tables_number   1
_chemical_formula_structural   Rb6Br4O
_chemical_formula_sum   'Rb36 Br24 O6'
_cell_volume   2590.64347266
_cell_formula_units_Z   6
loop_
 _symmetry_equiv_pos_site_id
 _symmetry_equiv_pos_as_xyz
  1  'x, y, z'
loop_
 _atom_site_type_symbol
 _atom_site_label
 _atom_site_symmetry_multiplicity
 _atom_site_fract_x
 _atom_site_fract_y
 _atom_site_fract_z
 _atom_site_occupancy
  Rb  Rb0  1  0.69235233  0.17987067  0.23754367  1
  Rb  Rb1  1  0.48751833  0.30764767  0.23754367  1
  Rb  Rb2  1  0.82012933  0.51248167  0.23754367  1
  Rb  Rb3  1  0.17987067  0.69235233  0.26245633  1
  Rb  Rb4  1  0.30764767  0.48751833  0.26245633  1
  Rb  Rb5  1  0.51248167  0.82012933  0.26245633  1
  Rb  Rb6  1  0.17914833  0.02568567  0.09578967  1
  Rb  Rb7  1  0.97431433  0.15346267  0.09578967  1
  Rb  Rb8  1  0.84653733  0.82085167  0.09578967  1
  Rb  Rb9  1  0.48679600  0.64098100  0.07087700  1
  Rb  Rb10  1  0.35901900  0.84581500  0.07087700  1
  Rb  Rb11  1  0.15418500  0.51320400  0.07087700  1
  Rb  Rb12  1  0.35901900  0.51320400  0.57087700  1
  Rb  Rb13  1  0.15418500  0.64098100  0.57087700  1
  Rb  Rb14  1  0.48679600  0.84581500  0.57087700  1
  Rb  Rb15  1  0.84653733  0.02568567  0.59578967  1
  Rb  Rb16  1  0.97431433  0.82085167  0.59578967  1
  Rb  Rb17  1  0.17914833  0.15346267  0.59578967  1
  Rb  Rb18  1  0.84581500  0.35901900  0.42912300  1
  Rb  Rb19  1  0.64098100  0.48679600  0.42912300  1
  Rb  Rb20  1  0.51320400  0.15418500  0.42912300  1
  Rb  Rb21  1  0.15346267  0.97431433  0.40421033  1
  Rb  Rb22  1  0.02568567  0.17914833  0.40421033  1
  Rb  Rb23  1  0.82085167  0.84653733  0.40421033  1
  Rb  Rb24  1  0.02568567  0.84653733  0.90421033  1
  Rb  Rb25  1  0.82085167  0.97431433  0.90421033  1
  Rb  Rb26  1  0.15346267  0.17914833  0.90421033  1
  Rb  Rb27  1  0.51320400  0.35901900  0.92912300  1
  Rb  Rb28  1  0.64098100  0.15418500  0.92912300  1
  Rb  Rb29  1  0.84581500  0.48679600  0.92912300  1
  Rb  Rb30  1  0.51248167  0.69235233  0.76245633  1
  Rb  Rb31  1  0.30764767  0.82012933  0.76245633  1
  Rb  Rb32  1  0.17987067  0.48751833  0.76245633  1
  Rb  Rb33  1  0.82012933  0.30764767  0.73754367  1
  Rb  Rb34  1  0.69235233  0.51248167  0.73754367  1
  Rb  Rb35  1  0.48751833  0.17987067  0.73754367  1
  Br  Br36  1  0.33333333  0.66666667  0.41666667  1
  Br  Br37  1  0.33333333  0.66666667  0.91666667  1
  Br  Br38  1  0.29568767  0.33333333  0.08333333  1
  Br  Br39  1  0.66666667  0.96235433  0.08333333  1
  Br  Br40  1  0.03764567  0.70431233  0.08333333  1
  Br  Br41  1  0.37097900  0.00000000  0.25000000  1
  Br  Br42  1  0.00000000  0.37097900  0.25000000  1
  Br  Br43  1  0.62902100  0.62902100  0.25000000  1
  Br  Br44  1  0.00000000  0.00000000  0.75000000  1
  Br  Br45  1  0.00000000  0.00000000  0.25000000  1
  Br  Br46  1  0.96235433  0.66666667  0.41666667  1
  Br  Br47  1  0.33333333  0.29568767  0.41666667  1
  Br  Br48  1  0.70431233  0.03764567  0.41666667  1
  Br  Br49  1  0.03764567  0.33333333  0.58333333  1
  Br  Br50  1  0.66666667  0.70431233  0.58333333  1
  Br  Br51  1  0.29568767  0.96235433  0.58333333  1
  Br  Br52  1  0.66666667  0.33333333  0.08333333  1
  Br  Br53  1  0.66666667  0.33333333  0.58333333  1
  Br  Br54  1  0.62902100  0.00000000  0.75000000  1
  Br  Br55  1  0.00000000  0.62902100  0.75000000  1
  Br  Br56  1  0.37097900  0.37097900  0.75000000  1
  Br  Br57  1  0.70431233  0.66666667  0.91666667  1
  Br  Br58  1  0.33333333  0.03764567  0.91666667  1
  Br  Br59  1  0.96235433  0.29568767  0.91666667  1
  O  O60  1  0.33333333  0.66666667  0.16666667  1
  O  O61  1  0.00000000  0.00000000  0.00000000  1
  O  O62  1  1.00000000  0.00000000  0.50000000  1
  O  O63  1  0.66666667  0.33333333  0.33333333  1
  O  O64  1  0.66666667  0.33333333  0.83333333  1
  O  O65  1  0.33333333  0.66666667  0.66666667  1
