# generated using pymatgen
data_Na8Al6Si6CO27
_symmetry_space_group_name_H-M   'P 1'
_cell_length_a   12.87953426
_cell_length_b   12.87953426
_cell_length_c   15.76806147
_cell_angle_alpha   90.00000000
_cell_angle_beta   90.00000000
_cell_angle_gamma   120.00000000
_symmetry_Int_Tables_number   1
_chemical_formula_structural   Na8Al6Si6CO27
_chemical_formula_sum   'Na24 Al18 Si18 C3 O81'
_cell_volume   2265.21408422
_cell_formula_units_Z   3
loop_
 _symmetry_equiv_pos_site_id
 _symmetry_equiv_pos_as_xyz
  1  'x, y, z'
loop_
 _atom_site_type_symbol
 _atom_site_label
 _atom_site_symmetry_multiplicity
 _atom_site_fract_x
 _atom_site_fract_y
 _atom_site_fract_z
 _atom_site_occupancy
  Na  Na0  1  0.78628933  0.21455967  0.39052367  1
  Na  Na1  1  0.78544033  0.57172967  0.39052367  1
  Na  Na2  1  0.63238933  0.81639167  0.59503267  1
  Na  Na3  1  0.00000000  0.00000000  0.29918900  1
  Na  Na4  1  0.18400233  0.36761067  0.59503267  1
  Na  Na5  1  0.18360833  0.81599767  0.59503267  1
  Na  Na6  1  0.00000000  0.00000000  0.80040900  1
  Na  Na7  1  0.42827033  0.21371067  0.39052367  1
  Na  Na8  1  0.45295600  0.54789300  0.72385700  1
  Na  Na9  1  0.45210700  0.90506300  0.72385700  1
  Na  Na10  1  0.29905600  0.14972500  0.92836600  1
  Na  Na11  1  0.66666667  0.33333333  0.63252233  1
  Na  Na12  1  0.85066900  0.70094400  0.92836600  1
  Na  Na13  1  0.85027500  0.14933100  0.92836600  1
  Na  Na14  1  0.66666667  0.33333333  0.13374233  1
  Na  Na15  1  0.09493700  0.54704400  0.72385700  1
  Na  Na16  1  0.11962267  0.88122633  0.05719033  1
  Na  Na17  1  0.11877367  0.23839633  0.05719033  1
  Na  Na18  1  0.96572267  0.48305833  0.26169933  1
  Na  Na19  1  0.33333333  0.66666667  0.96585567  1
  Na  Na20  1  0.51733567  0.03427733  0.26169933  1
  Na  Na21  1  0.51694167  0.48266433  0.26169933  1
  Na  Na22  1  0.33333333  0.66666667  0.46707567  1
  Na  Na23  1  0.76160367  0.88037733  0.05719033  1
  Al  Al24  1  0.58497567  0.91773733  0.41748333  1
  Al  Al25  1  0.75009200  0.75155000  0.25026500  1
  Al  Al26  1  0.00145800  0.24990800  0.25026500  1
  Al  Al27  1  0.24845000  0.99854200  0.25026500  1
  Al  Al28  1  0.08226267  0.66723833  0.41748333  1
  Al  Al29  1  0.33276167  0.41502433  0.41748333  1
  Al  Al30  1  0.25164233  0.25107067  0.75081667  1
  Al  Al31  1  0.41675867  0.08488333  0.58359833  1
  Al  Al32  1  0.66812467  0.58324133  0.58359833  1
  Al  Al33  1  0.91511667  0.33187533  0.58359833  1
  Al  Al34  1  0.74892933  0.00057167  0.75081667  1
  Al  Al35  1  0.99942833  0.74835767  0.75081667  1
  Al  Al36  1  0.91830900  0.58440400  0.08415000  1
  Al  Al37  1  0.08342533  0.41821667  0.91693167  1
  Al  Al38  1  0.33479133  0.91657467  0.91693167  1
  Al  Al39  1  0.58178333  0.66520867  0.91693167  1
  Al  Al40  1  0.41559600  0.33390500  0.08415000  1
  Al  Al41  1  0.66609500  0.08169100  0.08415000  1
  Si  Si42  1  0.75216867  0.00085633  0.25046233  1
  Si  Si43  1  0.58365067  0.66660933  0.41786133  1
  Si  Si44  1  0.99914367  0.75131233  0.25046233  1
  Si  Si45  1  0.08295867  0.41634933  0.41786133  1
  Si  Si46  1  0.24868767  0.24783133  0.25046233  1
  Si  Si47  1  0.33339067  0.91704133  0.41786133  1
  Si  Si48  1  0.41883533  0.33418967  0.58379567  1
  Si  Si49  1  0.25031733  0.99994267  0.75119467  1
  Si  Si50  1  0.66581033  0.08464567  0.58379567  1
  Si  Si51  1  0.74962533  0.74968267  0.75119467  1
  Si  Si52  1  0.91535433  0.58116467  0.58379567  1
  Si  Si53  1  0.00005733  0.25037467  0.75119467  1
  Si  Si54  1  0.08550200  0.66752300  0.91712900  1
  Si  Si55  1  0.91698400  0.33327600  0.08452800  1
  Si  Si56  1  0.33247700  0.41797900  0.91712900  1
  Si  Si57  1  0.41629200  0.08301600  0.08452800  1
  Si  Si58  1  0.58202100  0.91449800  0.91712900  1
  Si  Si59  1  0.66672400  0.58370800  0.08452800  1
  C  C60  1  0.00000000  0.00000000  0.99428900  1
  C  C61  1  0.66666667  0.33333333  0.32762233  1
  C  C62  1  0.33333333  0.66666667  0.66095567  1
  O  O63  1  0.80279733  0.90656267  0.25390167  1
  O  O64  1  0.59834500  0.79434600  0.45045200  1
  O  O65  1  0.45022033  0.72681867  0.66166967  1
  O  O66  1  0.66461733  0.03922867  0.48670767  1
  O  O67  1  0.86904733  0.73044367  0.28262467  1
  O  O68  1  0.86139633  0.13095267  0.28262467  1
  O  O69  1  0.66214767  0.63034533  0.48022233  1
  O  O70  1  0.70196433  0.00748867  0.64764267  1
  O  O71  1  0.09343733  0.89623467  0.25390167  1
  O  O72  1  0.70672133  0.70243667  0.65423567  1
  O  O73  1  0.10376533  0.19720267  0.25390167  1
  O  O74  1  0.96819767  0.33785233  0.48022233  1
  O  O75  1  0.96077133  0.62538867  0.48670767  1
  O  O76  1  0.79629167  0.89378433  0.75395333  1
  O  O77  1  0.26955633  0.13860367  0.28262467  1
  O  O78  1  0.99251133  0.69447567  0.64764267  1
  O  O79  1  0.19600100  0.40165500  0.45045200  1
  O  O80  1  0.99571533  0.29327867  0.65423567  1
  O  O81  1  0.20565400  0.80399900  0.45045200  1
  O  O82  1  0.37461133  0.33538267  0.48670767  1
  O  O83  1  0.10621567  0.90250733  0.75395333  1
  O  O84  1  0.09749267  0.20370833  0.75395333  1
  O  O85  1  0.36965467  0.03180233  0.48022233  1
  O  O86  1  0.27318133  0.72340167  0.66166967  1
  O  O87  1  0.27659833  0.54977967  0.66166967  1
  O  O88  1  0.30552433  0.29803567  0.64764267  1
  O  O89  1  0.29756333  0.00428467  0.65423567  1
  O  O90  1  0.46946400  0.23989600  0.58723500  1
  O  O91  1  0.26501167  0.12767933  0.78378533  1
  O  O92  1  0.11688700  0.06015200  0.99500300  1
  O  O93  1  0.33128400  0.37256200  0.82004100  1
  O  O94  1  0.53571400  0.06377700  0.61595800  1
  O  O95  1  0.52806300  0.46428600  0.61595800  1
  O  O96  1  0.32881433  0.96367867  0.81355567  1
  O  O97  1  0.36863100  0.34082200  0.98097600  1
  O  O98  1  0.76010400  0.22956800  0.58723500  1
  O  O99  1  0.37338800  0.03577000  0.98756900  1
  O  O100  1  0.77043200  0.53053600  0.58723500  1
  O  O101  1  0.63486433  0.67118567  0.81355567  1
  O  O102  1  0.62743800  0.95872200  0.82004100  1
  O  O103  1  0.46295833  0.22711767  0.08728667  1
  O  O104  1  0.93622300  0.47193700  0.61595800  1
  O  O105  1  0.65917800  0.02780900  0.98097600  1
  O  O106  1  0.86266767  0.73498833  0.78378533  1
  O  O107  1  0.66238200  0.62661200  0.98756900  1
  O  O108  1  0.87232067  0.13733233  0.78378533  1
  O  O109  1  0.04127800  0.66871600  0.82004100  1
  O  O110  1  0.77288233  0.23584067  0.08728667  1
  O  O111  1  0.76415933  0.53704167  0.08728667  1
  O  O112  1  0.03632133  0.36513567  0.81355567  1
  O  O113  1  0.93984800  0.05673500  0.99500300  1
  O  O114  1  0.94326500  0.88311300  0.99500300  1
  O  O115  1  0.97219100  0.63136900  0.98097600  1
  O  O116  1  0.96423000  0.33761800  0.98756900  1
  O  O117  1  0.13613067  0.57322933  0.92056833  1
  O  O118  1  0.93167833  0.46101267  0.11711867  1
  O  O119  1  0.78355367  0.39348533  0.32833633  1
  O  O120  1  0.99795067  0.70589533  0.15337433  1
  O  O121  1  0.20238067  0.39711033  0.94929133  1
  O  O122  1  0.19472967  0.79761933  0.94929133  1
  O  O123  1  0.99548100  0.29701200  0.14688900  1
  O  O124  1  0.03529767  0.67415533  0.31430933  1
  O  O125  1  0.42677067  0.56290133  0.92056833  1
  O  O126  1  0.04005467  0.36910333  0.32090233  1
  O  O127  1  0.43709867  0.86386933  0.92056833  1
  O  O128  1  0.30153100  0.00451900  0.14688900  1
  O  O129  1  0.29410467  0.29205533  0.15337433  1
  O  O130  1  0.12962500  0.56045100  0.42062000  1
  O  O131  1  0.60288967  0.80527033  0.94929133  1
  O  O132  1  0.32584467  0.36114233  0.31430933  1
  O  O133  1  0.52933433  0.06832167  0.11711867  1
  O  O134  1  0.32904867  0.95994533  0.32090233  1
  O  O135  1  0.53898733  0.47066567  0.11711867  1
  O  O136  1  0.70794467  0.00204933  0.15337433  1
  O  O137  1  0.43954900  0.56917400  0.42062000  1
  O  O138  1  0.43082600  0.87037500  0.42062000  1
  O  O139  1  0.70298800  0.69846900  0.14688900  1
  O  O140  1  0.60651467  0.39006833  0.32833633  1
  O  O141  1  0.60993167  0.21644633  0.32833633  1
  O  O142  1  0.63885767  0.96470233  0.31430933  1
  O  O143  1  0.63089667  0.67095133  0.32090233  1
