# generated using pymatgen
data_Ga2CuO4
_symmetry_space_group_name_H-M   'P 1'
_cell_length_a   5.72201800
_cell_length_b   5.87356000
_cell_length_c   8.86435800
_cell_angle_alpha   90.00000000
_cell_angle_beta   90.00000000
_cell_angle_gamma   90.00000000
_symmetry_Int_Tables_number   1
_chemical_formula_structural   Ga2CuO4
_chemical_formula_sum   'Ga8 Cu4 O16'
_cell_volume   297.91880450
_cell_formula_units_Z   4
loop_
 _symmetry_equiv_pos_site_id
 _symmetry_equiv_pos_as_xyz
  1  'x, y, z'
loop_
 _atom_site_type_symbol
 _atom_site_label
 _atom_site_symmetry_multiplicity
 _atom_site_fract_x
 _atom_site_fract_y
 _atom_site_fract_z
 _atom_site_occupancy
  Ga  Ga0  1  0.00000000  0.25000000  0.86089500  1
  Ga  Ga1  1  0.50000000  0.25000000  0.63910500  1
  Ga  Ga2  1  0.50000000  0.50000000  0.00000000  1
  Ga  Ga3  1  0.50000000  0.00000000  0.00000000  1
  Ga  Ga4  1  0.50000000  0.75000000  0.36089500  1
  Ga  Ga5  1  0.00000000  0.75000000  0.13910500  1
  Ga  Ga6  1  0.00000000  0.00000000  0.50000000  1
  Ga  Ga7  1  0.00000000  0.50000000  0.50000000  1
  Cu  Cu8  1  0.75000000  0.75000000  0.75000000  1
  Cu  Cu9  1  0.25000000  0.75000000  0.75000000  1
  Cu  Cu10  1  0.25000000  0.25000000  0.25000000  1
  Cu  Cu11  1  0.75000000  0.25000000  0.25000000  1
  O  O12  1  0.23525600  0.25000000  0.51169400  1
  O  O13  1  0.50000000  0.51304200  0.76644100  1
  O  O14  1  0.76474400  0.25000000  0.51169400  1
  O  O15  1  0.50000000  0.98695800  0.76644100  1
  O  O16  1  0.00000000  0.51304200  0.73355900  1
  O  O17  1  0.73525600  0.25000000  0.98830600  1
  O  O18  1  0.00000000  0.98695800  0.73355900  1
  O  O19  1  0.26474400  0.25000000  0.98830600  1
  O  O20  1  0.73525600  0.75000000  0.01169400  1
  O  O21  1  0.00000000  0.01304200  0.26644100  1
  O  O22  1  0.26474400  0.75000000  0.01169400  1
  O  O23  1  0.00000000  0.48695800  0.26644100  1
  O  O24  1  0.50000000  0.01304200  0.23355900  1
  O  O25  1  0.23525600  0.75000000  0.48830600  1
  O  O26  1  0.50000000  0.48695800  0.23355900  1
  O  O27  1  0.76474400  0.75000000  0.48830600  1
