# generated using pymatgen
data_Sr(SmSe2)2
_symmetry_space_group_name_H-M   'P 1'
_cell_length_a   9.00646000
_cell_length_b   9.00646000
_cell_length_c   8.98432200
_cell_angle_alpha   90.00000000
_cell_angle_beta   90.00000000
_cell_angle_gamma   90.00000000
_symmetry_Int_Tables_number   1
_chemical_formula_structural   Sr(SmSe2)2
_chemical_formula_sum   'Sr4 Sm8 Se16'
_cell_volume   728.77515389
_cell_formula_units_Z   4
loop_
 _symmetry_equiv_pos_site_id
 _symmetry_equiv_pos_as_xyz
  1  'x, y, z'
loop_
 _atom_site_type_symbol
 _atom_site_label
 _atom_site_symmetry_multiplicity
 _atom_site_fract_x
 _atom_site_fract_y
 _atom_site_fract_z
 _atom_site_occupancy
  Sr  Sr0  1  0.50000000  0.00000000  0.25000000  1
  Sr  Sr1  1  0.50000000  0.50000000  0.50000000  1
  Sr  Sr2  1  0.00000000  0.50000000  0.75000000  1
  Sr  Sr3  1  0.00000000  0.00000000  0.00000000  1
  Sm  Sm4  1  0.75000000  0.62558900  0.12500000  1
  Sm  Sm5  1  0.87441100  0.25000000  0.37500000  1
  Sm  Sm6  1  0.75000000  0.87441100  0.62500000  1
  Sm  Sm7  1  0.62558900  0.25000000  0.87500000  1
  Sm  Sm8  1  0.25000000  0.12558900  0.62500000  1
  Sm  Sm9  1  0.37441100  0.75000000  0.87500000  1
  Sm  Sm10  1  0.25000000  0.37441100  0.12500000  1
  Sm  Sm11  1  0.12558900  0.75000000  0.37500000  1
  Se  Se12  1  0.67216250  0.92391250  0.94057650  1
  Se  Se13  1  0.92391250  0.17216250  0.69057650  1
  Se  Se14  1  0.57608750  0.17216250  0.55942350  1
  Se  Se15  1  0.57608750  0.32783750  0.19057650  1
  Se  Se16  1  0.92391250  0.32783750  0.05942350  1
  Se  Se17  1  0.82783750  0.57608750  0.44057650  1
  Se  Se18  1  0.32783750  0.42391250  0.80942350  1
  Se  Se19  1  0.17216250  0.07608750  0.30942350  1
  Se  Se20  1  0.17216250  0.42391250  0.44057650  1
  Se  Se21  1  0.42391250  0.67216250  0.19057650  1
  Se  Se22  1  0.07608750  0.67216250  0.05942350  1
  Se  Se23  1  0.07608750  0.82783750  0.69057650  1
  Se  Se24  1  0.42391250  0.82783750  0.55942350  1
  Se  Se25  1  0.32783750  0.07608750  0.94057650  1
  Se  Se26  1  0.82783750  0.92391250  0.30942350  1
  Se  Se27  1  0.67216250  0.57608750  0.80942350  1
