# generated using pymatgen
data_Sn(PS3)2
_symmetry_space_group_name_H-M   'P 1'
_cell_length_a   6.12716813
_cell_length_b   6.12716813
_cell_length_c   20.85817442
_cell_angle_alpha   90.00000000
_cell_angle_beta   90.00000000
_cell_angle_gamma   120.00000000
_symmetry_Int_Tables_number   1
_chemical_formula_structural   Sn(PS3)2
_chemical_formula_sum   'Sn3 P6 S18'
_cell_volume   678.15117912
_cell_formula_units_Z   3
loop_
 _symmetry_equiv_pos_site_id
 _symmetry_equiv_pos_as_xyz
  1  'x, y, z'
loop_
 _atom_site_type_symbol
 _atom_site_label
 _atom_site_symmetry_multiplicity
 _atom_site_fract_x
 _atom_site_fract_y
 _atom_site_fract_z
 _atom_site_occupancy
  Sn  Sn0  1  0.33333333  0.66666667  0.33298067  1
  Sn  Sn1  1  0.00000000  0.00000000  0.66631400  1
  Sn  Sn2  1  0.66666667  0.33333333  0.99964733  1
  P  P3  1  0.00000000  0.00000000  0.27982200  1
  P  P4  1  0.33333333  0.66666667  0.05397467  1
  P  P5  1  0.66666667  0.33333333  0.61315533  1
  P  P6  1  0.00000000  0.00000000  0.38730800  1
  P  P7  1  0.33333333  0.66666667  0.94648867  1
  P  P8  1  0.66666667  0.33333333  0.72064133  1
  S  S9  1  0.31106100  0.32721200  0.25256200  1
  S  S10  1  0.01615100  0.68893900  0.25256200  1
  S  S11  1  0.67278800  0.98384900  0.25256200  1
  S  S12  1  0.35279333  0.99567367  0.08096767  1
  S  S13  1  0.64288033  0.64720667  0.08096767  1
  S  S14  1  0.00432633  0.35711967  0.08096767  1
  S  S15  1  0.97772767  0.66054533  0.58589533  1
  S  S16  1  0.68281767  0.02227233  0.58589533  1
  S  S17  1  0.33945467  0.31718233  0.58589533  1
  S  S18  1  0.01946000  0.32900700  0.41430100  1
  S  S19  1  0.30954700  0.98054000  0.41430100  1
  S  S20  1  0.67099300  0.69045300  0.41430100  1
  S  S21  1  0.64439433  0.99387867  0.91922867  1
  S  S22  1  0.34948433  0.35560567  0.91922867  1
  S  S23  1  0.00612133  0.65051567  0.91922867  1
  S  S24  1  0.68612667  0.66234033  0.74763433  1
  S  S25  1  0.97621367  0.31387333  0.74763433  1
  S  S26  1  0.33765967  0.02378633  0.74763433  1
