# generated using pymatgen
data_Zn3GaB6PO12
_symmetry_space_group_name_H-M   'P 1'
_cell_length_a   10.91303488
_cell_length_b   10.91303488
_cell_length_c   6.65003891
_cell_angle_alpha   90.00000000
_cell_angle_beta   90.00000000
_cell_angle_gamma   120.00000000
_symmetry_Int_Tables_number   1
_chemical_formula_structural   Zn3GaB6PO12
_chemical_formula_sum   'Zn9 Ga3 B18 P3 O36'
_cell_volume   685.87647113
_cell_formula_units_Z   3
loop_
 _symmetry_equiv_pos_site_id
 _symmetry_equiv_pos_as_xyz
  1  'x, y, z'
loop_
 _atom_site_type_symbol
 _atom_site_label
 _atom_site_symmetry_multiplicity
 _atom_site_fract_x
 _atom_site_fract_y
 _atom_site_fract_z
 _atom_site_occupancy
  Zn  Zn0  1  0.88863733  0.11136267  0.11103167  1
  Zn  Zn1  1  0.22197067  0.44394133  0.77769833  1
  Zn  Zn2  1  0.55605867  0.77802933  0.77769833  1
  Zn  Zn3  1  0.55530400  0.44469600  0.44436500  1
  Zn  Zn4  1  0.88863733  0.77727467  0.11103167  1
  Zn  Zn5  1  0.22272533  0.11136267  0.11103167  1
  Zn  Zn6  1  0.22197067  0.77802933  0.77769833  1
  Zn  Zn7  1  0.55530400  0.11060800  0.44436500  1
  Zn  Zn8  1  0.88939200  0.44469600  0.44436500  1
  Ga  Ga9  1  0.00000000  0.00000000  0.65283500  1
  Ga  Ga10  1  0.66666667  0.33333333  0.98616833  1
  Ga  Ga11  1  0.33333333  0.66666667  0.31950167  1
  B  B12  1  0.58336600  0.91868100  0.16740100  1
  B  B13  1  0.00198167  0.25201433  0.50073433  1
  B  B14  1  0.91669933  0.33135167  0.83406767  1
  B  B15  1  0.74798567  0.99801833  0.50073433  1
  B  B16  1  0.66864833  0.08330067  0.83406767  1
  B  B17  1  0.08131900  0.41663400  0.16740100  1
  B  B18  1  0.25003267  0.25201433  0.50073433  1
  B  B19  1  0.66864833  0.58534767  0.83406767  1
  B  B20  1  0.58336600  0.66468500  0.16740100  1
  B  B21  1  0.41465233  0.33135167  0.83406767  1
  B  B22  1  0.33531500  0.41663400  0.16740100  1
  B  B23  1  0.74798567  0.74996733  0.50073433  1
  B  B24  1  0.91669933  0.58534767  0.83406767  1
  B  B25  1  0.33531500  0.91868100  0.16740100  1
  B  B26  1  0.25003267  0.99801833  0.50073433  1
  B  B27  1  0.08131900  0.66468500  0.16740100  1
  B  B28  1  0.00198167  0.74996733  0.50073433  1
  B  B29  1  0.41465233  0.08330067  0.83406767  1
  P  P30  1  0.00000000  0.00000000  0.99229000  1
  P  P31  1  0.66666667  0.33333333  0.32562333  1
  P  P32  1  0.33333333  0.66666667  0.65895667  1
  O  O33  1  0.61758967  0.95189033  0.95229033  1
  O  O34  1  0.51754000  0.75877000  0.18981600  1
  O  O35  1  0.14215200  0.28430400  0.57806100  1
  O  O36  1  0.71477633  0.99903267  0.28562367  1
  O  O37  1  0.95092300  0.33236600  0.61895700  1
  O  O38  1  0.90789667  0.09210333  0.52314933  1
  O  O39  1  0.71569600  0.85784800  0.57806100  1
  O  O40  1  0.04810967  0.38241033  0.95229033  1
  O  O41  1  0.66763400  0.04907700  0.61895700  1
  O  O42  1  0.24123000  0.48246000  0.18981600  1
  O  O43  1  0.80881867  0.19118133  0.91139433  1
  O  O44  1  0.00096733  0.28522367  0.28562367  1
  O  O45  1  0.28425633  0.28522367  0.28562367  1
  O  O46  1  0.18420667  0.09210333  0.52314933  1
  O  O47  1  0.80881867  0.61763733  0.91139433  1
  O  O48  1  0.38144300  0.33236600  0.61895700  1
  O  O49  1  0.61758967  0.66569933  0.95229033  1
  O  O50  1  0.57456333  0.42543667  0.85648267  1
  O  O51  1  0.38236267  0.19118133  0.91139433  1
  O  O52  1  0.71477633  0.71574367  0.28562367  1
  O  O53  1  0.33430067  0.38241033  0.95229033  1
  O  O54  1  0.90789667  0.81579333  0.52314933  1
  O  O55  1  0.47548533  0.52451467  0.24472767  1
  O  O56  1  0.66763400  0.61855700  0.61895700  1
  O  O57  1  0.95092300  0.61855700  0.61895700  1
  O  O58  1  0.85087333  0.42543667  0.85648267  1
  O  O59  1  0.47548533  0.95097067  0.24472767  1
  O  O60  1  0.04810967  0.66569933  0.95229033  1
  O  O61  1  0.28425633  0.99903267  0.28562367  1
  O  O62  1  0.24123000  0.75877000  0.18981600  1
  O  O63  1  0.04902933  0.52451467  0.24472767  1
  O  O64  1  0.38144300  0.04907700  0.61895700  1
  O  O65  1  0.00096733  0.71574367  0.28562367  1
  O  O66  1  0.57456333  0.14912667  0.85648267  1
  O  O67  1  0.14215200  0.85784800  0.57806100  1
  O  O68  1  0.33430067  0.95189033  0.95229033  1
