# generated using pymatgen
data_AlCuO2
_symmetry_space_group_name_H-M   'P 1'
_cell_length_a   2.87874410
_cell_length_b   2.87874410
_cell_length_c   17.08277012
_cell_angle_alpha   90.00000000
_cell_angle_beta   90.00000000
_cell_angle_gamma   120.00000000
_symmetry_Int_Tables_number   1
_chemical_formula_structural   AlCuO2
_chemical_formula_sum   'Al3 Cu3 O6'
_cell_volume   122.60129301
_cell_formula_units_Z   3
loop_
 _symmetry_equiv_pos_site_id
 _symmetry_equiv_pos_as_xyz
  1  'x, y, z'
loop_
 _atom_site_type_symbol
 _atom_site_label
 _atom_site_symmetry_multiplicity
 _atom_site_fract_x
 _atom_site_fract_y
 _atom_site_fract_z
 _atom_site_occupancy
  Al  Al0  1  0.33333333  0.66666667  0.16666667  1
  Al  Al1  1  1.00000000  1.00000000  0.50000000  1
  Al  Al2  1  0.66666667  0.33333333  0.83333333  1
  Cu  Cu3  1  0.00000000  0.00000000  0.00000000  1
  Cu  Cu4  1  0.66666667  0.33333333  0.33333333  1
  Cu  Cu5  1  0.33333333  0.66666667  0.66666667  1
  O  O6  1  0.00000000  0.00000000  0.11004300  1
  O  O7  1  0.66666667  0.33333333  0.22329033  1
  O  O8  1  0.66666667  0.33333333  0.44337633  1
  O  O9  1  0.33333333  0.66666667  0.55662367  1
  O  O10  1  0.33333333  0.66666667  0.77670967  1
  O  O11  1  0.00000000  0.00000000  0.88995700  1
