# generated using pymatgen
data_Na7Zr6F31
_symmetry_space_group_name_H-M   'P 1'
_cell_length_a   14.01375553
_cell_length_b   14.01375553
_cell_length_c   9.60285897
_cell_angle_alpha   90.00000000
_cell_angle_beta   90.00000000
_cell_angle_gamma   120.00000000
_symmetry_Int_Tables_number   1
_chemical_formula_structural   Na7Zr6F31
_chemical_formula_sum   'Na21 Zr18 F93'
_cell_volume   1633.20332859
_cell_formula_units_Z   3
loop_
 _symmetry_equiv_pos_site_id
 _symmetry_equiv_pos_as_xyz
  1  'x, y, z'
loop_
 _atom_site_type_symbol
 _atom_site_label
 _atom_site_symmetry_multiplicity
 _atom_site_fract_x
 _atom_site_fract_y
 _atom_site_fract_z
 _atom_site_occupancy
  Na  Na0  1  0.69643633  0.91955767  0.49552967  1
  Na  Na1  1  0.77367933  0.69870967  0.51151667  1
  Na  Na2  1  0.92503033  0.22632067  0.51151667  1
  Na  Na3  1  0.00000000  0.00000000  0.50264000  1
  Na  Na4  1  0.08044233  0.77687867  0.49552967  1
  Na  Na5  1  0.22312133  0.30356367  0.49552967  1
  Na  Na6  1  0.30129033  0.07496967  0.51151667  1
  Na  Na7  1  0.36310300  0.25289100  0.82886300  1
  Na  Na8  1  0.44034600  0.03204300  0.84485000  1
  Na  Na9  1  0.59169700  0.55965400  0.84485000  1
  Na  Na10  1  0.66666667  0.33333333  0.83597333  1
  Na  Na11  1  0.74710900  0.11021200  0.82886300  1
  Na  Na12  1  0.88978800  0.63689700  0.82886300  1
  Na  Na13  1  0.96795700  0.40830300  0.84485000  1
  Na  Na14  1  0.02976967  0.58622433  0.16219633  1
  Na  Na15  1  0.10701267  0.36537633  0.17818333  1
  Na  Na16  1  0.25836367  0.89298733  0.17818333  1
  Na  Na17  1  0.33333333  0.66666667  0.16930667  1
  Na  Na18  1  0.41377567  0.44354533  0.16219633  1
  Na  Na19  1  0.55645467  0.97023033  0.16219633  1
  Na  Na20  1  0.63462367  0.74163633  0.17818333  1
  Zr  Zr21  1  0.85932533  0.05364367  0.18201367  1
  Zr  Zr22  1  0.94635633  0.80568167  0.18201367  1
  Zr  Zr23  1  0.81755100  0.86700900  0.82412600  1
  Zr  Zr24  1  0.19431833  0.14067467  0.18201367  1
  Zr  Zr25  1  0.04945800  0.18244900  0.82412600  1
  Zr  Zr26  1  0.13299100  0.95054200  0.82412600  1
  Zr  Zr27  1  0.52599200  0.38697700  0.51534700  1
  Zr  Zr28  1  0.61302300  0.13901500  0.51534700  1
  Zr  Zr29  1  0.48421767  0.20034233  0.15745933  1
  Zr  Zr30  1  0.86098500  0.47400800  0.51534700  1
  Zr  Zr31  1  0.71612467  0.51578233  0.15745933  1
  Zr  Zr32  1  0.79965767  0.28387533  0.15745933  1
  Zr  Zr33  1  0.19265867  0.72031033  0.84868033  1
  Zr  Zr34  1  0.27968967  0.47234833  0.84868033  1
  Zr  Zr35  1  0.15088433  0.53367567  0.49079267  1
  Zr  Zr36  1  0.52765167  0.80734133  0.84868033  1
  Zr  Zr37  1  0.38279133  0.84911567  0.49079267  1
  Zr  Zr38  1  0.46632433  0.61720867  0.49079267  1
  F  F39  1  0.54209300  0.71943600  0.66844500  1
  F  F40  1  0.62799500  0.72449900  0.42735300  1
  F  F41  1  0.71442933  0.17406167  0.33178367  1
  F  F42  1  0.77826867  0.68748033  0.24474233  1
  F  F43  1  0.72897233  0.09839267  0.57851667  1
  F  F44  1  0.69037200  0.91314200  0.76179900  1
  F  F45  1  0.82593833  0.54036767  0.33178367  1
  F  F46  1  0.87921533  0.91285367  0.21586067  1
  F  F47  1  0.90921167  0.22173133  0.24474233  1
  F  F48  1  0.87358900  0.05477900  0.39637700  1
  F  F49  1  0.81399733  0.87042567  0.60620667  1
  F  F50  1  0.94522100  0.81881000  0.39637700  1
  F  F51  1  0.90160733  0.63057967  0.57851667  1
  F  F52  1  0.03363833  0.12078467  0.21586067  1
  F  F53  1  0.90348400  0.03708400  0.75722100  1
  F  F54  1  0.08714633  0.96636167  0.21586067  1
  F  F55  1  0.96291600  0.86640000  0.75722100  1
  F  F56  1  0.09650400  0.37200500  0.42735300  1
  F  F57  1  0.05642833  0.18600267  0.60620667  1
  F  F58  1  0.00000000  0.00000000  0.94028500  1
  F  F59  1  0.18119000  0.12641100  0.39637700  1
  F  F60  1  0.12957433  0.94357167  0.60620667  1
  F  F61  1  0.08685800  0.77723000  0.76179900  1
  F  F62  1  0.13360000  0.09651600  0.75722100  1
  F  F63  1  0.17734300  0.45790700  0.66844500  1
  F  F64  1  0.31251967  0.09078833  0.24474233  1
  F  F65  1  0.27550100  0.90349600  0.42735300  1
  F  F66  1  0.22277000  0.30962800  0.76179900  1
  F  F67  1  0.28056400  0.82265700  0.66844500  1
  F  F68  1  0.36942033  0.27102767  0.57851667  1
  F  F69  1  0.45963233  0.28557067  0.33178367  1
  F  F70  1  0.20875967  0.05276933  0.00177833  1
  F  F71  1  0.29466167  0.05783233  0.76068633  1
  F  F72  1  0.38109600  0.50739500  0.66511700  1
  F  F73  1  0.44493533  0.02081367  0.57807567  1
  F  F74  1  0.39563900  0.43172600  0.91185000  1
  F  F75  1  0.35703867  0.24647533  0.09513233  1
  F  F76  1  0.49260500  0.87370100  0.66511700  1
  F  F77  1  0.54588200  0.24618700  0.54919400  1
  F  F78  1  0.57587833  0.55506467  0.57807567  1
  F  F79  1  0.54025567  0.38811233  0.72971033  1
  F  F80  1  0.48066400  0.20375900  0.93954000  1
  F  F81  1  0.61188767  0.15214333  0.72971033  1
  F  F82  1  0.56827400  0.96391300  0.91185000  1
  F  F83  1  0.70030500  0.45411800  0.54919400  1
  F  F84  1  0.57015067  0.37041733  0.09055433  1
  F  F85  1  0.75381300  0.29969500  0.54919400  1
  F  F86  1  0.62958267  0.19973333  0.09055433  1
  F  F87  1  0.76317067  0.70533833  0.76068633  1
  F  F88  1  0.72309500  0.51933600  0.93954000  1
  F  F89  1  0.66666667  0.33333333  0.27361833  1
  F  F90  1  0.84785667  0.45974433  0.72971033  1
  F  F91  1  0.79624100  0.27690500  0.93954000  1
  F  F92  1  0.75352467  0.11056333  0.09513233  1
  F  F93  1  0.80026667  0.42984933  0.09055433  1
  F  F94  1  0.84400967  0.79124033  0.00177833  1
  F  F95  1  0.97918633  0.42412167  0.57807567  1
  F  F96  1  0.94216767  0.23682933  0.76068633  1
  F  F97  1  0.88943667  0.64296133  0.09513233  1
  F  F98  1  0.94723067  0.15599033  0.00177833  1
  F  F99  1  0.03608700  0.60436100  0.91185000  1
  F  F100  1  0.12629900  0.61890400  0.66511700  1
  F  F101  1  0.87542633  0.38610267  0.33511167  1
  F  F102  1  0.96132833  0.39116567  0.09401967  1
  F  F103  1  0.04776267  0.84072833  0.99845033  1
  F  F104  1  0.11160200  0.35414700  0.91140900  1
  F  F105  1  0.06230567  0.76505933  0.24518333  1
  F  F106  1  0.02370533  0.57980867  0.42846567  1
  F  F107  1  0.15927167  0.20703433  0.99845033  1
  F  F108  1  0.21254867  0.57952033  0.88252733  1
  F  F109  1  0.24254500  0.88839800  0.91140900  1
  F  F110  1  0.20692233  0.72144567  0.06304367  1
  F  F111  1  0.14733067  0.53709233  0.27287333  1
  F  F112  1  0.27855433  0.48547667  0.06304367  1
  F  F113  1  0.23494067  0.29724633  0.24518333  1
  F  F114  1  0.36697167  0.78745133  0.88252733  1
  F  F115  1  0.23681733  0.70375067  0.42388767  1
  F  F116  1  0.42047967  0.63302833  0.88252733  1
  F  F117  1  0.29624933  0.53306667  0.42388767  1
  F  F118  1  0.42983733  0.03867167  0.09401967  1
  F  F119  1  0.38976167  0.85266933  0.27287333  1
  F  F120  1  0.33333333  0.66666667  0.60695167  1
  F  F121  1  0.51452333  0.79307767  0.06304367  1
  F  F122  1  0.46290767  0.61023833  0.27287333  1
  F  F123  1  0.42019133  0.44389667  0.42846567  1
  F  F124  1  0.46693333  0.76318267  0.42388767  1
  F  F125  1  0.51067633  0.12457367  0.33511167  1
  F  F126  1  0.64585300  0.75745500  0.91140900  1
  F  F127  1  0.60883433  0.57016267  0.09401967  1
  F  F128  1  0.55610333  0.97629467  0.42846567  1
  F  F129  1  0.61389733  0.48932367  0.33511167  1
  F  F130  1  0.70275367  0.93769433  0.24518333  1
  F  F131  1  0.79296567  0.95223733  0.99845033  1
