# generated using pymatgen
data_K6Fe2O5
_symmetry_space_group_name_H-M   'P 1'
_cell_length_a   7.01074800
_cell_length_b   11.58680600
_cell_length_c   6.78917481
_cell_angle_alpha   90.00000000
_cell_angle_beta   92.84209024
_cell_angle_gamma   90.00000000
_symmetry_Int_Tables_number   1
_chemical_formula_structural   K6Fe2O5
_chemical_formula_sum   'K12 Fe4 O10'
_cell_volume   550.82109531
_cell_formula_units_Z   2
loop_
 _symmetry_equiv_pos_site_id
 _symmetry_equiv_pos_as_xyz
  1  'x, y, z'
loop_
 _atom_site_type_symbol
 _atom_site_label
 _atom_site_symmetry_multiplicity
 _atom_site_fract_x
 _atom_site_fract_y
 _atom_site_fract_z
 _atom_site_occupancy
  K  K0  1  0.50159500  0.28892000  0.00569800  1
  K  K1  1  0.63582900  0.00000000  0.82869100  1
  K  K2  1  0.50045700  0.74319000  0.49697700  1
  K  K3  1  0.50045700  0.25681000  0.49697700  1
  K  K4  1  0.35596200  0.00000000  0.17300600  1
  K  K5  1  0.50159500  0.71108000  0.00569800  1
  K  K6  1  0.00159500  0.78892000  0.00569800  1
  K  K7  1  0.13582900  0.50000000  0.82869100  1
  K  K8  1  0.00045700  0.24319000  0.49697700  1
  K  K9  1  0.00045700  0.75681000  0.49697700  1
  K  K10  1  0.85596200  0.50000000  0.17300600  1
  K  K11  1  0.00159500  0.21108000  0.00569800  1
  Fe  Fe12  1  0.20945700  0.00000000  0.66872300  1
  Fe  Fe13  1  0.81035600  0.00000000  0.30337400  1
  Fe  Fe14  1  0.70945700  0.50000000  0.66872300  1
  Fe  Fe15  1  0.31035600  0.50000000  0.30337400  1
  O  O16  1  0.29830800  0.85936600  0.78095100  1
  O  O17  1  0.29830800  0.14063400  0.78095100  1
  O  O18  1  0.07162600  0.00000000  0.41277800  1
  O  O19  1  0.69382550  0.14069150  0.22853800  1
  O  O20  1  0.69382550  0.85930850  0.22853800  1
  O  O21  1  0.79830800  0.35936600  0.78095100  1
  O  O22  1  0.79830800  0.64063400  0.78095100  1
  O  O23  1  0.57162600  0.50000000  0.41277800  1
  O  O24  1  0.19382550  0.64069150  0.22853800  1
  O  O25  1  0.19382550  0.35930850  0.22853800  1
