# generated using pymatgen
data_Ti3Zn2O8
_symmetry_space_group_name_H-M   'P 1'
_cell_length_a   6.01333208
_cell_length_b   6.01333208
_cell_length_c   14.38534130
_cell_angle_alpha   90.00000000
_cell_angle_beta   90.00000000
_cell_angle_gamma   120.00000000
_symmetry_Int_Tables_number   1
_chemical_formula_structural   Ti3Zn2O8
_chemical_formula_sum   'Ti9 Zn6 O24'
_cell_volume   450.48587423
_cell_formula_units_Z   3
loop_
 _symmetry_equiv_pos_site_id
 _symmetry_equiv_pos_as_xyz
  1  'x, y, z'
loop_
 _atom_site_type_symbol
 _atom_site_label
 _atom_site_symmetry_multiplicity
 _atom_site_fract_x
 _atom_site_fract_y
 _atom_site_fract_z
 _atom_site_occupancy
  Ti  Ti0  1  0.33333333  0.16666667  0.16666667  1
  Ti  Ti1  1  0.16666667  0.33333333  0.83333333  1
  Ti  Ti2  1  0.83333333  0.16666667  0.16666667  1
  Ti  Ti3  1  0.00000000  0.50000000  0.50000000  1
  Ti  Ti4  1  0.83333333  0.66666667  0.16666667  1
  Ti  Ti5  1  0.50000000  0.50000000  0.50000000  1
  Ti  Ti6  1  0.66666667  0.83333333  0.83333333  1
  Ti  Ti7  1  0.50000000  0.00000000  0.50000000  1
  Ti  Ti8  1  0.16666667  0.83333333  0.83333333  1
  Zn  Zn9  1  0.33333333  0.66666667  0.28222867  1
  Zn  Zn10  1  0.33333333  0.66666667  0.05110467  1
  Zn  Zn11  1  0.00000000  0.00000000  0.61556200  1
  Zn  Zn12  1  0.00000000  0.00000000  0.38443800  1
  Zn  Zn13  1  0.66666667  0.33333333  0.94889533  1
  Zn  Zn14  1  0.66666667  0.33333333  0.71777133  1
  O  O15  1  0.15503033  0.84496967  0.09745667  1
  O  O16  1  0.15503033  0.31006067  0.09745667  1
  O  O17  1  0.68993933  0.84496967  0.09745667  1
  O  O18  1  0.33333333  0.66666667  0.90988167  1
  O  O19  1  0.33333333  0.66666667  0.42345167  1
  O  O20  1  0.51163633  0.02327267  0.23587667  1
  O  O21  1  0.97672733  0.48836367  0.23587667  1
  O  O22  1  0.51163633  0.48836367  0.23587667  1
  O  O23  1  0.82169700  0.17830300  0.43079000  1
  O  O24  1  0.82169700  0.64339400  0.43079000  1
  O  O25  1  0.35660600  0.17830300  0.43079000  1
  O  O26  1  0.00000000  0.00000000  0.24321500  1
  O  O27  1  0.00000000  0.00000000  0.75678500  1
  O  O28  1  0.17830300  0.35660600  0.56921000  1
  O  O29  1  0.64339400  0.82169700  0.56921000  1
  O  O30  1  0.17830300  0.82169700  0.56921000  1
  O  O31  1  0.48836367  0.51163633  0.76412333  1
  O  O32  1  0.48836367  0.97672733  0.76412333  1
  O  O33  1  0.02327267  0.51163633  0.76412333  1
  O  O34  1  0.66666667  0.33333333  0.57654833  1
  O  O35  1  0.66666667  0.33333333  0.09011833  1
  O  O36  1  0.84496967  0.68993933  0.90254333  1
  O  O37  1  0.31006067  0.15503033  0.90254333  1
  O  O38  1  0.84496967  0.15503033  0.90254333  1
