# generated using pymatgen
data_NaBiSe2
_symmetry_space_group_name_H-M   'P 1'
_cell_length_a   5.93613200
_cell_length_b   5.93613200
_cell_length_c   12.31788400
_cell_angle_alpha   90.00000000
_cell_angle_beta   90.00000000
_cell_angle_gamma   90.00000000
_symmetry_Int_Tables_number   1
_chemical_formula_structural   NaBiSe2
_chemical_formula_sum   'Na4 Bi4 Se8'
_cell_volume   434.05344676
_cell_formula_units_Z   4
loop_
 _symmetry_equiv_pos_site_id
 _symmetry_equiv_pos_as_xyz
  1  'x, y, z'
loop_
 _atom_site_type_symbol
 _atom_site_label
 _atom_site_symmetry_multiplicity
 _atom_site_fract_x
 _atom_site_fract_y
 _atom_site_fract_z
 _atom_site_occupancy
  Na  Na0  1  0.00000000  0.00000000  0.00000000  1
  Na  Na1  1  0.00000000  0.50000000  0.25000000  1
  Na  Na2  1  0.50000000  0.50000000  0.50000000  1
  Na  Na3  1  0.50000000  0.00000000  0.75000000  1
  Bi  Bi4  1  0.50000000  0.50000000  0.00000000  1
  Bi  Bi5  1  0.50000000  0.00000000  0.25000000  1
  Bi  Bi6  1  0.00000000  0.00000000  0.50000000  1
  Bi  Bi7  1  0.00000000  0.50000000  0.75000000  1
  Se  Se8  1  0.50000000  0.50000000  0.24012300  1
  Se  Se9  1  0.50000000  0.00000000  0.49012300  1
  Se  Se10  1  0.00000000  0.00000000  0.25987700  1
  Se  Se11  1  0.50000000  0.00000000  0.00987700  1
  Se  Se12  1  0.00000000  0.00000000  0.74012300  1
  Se  Se13  1  0.00000000  0.50000000  0.99012300  1
  Se  Se14  1  0.50000000  0.50000000  0.75987700  1
  Se  Se15  1  0.00000000  0.50000000  0.50987700  1
