# generated using pymatgen
data_La2CdSe4
_symmetry_space_group_name_H-M   'P 1'
_cell_length_a   8.93262800
_cell_length_b   8.93262800
_cell_length_c   9.40390200
_cell_angle_alpha   90.00000000
_cell_angle_beta   90.00000000
_cell_angle_gamma   90.00000000
_symmetry_Int_Tables_number   1
_chemical_formula_structural   La2CdSe4
_chemical_formula_sum   'La8 Cd4 Se16'
_cell_volume   750.35467184
_cell_formula_units_Z   4
loop_
 _symmetry_equiv_pos_site_id
 _symmetry_equiv_pos_as_xyz
  1  'x, y, z'
loop_
 _atom_site_type_symbol
 _atom_site_label
 _atom_site_symmetry_multiplicity
 _atom_site_fract_x
 _atom_site_fract_y
 _atom_site_fract_z
 _atom_site_occupancy
  La  La0  1  0.36195700  0.75000000  0.62500000  1
  La  La1  1  0.25000000  0.36195700  0.37500000  1
  La  La2  1  0.13804300  0.75000000  0.12500000  1
  La  La3  1  0.25000000  0.13804300  0.87500000  1
  La  La4  1  0.86195700  0.25000000  0.12500000  1
  La  La5  1  0.75000000  0.86195700  0.87500000  1
  La  La6  1  0.63804300  0.25000000  0.62500000  1
  La  La7  1  0.75000000  0.63804300  0.37500000  1
  Cd  Cd8  1  0.50000000  0.00000000  0.25000000  1
  Cd  Cd9  1  0.00000000  0.00000000  0.50000000  1
  Cd  Cd10  1  0.00000000  0.50000000  0.75000000  1
  Cd  Cd11  1  0.50000000  0.50000000  0.00000000  1
  Se  Se12  1  0.43060600  0.69487000  0.31056300  1
  Se  Se13  1  0.30513000  0.06939400  0.56056300  1
  Se  Se14  1  0.19487000  0.06939400  0.18943700  1
  Se  Se15  1  0.56939400  0.30513000  0.31056300  1
  Se  Se16  1  0.19487000  0.43060600  0.06056300  1
  Se  Se17  1  0.56939400  0.19487000  0.93943700  1
  Se  Se18  1  0.93060600  0.30513000  0.43943700  1
  Se  Se19  1  0.80513000  0.93060600  0.18943700  1
  Se  Se20  1  0.93060600  0.19487000  0.81056300  1
  Se  Se21  1  0.80513000  0.56939400  0.06056300  1
  Se  Se22  1  0.69487000  0.56939400  0.68943700  1
  Se  Se23  1  0.06939400  0.80513000  0.81056300  1
  Se  Se24  1  0.69487000  0.93060600  0.56056300  1
  Se  Se25  1  0.06939400  0.69487000  0.43943700  1
  Se  Se26  1  0.43060600  0.80513000  0.93943700  1
  Se  Se27  1  0.30513000  0.43060600  0.68943700  1
