# generated using pymatgen
data_Sr3(BS3)2
_symmetry_space_group_name_H-M   'P 1'
_cell_length_a   10.30800400
_cell_length_b   6.66807200
_cell_length_c   15.60156721
_cell_angle_alpha   90.00000000
_cell_angle_beta   102.12273495
_cell_angle_gamma   90.00000000
_symmetry_Int_Tables_number   1
_chemical_formula_structural   Sr3(BS3)2
_chemical_formula_sum   'Sr12 B8 S24'
_cell_volume   1048.45233938
_cell_formula_units_Z   4
loop_
 _symmetry_equiv_pos_site_id
 _symmetry_equiv_pos_as_xyz
  1  'x, y, z'
loop_
 _atom_site_type_symbol
 _atom_site_label
 _atom_site_symmetry_multiplicity
 _atom_site_fract_x
 _atom_site_fract_y
 _atom_site_fract_z
 _atom_site_occupancy
  Sr  Sr0  1  0.83737200  0.48521400  0.41307600  1
  Sr  Sr1  1  0.16262800  0.48521400  0.08692400  1
  Sr  Sr2  1  0.16262800  0.51478600  0.58692400  1
  Sr  Sr3  1  0.83737200  0.51478600  0.91307600  1
  Sr  Sr4  1  0.00000000  0.97966200  0.25000000  1
  Sr  Sr5  1  0.00000000  0.02033800  0.75000000  1
  Sr  Sr6  1  0.33737200  0.98521400  0.41307600  1
  Sr  Sr7  1  0.66262800  0.98521400  0.08692400  1
  Sr  Sr8  1  0.66262800  0.01478600  0.58692400  1
  Sr  Sr9  1  0.33737200  0.01478600  0.91307600  1
  Sr  Sr10  1  0.50000000  0.47966200  0.25000000  1
  Sr  Sr11  1  0.50000000  0.52033800  0.75000000  1
  B  B12  1  0.13867650  0.39564450  0.36474500  1
  B  B13  1  0.86132350  0.39564450  0.13525500  1
  B  B14  1  0.86132350  0.60435550  0.63525500  1
  B  B15  1  0.13867650  0.60435550  0.86474500  1
  B  B16  1  0.63867650  0.89564450  0.36474500  1
  B  B17  1  0.36132350  0.89564450  0.13525500  1
  B  B18  1  0.36132350  0.10435550  0.63525500  1
  B  B19  1  0.63867650  0.10435550  0.86474500  1
  S  S20  1  0.07490450  0.20240150  0.42923200  1
  S  S21  1  0.92509550  0.20240150  0.07076800  1
  S  S22  1  0.22163900  0.69514900  0.78026200  1
  S  S23  1  0.77836100  0.69514900  0.71973800  1
  S  S24  1  0.77836100  0.30485100  0.21973800  1
  S  S25  1  0.22163900  0.30485100  0.28026200  1
  S  S26  1  0.11079650  0.34315450  0.89236800  1
  S  S27  1  0.88920350  0.34315450  0.60763200  1
  S  S28  1  0.88920350  0.65684550  0.10763200  1
  S  S29  1  0.11079650  0.65684550  0.39236800  1
  S  S30  1  0.07490450  0.79759850  0.92923200  1
  S  S31  1  0.92509550  0.79759850  0.57076800  1
  S  S32  1  0.57490450  0.70240150  0.42923200  1
  S  S33  1  0.42509550  0.70240150  0.07076800  1
  S  S34  1  0.72163900  0.19514900  0.78026200  1
  S  S35  1  0.27836100  0.19514900  0.71973800  1
  S  S36  1  0.27836100  0.80485100  0.21973800  1
  S  S37  1  0.72163900  0.80485100  0.28026200  1
  S  S38  1  0.61079650  0.84315450  0.89236800  1
  S  S39  1  0.38920350  0.84315450  0.60763200  1
  S  S40  1  0.38920350  0.15684550  0.10763200  1
  S  S41  1  0.61079650  0.15684550  0.39236800  1
  S  S42  1  0.57490450  0.29759850  0.92923200  1
  S  S43  1  0.42509550  0.29759850  0.57076800  1
