# generated using pymatgen
data_Hg3TeO6
_symmetry_space_group_name_H-M   'P 1'
_cell_length_a   13.89654000
_cell_length_b   13.89654000
_cell_length_c   13.89654000
_cell_angle_alpha   90.00000000
_cell_angle_beta   90.00000000
_cell_angle_gamma   90.00000000
_symmetry_Int_Tables_number   1
_chemical_formula_structural   Hg3TeO6
_chemical_formula_sum   'Hg48 Te16 O96'
_cell_volume   2683.61397937
_cell_formula_units_Z   16
loop_
 _symmetry_equiv_pos_site_id
 _symmetry_equiv_pos_as_xyz
  1  'x, y, z'
loop_
 _atom_site_type_symbol
 _atom_site_label
 _atom_site_symmetry_multiplicity
 _atom_site_fract_x
 _atom_site_fract_y
 _atom_site_fract_z
 _atom_site_occupancy
  Hg  Hg0  1  0.70004850  0.04734950  0.12517050  1
  Hg  Hg1  1  0.29995150  0.54734950  0.37482950  1
  Hg  Hg2  1  0.20004850  0.45265050  0.87482950  1
  Hg  Hg3  1  0.45265050  0.12517050  0.29995150  1
  Hg  Hg4  1  0.12517050  0.29995150  0.45265050  1
  Hg  Hg5  1  0.12517050  0.70004850  0.04734950  1
  Hg  Hg6  1  0.54734950  0.37482950  0.29995150  1
  Hg  Hg7  1  0.87482950  0.20004850  0.45265050  1
  Hg  Hg8  1  0.04734950  0.12517050  0.70004850  1
  Hg  Hg9  1  0.37482950  0.29995150  0.54734950  1
  Hg  Hg10  1  0.45265050  0.87482950  0.20004850  1
  Hg  Hg11  1  0.29995150  0.45265050  0.12517050  1
  Hg  Hg12  1  0.79995150  0.45265050  0.37482950  1
  Hg  Hg13  1  0.20004850  0.95265050  0.12517050  1
  Hg  Hg14  1  0.29995150  0.04734950  0.62517050  1
  Hg  Hg15  1  0.04734950  0.37482950  0.20004850  1
  Hg  Hg16  1  0.37482950  0.20004850  0.04734950  1
  Hg  Hg17  1  0.37482950  0.79995150  0.45265050  1
  Hg  Hg18  1  0.95265050  0.12517050  0.20004850  1
  Hg  Hg19  1  0.62517050  0.29995150  0.04734950  1
  Hg  Hg20  1  0.45265050  0.37482950  0.79995150  1
  Hg  Hg21  1  0.12517050  0.20004850  0.95265050  1
  Hg  Hg22  1  0.04734950  0.62517050  0.29995150  1
  Hg  Hg23  1  0.20004850  0.04734950  0.37482950  1
  Hg  Hg24  1  0.20004850  0.54734950  0.62517050  1
  Hg  Hg25  1  0.79995150  0.04734950  0.87482950  1
  Hg  Hg26  1  0.70004850  0.95265050  0.37482950  1
  Hg  Hg27  1  0.95265050  0.62517050  0.79995150  1
  Hg  Hg28  1  0.62517050  0.79995150  0.95265050  1
  Hg  Hg29  1  0.62517050  0.20004850  0.54734950  1
  Hg  Hg30  1  0.04734950  0.87482950  0.79995150  1
  Hg  Hg31  1  0.37482950  0.70004850  0.95265050  1
  Hg  Hg32  1  0.54734950  0.62517050  0.20004850  1
  Hg  Hg33  1  0.87482950  0.79995150  0.04734950  1
  Hg  Hg34  1  0.95265050  0.37482950  0.70004850  1
  Hg  Hg35  1  0.79995150  0.95265050  0.62517050  1
  Hg  Hg36  1  0.29995150  0.95265050  0.87482950  1
  Hg  Hg37  1  0.70004850  0.45265050  0.62517050  1
  Hg  Hg38  1  0.79995150  0.54734950  0.12517050  1
  Hg  Hg39  1  0.54734950  0.87482950  0.70004850  1
  Hg  Hg40  1  0.87482950  0.70004850  0.54734950  1
  Hg  Hg41  1  0.87482950  0.29995150  0.95265050  1
  Hg  Hg42  1  0.45265050  0.62517050  0.70004850  1
  Hg  Hg43  1  0.12517050  0.79995150  0.54734950  1
  Hg  Hg44  1  0.95265050  0.87482950  0.29995150  1
  Hg  Hg45  1  0.62517050  0.70004850  0.45265050  1
  Hg  Hg46  1  0.54734950  0.12517050  0.79995150  1
  Hg  Hg47  1  0.70004850  0.54734950  0.87482950  1
  Te  Te48  1  0.75000000  0.25000000  0.25000000  1
  Te  Te49  1  0.25000000  0.25000000  0.75000000  1
  Te  Te50  1  0.25000000  0.75000000  0.25000000  1
  Te  Te51  1  0.25000000  0.25000000  0.25000000  1
  Te  Te52  1  0.00000000  0.50000000  0.00000000  1
  Te  Te53  1  0.00000000  0.00000000  0.00000000  1
  Te  Te54  1  0.50000000  0.00000000  0.00000000  1
  Te  Te55  1  0.00000000  0.00000000  0.50000000  1
  Te  Te56  1  0.25000000  0.75000000  0.75000000  1
  Te  Te57  1  0.75000000  0.75000000  0.25000000  1
  Te  Te58  1  0.75000000  0.25000000  0.75000000  1
  Te  Te59  1  0.75000000  0.75000000  0.75000000  1
  Te  Te60  1  0.50000000  0.00000000  0.50000000  1
  Te  Te61  1  0.50000000  0.50000000  0.50000000  1
  Te  Te62  1  0.00000000  0.50000000  0.50000000  1
  Te  Te63  1  0.50000000  0.50000000  0.00000000  1
  O  O64  1  0.60765350  0.24846850  0.24792050  1
  O  O65  1  0.39234650  0.74846850  0.25207950  1
  O  O66  1  0.60765350  0.75153150  0.25207950  1
  O  O67  1  0.25153150  0.24792050  0.39234650  1
  O  O68  1  0.24792050  0.39234650  0.25153150  1
  O  O69  1  0.24792050  0.60765350  0.24846850  1
  O  O70  1  0.74846850  0.25207950  0.39234650  1
  O  O71  1  0.25207950  0.60765350  0.75153150  1
  O  O72  1  0.24846850  0.24792050  0.60765350  1
  O  O73  1  0.25207950  0.39234650  0.74846850  1
  O  O74  1  0.75153150  0.25207950  0.60765350  1
  O  O75  1  0.39234650  0.25153150  0.24792050  1
  O  O76  1  0.89234650  0.25153150  0.25207950  1
  O  O77  1  0.10765350  0.75153150  0.24792050  1
  O  O78  1  0.89234650  0.74846850  0.24792050  1
  O  O79  1  0.24846850  0.25207950  0.10765350  1
  O  O80  1  0.25207950  0.10765350  0.24846850  1
  O  O81  1  0.25207950  0.89234650  0.25153150  1
  O  O82  1  0.75153150  0.24792050  0.10765350  1
  O  O83  1  0.14201950  0.99832750  0.50350650  1
  O  O84  1  0.24792050  0.89234650  0.74846850  1
  O  O85  1  0.24792050  0.10765350  0.75153150  1
  O  O86  1  0.74846850  0.24792050  0.89234650  1
  O  O87  1  0.10765350  0.24846850  0.25207950  1
  O  O88  1  0.50350650  0.14201950  0.99832750  1
  O  O89  1  0.49649350  0.64201950  0.50167250  1
  O  O90  1  0.00350650  0.35798050  0.00167250  1
  O  O91  1  0.35798050  0.99832750  0.49649350  1
  O  O92  1  0.99832750  0.49649350  0.35798050  1
  O  O93  1  0.99832750  0.50350650  0.14201950  1
  O  O94  1  0.64201950  0.50167250  0.49649350  1
  O  O95  1  0.00167250  0.00350650  0.35798050  1
  O  O96  1  0.00350650  0.14201950  0.50167250  1
  O  O97  1  0.14201950  0.49832750  0.49649350  1
  O  O98  1  0.99832750  0.00350650  0.85798050  1
  O  O99  1  0.35798050  0.50167250  0.99649350  1
  O  O100  1  0.49832750  0.49649350  0.14201950  1
  O  O101  1  0.85798050  0.99832750  0.00350650  1
  O  O102  1  0.50167250  0.99649350  0.35798050  1
  O  O103  1  0.50167250  0.00350650  0.14201950  1
  O  O104  1  0.14201950  0.50167250  0.00350650  1
  O  O105  1  0.49649350  0.14201950  0.49832750  1
  O  O106  1  0.00350650  0.85798050  0.99832750  1
  O  O107  1  0.99649350  0.35798050  0.50167250  1
  O  O108  1  0.49649350  0.35798050  0.99832750  1
  O  O109  1  0.35798050  0.00167250  0.00350650  1
  O  O110  1  0.50167250  0.49649350  0.64201950  1
  O  O111  1  0.25153150  0.25207950  0.89234650  1
  O  O112  1  0.10765350  0.74846850  0.74792050  1
  O  O113  1  0.89234650  0.24846850  0.75207950  1
  O  O114  1  0.10765350  0.25153150  0.75207950  1
  O  O115  1  0.75153150  0.74792050  0.89234650  1
  O  O116  1  0.74792050  0.89234650  0.75153150  1
  O  O117  1  0.74792050  0.10765350  0.74846850  1
  O  O118  1  0.24846850  0.75207950  0.89234650  1
  O  O119  1  0.75207950  0.10765350  0.25153150  1
  O  O120  1  0.74846850  0.74792050  0.10765350  1
  O  O121  1  0.75207950  0.89234650  0.24846850  1
  O  O122  1  0.25153150  0.75207950  0.10765350  1
  O  O123  1  0.89234650  0.75153150  0.74792050  1
  O  O124  1  0.39234650  0.75153150  0.75207950  1
  O  O125  1  0.60765350  0.25153150  0.74792050  1
  O  O126  1  0.39234650  0.24846850  0.74792050  1
  O  O127  1  0.74846850  0.75207950  0.60765350  1
  O  O128  1  0.75207950  0.60765350  0.74846850  1
  O  O129  1  0.75207950  0.39234650  0.75153150  1
  O  O130  1  0.25153150  0.74792050  0.60765350  1
  O  O131  1  0.64201950  0.49832750  0.00350650  1
  O  O132  1  0.74792050  0.39234650  0.24846850  1
  O  O133  1  0.74792050  0.60765350  0.25153150  1
  O  O134  1  0.24846850  0.74792050  0.39234650  1
  O  O135  1  0.60765350  0.74846850  0.75207950  1
  O  O136  1  0.00350650  0.64201950  0.49832750  1
  O  O137  1  0.99649350  0.14201950  0.00167250  1
  O  O138  1  0.50350650  0.85798050  0.50167250  1
  O  O139  1  0.85798050  0.49832750  0.99649350  1
  O  O140  1  0.49832750  0.99649350  0.85798050  1
  O  O141  1  0.49832750  0.00350650  0.64201950  1
  O  O142  1  0.14201950  0.00167250  0.99649350  1
  O  O143  1  0.50167250  0.50350650  0.85798050  1
  O  O144  1  0.50350650  0.64201950  0.00167250  1
  O  O145  1  0.64201950  0.99832750  0.99649350  1
  O  O146  1  0.49832750  0.50350650  0.35798050  1
  O  O147  1  0.85798050  0.00167250  0.49649350  1
  O  O148  1  0.99832750  0.99649350  0.64201950  1
  O  O149  1  0.35798050  0.49832750  0.50350650  1
  O  O150  1  0.00167250  0.49649350  0.85798050  1
  O  O151  1  0.00167250  0.50350650  0.64201950  1
  O  O152  1  0.64201950  0.00167250  0.50350650  1
  O  O153  1  0.99649350  0.64201950  0.99832750  1
  O  O154  1  0.50350650  0.35798050  0.49832750  1
  O  O155  1  0.49649350  0.85798050  0.00167250  1
  O  O156  1  0.99649350  0.85798050  0.49832750  1
  O  O157  1  0.85798050  0.50167250  0.50350650  1
  O  O158  1  0.00167250  0.99649350  0.14201950  1
  O  O159  1  0.75153150  0.75207950  0.39234650  1
