# generated using pymatgen
data_Si2CN4
_symmetry_space_group_name_H-M   'P 1'
_cell_length_a   4.88863800
_cell_length_b   14.00967600
_cell_length_c   5.52074500
_cell_angle_alpha   90.00000000
_cell_angle_beta   90.00000000
_cell_angle_gamma   90.00000000
_symmetry_Int_Tables_number   1
_chemical_formula_structural   Si2CN4
_chemical_formula_sum   'Si8 C4 N16'
_cell_volume   378.10607796
_cell_formula_units_Z   4
loop_
 _symmetry_equiv_pos_site_id
 _symmetry_equiv_pos_as_xyz
  1  'x, y, z'
loop_
 _atom_site_type_symbol
 _atom_site_label
 _atom_site_symmetry_multiplicity
 _atom_site_fract_x
 _atom_site_fract_y
 _atom_site_fract_z
 _atom_site_occupancy
  Si  Si0  1  0.43508550  0.79760750  0.40259900  1
  Si  Si1  1  0.93508550  0.70239250  0.59740100  1
  Si  Si2  1  0.93508550  0.79760750  0.09740100  1
  Si  Si3  1  0.43508550  0.70239250  0.90259900  1
  Si  Si4  1  0.93508550  0.29760750  0.40259900  1
  Si  Si5  1  0.43508550  0.20239250  0.59740100  1
  Si  Si6  1  0.43508550  0.29760750  0.09740100  1
  Si  Si7  1  0.93508550  0.20239250  0.90259900  1
  C  C8  1  0.48364100  0.00000000  0.50000000  1
  C  C9  1  0.98364100  0.00000000  0.00000000  1
  C  C10  1  0.98364100  0.50000000  0.50000000  1
  C  C11  1  0.48364100  0.50000000  0.00000000  1
  N  N12  1  0.48952650  0.91442550  0.46921200  1
  N  N13  1  0.98952650  0.58557450  0.53078800  1
  N  N14  1  0.58956800  0.77158000  0.12606400  1
  N  N15  1  0.08956800  0.72842000  0.87393600  1
  N  N16  1  0.08956800  0.77158000  0.37393600  1
  N  N17  1  0.58956800  0.72842000  0.62606400  1
  N  N18  1  0.48952650  0.58557450  0.96921200  1
  N  N19  1  0.98952650  0.91442550  0.03078800  1
  N  N20  1  0.98952650  0.41442550  0.46921200  1
  N  N21  1  0.48952650  0.08557450  0.53078800  1
  N  N22  1  0.08956800  0.27158000  0.12606400  1
  N  N23  1  0.58956800  0.22842000  0.87393600  1
  N  N24  1  0.58956800  0.27158000  0.37393600  1
  N  N25  1  0.08956800  0.22842000  0.62606400  1
  N  N26  1  0.98952650  0.08557450  0.96921200  1
  N  N27  1  0.48952650  0.41442550  0.03078800  1
