# generated using pymatgen
data_CsAs4F13
_symmetry_space_group_name_H-M   'P 1'
_cell_length_a   9.78902800
_cell_length_b   9.78902800
_cell_length_c   6.85450000
_cell_angle_alpha   90.00000000
_cell_angle_beta   90.00000000
_cell_angle_gamma   90.00000000
_symmetry_Int_Tables_number   1
_chemical_formula_structural   CsAs4F13
_chemical_formula_sum   'Cs2 As8 F26'
_cell_volume   656.83293673
_cell_formula_units_Z   2
loop_
 _symmetry_equiv_pos_site_id
 _symmetry_equiv_pos_as_xyz
  1  'x, y, z'
loop_
 _atom_site_type_symbol
 _atom_site_label
 _atom_site_symmetry_multiplicity
 _atom_site_fract_x
 _atom_site_fract_y
 _atom_site_fract_z
 _atom_site_occupancy
  Cs  Cs0  1  0.00000000  0.00000000  0.00000000  1
  Cs  Cs1  1  0.50000000  0.50000000  0.50000000  1
  As  As2  1  0.69359100  0.98286800  0.51811600  1
  As  As3  1  0.48286800  0.80640900  0.98188400  1
  As  As4  1  0.51713200  0.19359100  0.98188400  1
  As  As5  1  0.30640900  0.01713200  0.51811600  1
  As  As6  1  0.19359100  0.48286800  0.01811600  1
  As  As7  1  0.98286800  0.30640900  0.48188400  1
  As  As8  1  0.01713200  0.69359100  0.48188400  1
  As  As9  1  0.80640900  0.51713200  0.01811600  1
  F  F10  1  0.58305050  0.85271750  0.42429450  1
  F  F11  1  0.35271750  0.91694950  0.07570550  1
  F  F12  1  0.64728250  0.08305050  0.07570550  1
  F  F13  1  0.41694950  0.14728250  0.42429450  1
  F  F14  1  0.75863600  0.88432100  0.71568900  1
  F  F15  1  0.50000000  0.00000000  0.75000000  1
  F  F16  1  0.16806650  0.07736650  0.36346750  1
  F  F17  1  0.57736650  0.33193350  0.13653250  1
  F  F18  1  0.42263350  0.66806650  0.13653250  1
  F  F19  1  0.83193350  0.92263350  0.36346750  1
  F  F20  1  0.24136400  0.11567900  0.71568900  1
  F  F21  1  0.61567900  0.25863600  0.78431100  1
  F  F22  1  0.38432100  0.74136400  0.78431100  1
  F  F23  1  0.08305050  0.35271750  0.92429450  1
  F  F24  1  0.85271750  0.41694950  0.57570550  1
  F  F25  1  0.14728250  0.58305050  0.57570550  1
  F  F26  1  0.91694950  0.64728250  0.92429450  1
  F  F27  1  0.25863600  0.38432100  0.21568900  1
  F  F28  1  0.00000000  0.50000000  0.25000000  1
  F  F29  1  0.66806650  0.57736650  0.86346750  1
  F  F30  1  0.07736650  0.83193350  0.63653250  1
  F  F31  1  0.92263350  0.16806650  0.63653250  1
  F  F32  1  0.33193350  0.42263350  0.86346750  1
  F  F33  1  0.74136400  0.61567900  0.21568900  1
  F  F34  1  0.11567900  0.75863600  0.28431100  1
  F  F35  1  0.88432100  0.24136400  0.28431100  1
