# generated using pymatgen
data_ThF4
_symmetry_space_group_name_H-M   'P 1'
_cell_length_a   13.17388200
_cell_length_b   11.09654000
_cell_length_c   8.61051617
_cell_angle_alpha   90.00000000
_cell_angle_beta   126.07801637
_cell_angle_gamma   90.00000000
_symmetry_Int_Tables_number   1
_chemical_formula_structural   ThF4
_chemical_formula_sum   'Th12 F48'
_cell_volume   1017.32079991
_cell_formula_units_Z   12
loop_
 _symmetry_equiv_pos_site_id
 _symmetry_equiv_pos_as_xyz
  1  'x, y, z'
loop_
 _atom_site_type_symbol
 _atom_site_label
 _atom_site_symmetry_multiplicity
 _atom_site_fract_x
 _atom_site_fract_y
 _atom_site_fract_z
 _atom_site_occupancy
  Th  Th0  1  0.00000000  0.21267900  0.25000000  1
  Th  Th1  1  0.00000000  0.78732100  0.75000000  1
  Th  Th2  1  0.79610900  0.57177200  0.16979500  1
  Th  Th3  1  0.20389100  0.57177200  0.33020500  1
  Th  Th4  1  0.20389100  0.42822800  0.83020500  1
  Th  Th5  1  0.79610900  0.42822800  0.66979500  1
  Th  Th6  1  0.50000000  0.71267900  0.25000000  1
  Th  Th7  1  0.50000000  0.28732100  0.75000000  1
  Th  Th8  1  0.29610900  0.07177200  0.16979500  1
  Th  Th9  1  0.70389100  0.07177200  0.33020500  1
  Th  Th10  1  0.70389100  0.92822800  0.83020500  1
  Th  Th11  1  0.29610900  0.92822800  0.66979500  1
  F  F12  1  0.78954400  0.47103500  0.39743700  1
  F  F13  1  0.21045600  0.47103500  0.10256300  1
  F  F14  1  0.21045600  0.52896500  0.60256300  1
  F  F15  1  0.78954400  0.52896500  0.89743700  1
  F  F16  1  0.10745550  0.29467850  0.56832900  1
  F  F17  1  0.89254450  0.29467850  0.93167100  1
  F  F18  1  0.00000000  0.39667700  0.75000000  1
  F  F19  1  0.00000000  0.60332300  0.25000000  1
  F  F20  1  0.88282850  0.62021150  0.71960700  1
  F  F21  1  0.11717150  0.62021150  0.78039300  1
  F  F22  1  0.11717150  0.37978850  0.28039300  1
  F  F23  1  0.88282850  0.37978850  0.21960700  1
  F  F24  1  0.87433500  0.84782900  0.84457900  1
  F  F25  1  0.12566500  0.84782900  0.65542100  1
  F  F26  1  0.12566500  0.15217100  0.15542100  1
  F  F27  1  0.87433500  0.15217100  0.34457900  1
  F  F28  1  0.75000000  0.75000000  0.00000000  1
  F  F29  1  0.25000000  0.75000000  0.50000000  1
  F  F30  1  0.62115600  0.44590500  0.95742000  1
  F  F31  1  0.37884400  0.44590500  0.54258000  1
  F  F32  1  0.37884400  0.55409500  0.04258000  1
  F  F33  1  0.62115600  0.55409500  0.45742000  1
  F  F34  1  0.10745550  0.70532150  0.06832900  1
  F  F35  1  0.89254450  0.70532150  0.43167100  1
  F  F36  1  0.28954400  0.97103500  0.39743700  1
  F  F37  1  0.71045600  0.97103500  0.10256300  1
  F  F38  1  0.71045600  0.02896500  0.60256300  1
  F  F39  1  0.28954400  0.02896500  0.89743700  1
  F  F40  1  0.60745550  0.79467850  0.56832900  1
  F  F41  1  0.39254450  0.79467850  0.93167100  1
  F  F42  1  0.50000000  0.89667700  0.75000000  1
  F  F43  1  0.50000000  0.10332300  0.25000000  1
  F  F44  1  0.38282850  0.12021150  0.71960700  1
  F  F45  1  0.61717150  0.12021150  0.78039300  1
  F  F46  1  0.61717150  0.87978850  0.28039300  1
  F  F47  1  0.38282850  0.87978850  0.21960700  1
  F  F48  1  0.37433500  0.34782900  0.84457900  1
  F  F49  1  0.62566500  0.34782900  0.65542100  1
  F  F50  1  0.62566500  0.65217100  0.15542100  1
  F  F51  1  0.37433500  0.65217100  0.34457900  1
  F  F52  1  0.25000000  0.25000000  0.00000000  1
  F  F53  1  0.75000000  0.25000000  0.50000000  1
  F  F54  1  0.12115600  0.94590500  0.95742000  1
  F  F55  1  0.87884400  0.94590500  0.54258000  1
  F  F56  1  0.87884400  0.05409500  0.04258000  1
  F  F57  1  0.12115600  0.05409500  0.45742000  1
  F  F58  1  0.60745550  0.20532150  0.06832900  1
  F  F59  1  0.39254450  0.20532150  0.43167100  1
