# generated using pymatgen
data_LiCo(PO3)4
_symmetry_space_group_name_H-M   'P 1'
_cell_length_a   17.00643400
_cell_length_b   12.14887800
_cell_length_c   5.16095411
_cell_angle_alpha   90.00000000
_cell_angle_beta   100.14130154
_cell_angle_gamma   90.00000000
_symmetry_Int_Tables_number   1
_chemical_formula_structural   LiCo(PO3)4
_chemical_formula_sum   'Li4 Co4 P16 O48'
_cell_volume   1049.64071488
_cell_formula_units_Z   4
loop_
 _symmetry_equiv_pos_site_id
 _symmetry_equiv_pos_as_xyz
  1  'x, y, z'
loop_
 _atom_site_type_symbol
 _atom_site_label
 _atom_site_symmetry_multiplicity
 _atom_site_fract_x
 _atom_site_fract_y
 _atom_site_fract_z
 _atom_site_occupancy
  Li  Li0  1  0.57902500  0.00000000  0.58224800  1
  Li  Li1  1  0.42097500  0.00000000  0.41775200  1
  Li  Li2  1  0.07902500  0.50000000  0.58224800  1
  Li  Li3  1  0.92097500  0.50000000  0.41775200  1
  Co  Co4  1  0.25000000  0.25000000  0.00000000  1
  Co  Co5  1  0.25000000  0.75000000  0.00000000  1
  Co  Co6  1  0.75000000  0.75000000  0.00000000  1
  Co  Co7  1  0.75000000  0.25000000  0.00000000  1
  P  P8  1  0.81804450  0.87781050  0.53026300  1
  P  P9  1  0.42288900  0.79165400  0.82409300  1
  P  P10  1  0.18195550  0.12218950  0.46973700  1
  P  P11  1  0.57711100  0.20834600  0.17590700  1
  P  P12  1  0.42288900  0.20834600  0.82409300  1
  P  P13  1  0.81804450  0.12218950  0.53026300  1
  P  P14  1  0.57711100  0.79165400  0.17590700  1
  P  P15  1  0.18195550  0.87781050  0.46973700  1
  P  P16  1  0.31804450  0.37781050  0.53026300  1
  P  P17  1  0.92288900  0.29165400  0.82409300  1
  P  P18  1  0.68195550  0.62218950  0.46973700  1
  P  P19  1  0.07711100  0.70834600  0.17590700  1
  P  P20  1  0.92288900  0.70834600  0.82409300  1
  P  P21  1  0.31804450  0.62218950  0.53026300  1
  P  P22  1  0.07711100  0.29165400  0.17590700  1
  P  P23  1  0.68195550  0.37781050  0.46973700  1
  O  O24  1  0.60165350  0.68888850  0.37496900  1
  O  O25  1  0.75370900  0.15057700  0.68668400  1
  O  O26  1  0.55364550  0.11290450  0.32396000  1
  O  O27  1  0.50000000  0.26513400  0.00000000  1
  O  O28  1  0.20429950  0.12983650  0.76572300  1
  O  O29  1  0.50000000  0.73486600  0.00000000  1
  O  O30  1  0.39834650  0.68888850  0.62503100  1
  O  O31  1  0.64013400  0.19142400  0.00567100  1
  O  O32  1  0.20429950  0.87016350  0.76572300  1
  O  O33  1  0.35986600  0.80857600  0.99432900  1
  O  O34  1  0.35986600  0.19142400  0.99432900  1
  O  O35  1  0.24629100  0.84942300  0.31331600  1
  O  O36  1  0.60165350  0.31111150  0.37496900  1
  O  O37  1  0.85086000  0.00000000  0.60152800  1
  O  O38  1  0.44635450  0.11290450  0.67604000  1
  O  O39  1  0.24629100  0.15057700  0.31331600  1
  O  O40  1  0.75370900  0.84942300  0.68668400  1
  O  O41  1  0.64013400  0.80857600  0.00567100  1
  O  O42  1  0.39834650  0.31111150  0.62503100  1
  O  O43  1  0.79570050  0.12983650  0.23427700  1
  O  O44  1  0.14914000  0.00000000  0.39847200  1
  O  O45  1  0.79570050  0.87016350  0.23427700  1
  O  O46  1  0.55364550  0.88709550  0.32396000  1
  O  O47  1  0.44635450  0.88709550  0.67604000  1
  O  O48  1  0.10165350  0.18888850  0.37496900  1
  O  O49  1  0.25370900  0.65057700  0.68668400  1
  O  O50  1  0.05364550  0.61290450  0.32396000  1
  O  O51  1  0.00000000  0.76513400  0.00000000  1
  O  O52  1  0.70429950  0.62983650  0.76572300  1
  O  O53  1  0.00000000  0.23486600  0.00000000  1
  O  O54  1  0.89834650  0.18888850  0.62503100  1
  O  O55  1  0.14013400  0.69142400  0.00567100  1
  O  O56  1  0.70429950  0.37016350  0.76572300  1
  O  O57  1  0.85986600  0.30857600  0.99432900  1
  O  O58  1  0.85986600  0.69142400  0.99432900  1
  O  O59  1  0.74629100  0.34942300  0.31331600  1
  O  O60  1  0.10165350  0.81111150  0.37496900  1
  O  O61  1  0.35086000  0.50000000  0.60152800  1
  O  O62  1  0.94635450  0.61290450  0.67604000  1
  O  O63  1  0.74629100  0.65057700  0.31331600  1
  O  O64  1  0.25370900  0.34942300  0.68668400  1
  O  O65  1  0.14013400  0.30857600  0.00567100  1
  O  O66  1  0.89834650  0.81111150  0.62503100  1
  O  O67  1  0.29570050  0.62983650  0.23427700  1
  O  O68  1  0.64914000  0.50000000  0.39847200  1
  O  O69  1  0.29570050  0.37016350  0.23427700  1
  O  O70  1  0.05364550  0.38709550  0.32396000  1
  O  O71  1  0.94635450  0.38709550  0.67604000  1
