# generated using pymatgen
data_Gd2MgS4
_symmetry_space_group_name_H-M   'P 1'
_cell_length_a   8.22372400
_cell_length_b   8.22372400
_cell_length_c   8.60372000
_cell_angle_alpha   90.00000000
_cell_angle_beta   90.00000000
_cell_angle_gamma   90.00000000
_symmetry_Int_Tables_number   1
_chemical_formula_structural   Gd2MgS4
_chemical_formula_sum   'Gd8 Mg4 S16'
_cell_volume   581.86645553
_cell_formula_units_Z   4
loop_
 _symmetry_equiv_pos_site_id
 _symmetry_equiv_pos_as_xyz
  1  'x, y, z'
loop_
 _atom_site_type_symbol
 _atom_site_label
 _atom_site_symmetry_multiplicity
 _atom_site_fract_x
 _atom_site_fract_y
 _atom_site_fract_z
 _atom_site_occupancy
  Gd  Gd0  1  0.25000000  0.63233600  0.87500000  1
  Gd  Gd1  1  0.36766400  0.25000000  0.12500000  1
  Gd  Gd2  1  0.25000000  0.86766400  0.37500000  1
  Gd  Gd3  1  0.13233600  0.25000000  0.62500000  1
  Gd  Gd4  1  0.75000000  0.13233600  0.37500000  1
  Gd  Gd5  1  0.86766400  0.75000000  0.62500000  1
  Gd  Gd6  1  0.75000000  0.36766400  0.87500000  1
  Gd  Gd7  1  0.63233600  0.75000000  0.12500000  1
  Mg  Mg8  1  0.00000000  0.00000000  0.00000000  1
  Mg  Mg9  1  0.00000000  0.50000000  0.25000000  1
  Mg  Mg10  1  0.50000000  0.50000000  0.50000000  1
  Mg  Mg11  1  0.50000000  0.00000000  0.75000000  1
  S  S12  1  0.43240350  0.19590050  0.43981650  1
  S  S13  1  0.06759650  0.30409950  0.93981650  1
  S  S14  1  0.43240350  0.30409950  0.81018350  1
  S  S15  1  0.80409950  0.43240350  0.56018350  1
  S  S16  1  0.30409950  0.56759650  0.18981650  1
  S  S17  1  0.06759650  0.19590050  0.31018350  1
  S  S18  1  0.19590050  0.93240350  0.68981650  1
  S  S19  1  0.69590050  0.06759650  0.06018350  1
  S  S20  1  0.93240350  0.69590050  0.93981650  1
  S  S21  1  0.56759650  0.80409950  0.43981650  1
  S  S22  1  0.93240350  0.80409950  0.31018350  1
  S  S23  1  0.30409950  0.93240350  0.06018350  1
  S  S24  1  0.80409950  0.06759650  0.68981650  1
  S  S25  1  0.56759650  0.69590050  0.81018350  1
  S  S26  1  0.69590050  0.43240350  0.18981650  1
  S  S27  1  0.19590050  0.56759650  0.56018350  1
