# generated using pymatgen
data_Sr2TaFeO6
_symmetry_space_group_name_H-M   'P 1'
_cell_length_a   5.67907454
_cell_length_b   5.66717500
_cell_length_c   9.81577371
_cell_angle_alpha   90.00000000
_cell_angle_beta   125.35252200
_cell_angle_gamma   90.00000000
_symmetry_Int_Tables_number   1
_chemical_formula_structural   Sr2TaFeO6
_chemical_formula_sum   'Sr4 Ta2 Fe2 O12'
_cell_volume   257.66175477
_cell_formula_units_Z   2
loop_
 _symmetry_equiv_pos_site_id
 _symmetry_equiv_pos_as_xyz
  1  'x, y, z'
loop_
 _atom_site_type_symbol
 _atom_site_label
 _atom_site_symmetry_multiplicity
 _atom_site_fract_x
 _atom_site_fract_y
 _atom_site_fract_z
 _atom_site_occupancy
  Sr  Sr0  1  0.74757600  0.01260200  0.75033100  1
  Sr  Sr1  1  0.25242400  0.51260200  0.74966900  1
  Sr  Sr2  1  0.74757600  0.48739800  0.25033100  1
  Sr  Sr3  1  0.25242400  0.98739800  0.24966900  1
  Ta  Ta4  1  0.50000000  0.50000000  0.50000000  1
  Ta  Ta5  1  0.50000000  0.00000000  0.00000000  1
  Fe  Fe6  1  0.00000000  0.50000000  0.00000000  1
  Fe  Fe7  1  0.00000000  0.00000000  0.50000000  1
  O  O8  1  0.79752200  0.00507400  0.24745000  1
  O  O9  1  0.20247800  0.50507400  0.25255000  1
  O  O10  1  0.20247800  0.99492600  0.75255000  1
  O  O11  1  0.79752200  0.49492600  0.74745000  1
  O  O12  1  0.70277400  0.26617300  0.97385800  1
  O  O13  1  0.29722600  0.76617300  0.52614200  1
  O  O14  1  0.29722600  0.73382700  0.02614200  1
  O  O15  1  0.70277400  0.23382700  0.47385800  1
  O  O16  1  0.73979000  0.72930400  0.47420400  1
  O  O17  1  0.26021000  0.22930400  0.02579600  1
  O  O18  1  0.26021000  0.27069600  0.52579600  1
  O  O19  1  0.73979000  0.77069600  0.97420400  1
