# generated using pymatgen
data_CrSbO4
_symmetry_space_group_name_H-M   'P 1'
_cell_length_a   6.47205256
_cell_length_b   6.66198356
_cell_length_c   3.14034350
_cell_angle_alpha   90.00000000
_cell_angle_beta   90.00000000
_cell_angle_gamma   90.00000000
_symmetry_Int_Tables_number   1
_chemical_formula_structural   CrSbO4
_chemical_formula_sum   'Cr2 Sb2 O8'
_cell_volume   135.40127280
_cell_formula_units_Z   2
loop_
 _symmetry_equiv_pos_site_id
 _symmetry_equiv_pos_as_xyz
  1  'x, y, z'
loop_
 _atom_site_type_symbol
 _atom_site_label
 _atom_site_symmetry_multiplicity
 _atom_site_fract_x
 _atom_site_fract_y
 _atom_site_fract_z
 _atom_site_occupancy
  Cr  Cr0  1  0.50000000  0.00000000  0.50000000  1
  Cr  Cr1  1  0.00000000  0.50000000  0.50000000  1
  Sb  Sb2  1  0.00000000  0.00000000  0.00000000  1
  Sb  Sb3  1  0.50000000  0.50000000  0.00000000  1
  O  O4  1  0.30530750  0.00000000  0.00000000  1
  O  O5  1  0.69469250  0.00000000  0.00000000  1
  O  O6  1  0.50000000  0.69389800  0.50000000  1
  O  O7  1  0.50000000  0.30610200  0.50000000  1
  O  O8  1  0.80530750  0.50000000  0.00000000  1
  O  O9  1  0.19469250  0.50000000  0.00000000  1
  O  O10  1  0.00000000  0.19389800  0.50000000  1
  O  O11  1  0.00000000  0.80610200  0.50000000  1
