# generated using pymatgen
data_Nd3TaO7
_symmetry_space_group_name_H-M   'P 1'
_cell_length_a   7.69789000
_cell_length_b   10.92322200
_cell_length_c   7.74357100
_cell_angle_alpha   90.00000000
_cell_angle_beta   90.00000000
_cell_angle_gamma   90.00000000
_symmetry_Int_Tables_number   1
_chemical_formula_structural   Nd3TaO7
_chemical_formula_sum   'Nd12 Ta4 O28'
_cell_volume   651.12406350
_cell_formula_units_Z   4
loop_
 _symmetry_equiv_pos_site_id
 _symmetry_equiv_pos_as_xyz
  1  'x, y, z'
loop_
 _atom_site_type_symbol
 _atom_site_label
 _atom_site_symmetry_multiplicity
 _atom_site_fract_x
 _atom_site_fract_y
 _atom_site_fract_z
 _atom_site_occupancy
  Nd  Nd0  1  0.50000000  0.00000000  0.50000000  1
  Nd  Nd1  1  0.50000000  0.00000000  0.00000000  1
  Nd  Nd2  1  0.76727100  0.76801200  0.25000000  1
  Nd  Nd3  1  0.23272900  0.23198800  0.75000000  1
  Nd  Nd4  1  0.76727100  0.23198800  0.75000000  1
  Nd  Nd5  1  0.23272900  0.76801200  0.25000000  1
  Nd  Nd6  1  0.00000000  0.50000000  0.50000000  1
  Nd  Nd7  1  0.00000000  0.50000000  0.00000000  1
  Nd  Nd8  1  0.26727100  0.26801200  0.25000000  1
  Nd  Nd9  1  0.73272900  0.73198800  0.75000000  1
  Nd  Nd10  1  0.26727100  0.73198800  0.75000000  1
  Nd  Nd11  1  0.73272900  0.26801200  0.25000000  1
  Ta  Ta12  1  0.00000000  0.00000000  0.50000000  1
  Ta  Ta13  1  0.00000000  0.00000000  0.00000000  1
  Ta  Ta14  1  0.50000000  0.50000000  0.50000000  1
  Ta  Ta15  1  0.50000000  0.50000000  0.00000000  1
  O  O16  1  0.50000000  0.55712000  0.75000000  1
  O  O17  1  0.50000000  0.44288000  0.25000000  1
  O  O18  1  0.50000000  0.13510700  0.25000000  1
  O  O19  1  0.50000000  0.86489300  0.75000000  1
  O  O20  1  0.50000000  0.12942700  0.75000000  1
  O  O21  1  0.50000000  0.87057300  0.25000000  1
  O  O22  1  0.19129900  0.87768000  0.97054500  1
  O  O23  1  0.80870100  0.12232000  0.47054500  1
  O  O24  1  0.19129900  0.87768000  0.52945500  1
  O  O25  1  0.80870100  0.12232000  0.02945500  1
  O  O26  1  0.19129900  0.12232000  0.47054500  1
  O  O27  1  0.80870100  0.87768000  0.97054500  1
  O  O28  1  0.80870100  0.87768000  0.52945500  1
  O  O29  1  0.19129900  0.12232000  0.02945500  1
  O  O30  1  0.00000000  0.05712000  0.75000000  1
  O  O31  1  0.00000000  0.94288000  0.25000000  1
  O  O32  1  0.00000000  0.63510700  0.25000000  1
  O  O33  1  0.00000000  0.36489300  0.75000000  1
  O  O34  1  0.00000000  0.62942700  0.75000000  1
  O  O35  1  0.00000000  0.37057300  0.25000000  1
  O  O36  1  0.69129900  0.37768000  0.97054500  1
  O  O37  1  0.30870100  0.62232000  0.47054500  1
  O  O38  1  0.69129900  0.37768000  0.52945500  1
  O  O39  1  0.30870100  0.62232000  0.02945500  1
  O  O40  1  0.69129900  0.62232000  0.47054500  1
  O  O41  1  0.30870100  0.37768000  0.97054500  1
  O  O42  1  0.30870100  0.37768000  0.52945500  1
  O  O43  1  0.69129900  0.62232000  0.02945500  1
