# generated using pymatgen
data_HgPbF6
_symmetry_space_group_name_H-M   'P 1'
_cell_length_a   5.63588386
_cell_length_b   5.63588386
_cell_length_c   15.81942609
_cell_angle_alpha   90.00000000
_cell_angle_beta   90.00000000
_cell_angle_gamma   120.00000000
_symmetry_Int_Tables_number   1
_chemical_formula_structural   HgPbF6
_chemical_formula_sum   'Hg3 Pb3 F18'
_cell_volume   435.15645092
_cell_formula_units_Z   3
loop_
 _symmetry_equiv_pos_site_id
 _symmetry_equiv_pos_as_xyz
  1  'x, y, z'
loop_
 _atom_site_type_symbol
 _atom_site_label
 _atom_site_symmetry_multiplicity
 _atom_site_fract_x
 _atom_site_fract_y
 _atom_site_fract_z
 _atom_site_occupancy
  Hg  Hg0  1  0.33333333  0.66666667  0.16666667  1
  Hg  Hg1  1  1.00000000  0.00000000  0.50000000  1
  Hg  Hg2  1  0.66666667  0.33333333  0.83333333  1
  Pb  Pb3  1  0.00000000  0.00000000  0.00000000  1
  Pb  Pb4  1  0.66666667  0.33333333  0.33333333  1
  Pb  Pb5  1  0.33333333  0.66666667  0.66666667  1
  F  F6  1  0.03100833  0.71032867  0.07712867  1
  F  F7  1  0.28967133  0.32067967  0.07712867  1
  F  F8  1  0.67932033  0.96899167  0.07712867  1
  F  F9  1  0.98734633  0.36434167  0.25620467  1
  F  F10  1  0.37699533  0.01265367  0.25620467  1
  F  F11  1  0.63565833  0.62300467  0.25620467  1
  F  F12  1  0.69767500  0.04366200  0.41046200  1
  F  F13  1  0.95633800  0.65401300  0.41046200  1
  F  F14  1  0.34598700  0.30232500  0.41046200  1
  F  F15  1  0.65401300  0.69767500  0.58953800  1
  F  F16  1  0.04366200  0.34598700  0.58953800  1
  F  F17  1  0.30232500  0.95633800  0.58953800  1
  F  F18  1  0.36434167  0.37699533  0.74379533  1
  F  F19  1  0.62300467  0.98734633  0.74379533  1
  F  F20  1  0.01265367  0.63565833  0.74379533  1
  F  F21  1  0.32067967  0.03100833  0.92287133  1
  F  F22  1  0.71032867  0.67932033  0.92287133  1
  F  F23  1  0.96899167  0.28967133  0.92287133  1
