# generated using pymatgen
data_Nd(BO2)3
_symmetry_space_group_name_H-M   'P 1'
_cell_length_a   9.91118000
_cell_length_b   8.17494800
_cell_length_c   6.43835572
_cell_angle_alpha   90.00000000
_cell_angle_beta   126.89302293
_cell_angle_gamma   90.00000000
_symmetry_Int_Tables_number   1
_chemical_formula_structural   Nd(BO2)3
_chemical_formula_sum   'Nd4 B12 O24'
_cell_volume   417.19951730
_cell_formula_units_Z   4
loop_
 _symmetry_equiv_pos_site_id
 _symmetry_equiv_pos_as_xyz
  1  'x, y, z'
loop_
 _atom_site_type_symbol
 _atom_site_label
 _atom_site_symmetry_multiplicity
 _atom_site_fract_x
 _atom_site_fract_y
 _atom_site_fract_z
 _atom_site_occupancy
  Nd  Nd0  1  0.00000000  0.29828100  0.75000000  1
  Nd  Nd1  1  0.00000000  0.70171900  0.25000000  1
  Nd  Nd2  1  0.50000000  0.79828100  0.75000000  1
  Nd  Nd3  1  0.50000000  0.20171900  0.25000000  1
  B  B4  1  0.00000000  0.27759600  0.25000000  1
  B  B5  1  0.27335200  0.56704500  0.91488000  1
  B  B6  1  0.72664800  0.56704500  0.58512000  1
  B  B7  1  0.00000000  0.72240400  0.75000000  1
  B  B8  1  0.27335200  0.43295500  0.41488000  1
  B  B9  1  0.72664800  0.43295500  0.08512000  1
  B  B10  1  0.50000000  0.77759600  0.25000000  1
  B  B11  1  0.77335200  0.06704500  0.91488000  1
  B  B12  1  0.22664800  0.06704500  0.58512000  1
  B  B13  1  0.50000000  0.22240400  0.75000000  1
  B  B14  1  0.77335200  0.93295500  0.41488000  1
  B  B15  1  0.22664800  0.93295500  0.08512000  1
  O  O16  1  0.29702550  0.41190750  0.99582000  1
  O  O17  1  0.70297450  0.41190750  0.50418000  1
  O  O18  1  0.10472000  0.61369800  0.71133000  1
  O  O19  1  0.89528000  0.61369800  0.78867000  1
  O  O20  1  0.89528000  0.38630200  0.28867000  1
  O  O21  1  0.10472000  0.38630200  0.21133000  1
  O  O22  1  0.89812000  0.81415800  0.50740500  1
  O  O23  1  0.10188000  0.81415800  0.99259500  1
  O  O24  1  0.10188000  0.18584200  0.49259500  1
  O  O25  1  0.89812000  0.18584200  0.00740500  1
  O  O26  1  0.29702550  0.58809250  0.49582000  1
  O  O27  1  0.70297450  0.58809250  0.00418000  1
  O  O28  1  0.79702550  0.91190750  0.99582000  1
  O  O29  1  0.20297450  0.91190750  0.50418000  1
  O  O30  1  0.60472000  0.11369800  0.71133000  1
  O  O31  1  0.39528000  0.11369800  0.78867000  1
  O  O32  1  0.39528000  0.88630200  0.28867000  1
  O  O33  1  0.60472000  0.88630200  0.21133000  1
  O  O34  1  0.39812000  0.31415800  0.50740500  1
  O  O35  1  0.60188000  0.31415800  0.99259500  1
  O  O36  1  0.60188000  0.68584200  0.49259500  1
  O  O37  1  0.39812000  0.68584200  0.00740500  1
  O  O38  1  0.79702550  0.08809250  0.49582000  1
  O  O39  1  0.20297450  0.08809250  0.00418000  1
