# generated using pymatgen
data_Tl9SbTe6
_symmetry_space_group_name_H-M   'P 1'
_cell_length_a   8.94210200
_cell_length_b   8.94210200
_cell_length_c   13.54616200
_cell_angle_alpha   90.00000000
_cell_angle_beta   90.00000000
_cell_angle_gamma   90.00000000
_symmetry_Int_Tables_number   1
_chemical_formula_structural   Tl9SbTe6
_chemical_formula_sum   'Tl18 Sb2 Te12'
_cell_volume   1083.16720878
_cell_formula_units_Z   2
loop_
 _symmetry_equiv_pos_site_id
 _symmetry_equiv_pos_as_xyz
  1  'x, y, z'
loop_
 _atom_site_type_symbol
 _atom_site_label
 _atom_site_symmetry_multiplicity
 _atom_site_fract_x
 _atom_site_fract_y
 _atom_site_fract_z
 _atom_site_occupancy
  Tl  Tl0  1  0.85549300  0.64921100  0.15069200  1
  Tl  Tl1  1  0.14311250  0.64910350  0.33576950  1
  Tl  Tl2  1  0.50000000  0.50000000  0.49582300  1
  Tl  Tl3  1  0.85688750  0.35089650  0.33576950  1
  Tl  Tl4  1  0.14450700  0.35078900  0.15069200  1
  Tl  Tl5  1  0.64921100  0.14450700  0.15069200  1
  Tl  Tl6  1  0.35089650  0.14311250  0.33576950  1
  Tl  Tl7  1  0.64910350  0.85688750  0.33576950  1
  Tl  Tl8  1  0.35078900  0.85549300  0.15069200  1
  Tl  Tl9  1  0.35549300  0.14921100  0.65069200  1
  Tl  Tl10  1  0.64311250  0.14910350  0.83576950  1
  Tl  Tl11  1  0.00000000  0.00000000  0.99582300  1
  Tl  Tl12  1  0.35688750  0.85089650  0.83576950  1
  Tl  Tl13  1  0.64450700  0.85078900  0.65069200  1
  Tl  Tl14  1  0.14921100  0.64450700  0.65069200  1
  Tl  Tl15  1  0.85089650  0.64311250  0.83576950  1
  Tl  Tl16  1  0.14910350  0.35688750  0.83576950  1
  Tl  Tl17  1  0.85078900  0.35549300  0.65069200  1
  Sb  Sb18  1  0.50000000  0.50000000  0.00007400  1
  Sb  Sb19  1  0.00000000  0.00000000  0.50007400  1
  Te  Te20  1  0.50000000  0.50000000  0.22152700  1
  Te  Te21  1  0.14967050  0.32223250  0.49226150  1
  Te  Te22  1  0.67776750  0.14967050  0.49226150  1
  Te  Te23  1  0.00000000  0.00000000  0.24903700  1
  Te  Te24  1  0.32223250  0.85032950  0.49226150  1
  Te  Te25  1  0.85032950  0.67776750  0.49226150  1
  Te  Te26  1  0.00000000  0.00000000  0.72152700  1
  Te  Te27  1  0.64967050  0.82223250  0.99226150  1
  Te  Te28  1  0.17776750  0.64967050  0.99226150  1
  Te  Te29  1  0.50000000  0.50000000  0.74903700  1
  Te  Te30  1  0.82223250  0.35032950  0.99226150  1
  Te  Te31  1  0.35032950  0.17776750  0.99226150  1
