# generated using pymatgen
data_Li3V3(PO4)4
_symmetry_space_group_name_H-M   'P 1'
_cell_length_a   7.67040900
_cell_length_b   8.11389700
_cell_length_c   10.19882554
_cell_angle_alpha   90.00000000
_cell_angle_beta   94.28176970
_cell_angle_gamma   90.00000000
_symmetry_Int_Tables_number   1
_chemical_formula_structural   Li3V3(PO4)4
_chemical_formula_sum   'Li6 V6 P8 O32'
_cell_volume   632.97176548
_cell_formula_units_Z   2
loop_
 _symmetry_equiv_pos_site_id
 _symmetry_equiv_pos_as_xyz
  1  'x, y, z'
loop_
 _atom_site_type_symbol
 _atom_site_label
 _atom_site_symmetry_multiplicity
 _atom_site_fract_x
 _atom_site_fract_y
 _atom_site_fract_z
 _atom_site_occupancy
  Li  Li0  1  0.15826700  0.36881200  0.82876900  1
  Li  Li1  1  0.34755000  0.63327400  0.92369100  1
  Li  Li2  1  0.65245000  0.13327400  0.07630900  1
  Li  Li3  1  0.84173300  0.86881200  0.17123100  1
  Li  Li4  1  0.63861300  0.14140100  0.57791400  1
  Li  Li5  1  0.36138700  0.64140100  0.42208600  1
  V  V6  1  0.14278600  0.36047400  0.32233100  1
  V  V7  1  0.74148500  0.48850600  0.62951100  1
  V  V8  1  0.85721400  0.86047400  0.67766900  1
  V  V9  1  0.73637100  0.50533000  0.12456300  1
  V  V10  1  0.26362900  0.00533000  0.87543700  1
  V  V11  1  0.25851500  0.98850600  0.37048900  1
  P  P12  1  0.45043100  0.81176100  0.14141700  1
  P  P13  1  0.95015900  0.69734600  0.39379500  1
  P  P14  1  0.54813400  0.30142700  0.35392300  1
  P  P15  1  0.54956900  0.31176100  0.85858300  1
  P  P16  1  0.94856300  0.68502800  0.90076600  1
  P  P17  1  0.05143700  0.18502800  0.09923400  1
  P  P18  1  0.45186600  0.80142700  0.64607700  1
  P  P19  1  0.04984100  0.19734600  0.60620500  1
  O  O20  1  0.00310000  0.86487400  0.84810900  1
  O  O21  1  0.31838800  0.85830600  0.53507300  1
  O  O22  1  0.19290000  0.14618800  0.21675400  1
  O  O23  1  0.10072900  0.56987700  0.90791000  1
  O  O24  1  0.19309600  0.14063300  0.70916500  1
  O  O25  1  0.39864000  0.43036300  0.84351200  1
  O  O26  1  0.80690400  0.64063300  0.29083500  1
  O  O27  1  0.10482600  0.57501900  0.40586000  1
  O  O28  1  0.69277400  0.36376500  0.96764100  1
  O  O29  1  0.64455000  0.30441500  0.72607900  1
  O  O30  1  0.13027000  0.19631400  0.46643800  1
  O  O31  1  0.60136000  0.93036300  0.15648800  1
  O  O32  1  0.30722600  0.86376500  0.03235900  1
  O  O33  1  0.48560200  0.12783100  0.39445900  1
  O  O34  1  0.98652800  0.37057300  0.64174200  1
  O  O35  1  0.38682400  0.42146300  0.34505800  1
  O  O36  1  0.36480700  0.80901100  0.77741400  1
  O  O37  1  0.68161200  0.35830600  0.46492700  1
  O  O38  1  0.50511900  0.63326000  0.10376500  1
  O  O39  1  0.80710000  0.64618800  0.78324600  1
  O  O40  1  0.49488100  0.13326000  0.89623500  1
  O  O41  1  0.86973000  0.69631400  0.53356200  1
  O  O42  1  0.14407100  0.19474900  0.97058400  1
  O  O43  1  0.35545000  0.80441500  0.27392100  1
  O  O44  1  0.99690000  0.36487400  0.15189100  1
  O  O45  1  0.63519300  0.30901100  0.22258600  1
  O  O46  1  0.85592900  0.69474900  0.02941600  1
  O  O47  1  0.61317600  0.92146300  0.65494200  1
  O  O48  1  0.89517400  0.07501900  0.59414000  1
  O  O49  1  0.89927100  0.06987700  0.09209000  1
  O  O50  1  0.01347200  0.87057300  0.35825800  1
  O  O51  1  0.51439800  0.62783100  0.60554100  1
