# generated using pymatgen
data_Tb2Te4O11
_symmetry_space_group_name_H-M   'P 1'
_cell_length_a   12.52715800
_cell_length_b   5.19093400
_cell_length_c   16.38412338
_cell_angle_alpha   90.00000000
_cell_angle_beta   105.11415195
_cell_angle_gamma   90.00000000
_symmetry_Int_Tables_number   1
_chemical_formula_structural   Tb2Te4O11
_chemical_formula_sum   'Tb8 Te16 O44'
_cell_volume   1028.56627632
_cell_formula_units_Z   4
loop_
 _symmetry_equiv_pos_site_id
 _symmetry_equiv_pos_as_xyz
  1  'x, y, z'
loop_
 _atom_site_type_symbol
 _atom_site_label
 _atom_site_symmetry_multiplicity
 _atom_site_fract_x
 _atom_site_fract_y
 _atom_site_fract_z
 _atom_site_occupancy
  Tb  Tb0  1  0.88101250  0.75000150  0.46275100  1
  Tb  Tb1  1  0.61898750  0.25000150  0.03724900  1
  Tb  Tb2  1  0.11898750  0.24999850  0.53724900  1
  Tb  Tb3  1  0.38101250  0.74999850  0.96275100  1
  Tb  Tb4  1  0.38101250  0.25000150  0.46275100  1
  Tb  Tb5  1  0.11898750  0.75000150  0.03724900  1
  Tb  Tb6  1  0.61898750  0.74999850  0.53724900  1
  Tb  Tb7  1  0.88101250  0.24999850  0.96275100  1
  Te  Te8  1  0.87902250  0.27855250  0.30182000  1
  Te  Te9  1  0.62097750  0.77855250  0.19818000  1
  Te  Te10  1  0.12097750  0.72144750  0.69818000  1
  Te  Te11  1  0.37902250  0.22144750  0.80182000  1
  Te  Te12  1  0.87090850  0.71734650  0.12503300  1
  Te  Te13  1  0.12909150  0.71734650  0.37496700  1
  Te  Te14  1  0.12909150  0.28265350  0.87496700  1
  Te  Te15  1  0.87090850  0.28265350  0.62503300  1
  Te  Te16  1  0.37902250  0.77855250  0.30182000  1
  Te  Te17  1  0.12097750  0.27855250  0.19818000  1
  Te  Te18  1  0.62097750  0.22144750  0.69818000  1
  Te  Te19  1  0.87902250  0.72144750  0.80182000  1
  Te  Te20  1  0.37090850  0.21734650  0.12503300  1
  Te  Te21  1  0.62909150  0.21734650  0.37496700  1
  Te  Te22  1  0.62909150  0.78265350  0.87496700  1
  Te  Te23  1  0.37090850  0.78265350  0.62503300  1
  O  O24  1  0.00000000  0.14593800  0.25000000  1
  O  O25  1  0.00000000  0.85406200  0.75000000  1
  O  O26  1  0.64861200  0.44375900  0.16735500  1
  O  O27  1  0.85138800  0.94375900  0.33264500  1
  O  O28  1  0.35138800  0.55624100  0.83264500  1
  O  O29  1  0.14861200  0.05624100  0.66735500  1
  O  O30  1  0.02414900  0.42090600  0.09667400  1
  O  O31  1  0.97585100  0.42090600  0.40332600  1
  O  O32  1  0.97585100  0.57909400  0.90332600  1
  O  O33  1  0.02414900  0.57909400  0.59667400  1
  O  O34  1  0.93041200  0.89123200  0.04497500  1
  O  O35  1  0.06958800  0.89123200  0.45502500  1
  O  O36  1  0.24698700  0.56371900  0.62715400  1
  O  O37  1  0.25301300  0.06371900  0.87284600  1
  O  O38  1  0.75301300  0.43628100  0.37284600  1
  O  O39  1  0.74698700  0.93628100  0.12715400  1
  O  O40  1  0.79203500  0.54458400  0.55244700  1
  O  O41  1  0.20796500  0.54458400  0.94755300  1
  O  O42  1  0.20796500  0.45541600  0.44755300  1
  O  O43  1  0.79203500  0.45541600  0.05244700  1
  O  O44  1  0.93041200  0.10876800  0.54497500  1
  O  O45  1  0.06958800  0.10876800  0.95502500  1
  O  O46  1  0.50000000  0.64593800  0.25000000  1
  O  O47  1  0.50000000  0.35406200  0.75000000  1
  O  O48  1  0.14861200  0.94375900  0.16735500  1
  O  O49  1  0.35138800  0.44375900  0.33264500  1
  O  O50  1  0.85138800  0.05624100  0.83264500  1
  O  O51  1  0.64861200  0.55624100  0.66735500  1
  O  O52  1  0.52414900  0.92090600  0.09667400  1
  O  O53  1  0.47585100  0.92090600  0.40332600  1
  O  O54  1  0.47585100  0.07909400  0.90332600  1
  O  O55  1  0.52414900  0.07909400  0.59667400  1
  O  O56  1  0.43041200  0.39123200  0.04497500  1
  O  O57  1  0.56958800  0.39123200  0.45502500  1
  O  O58  1  0.74698700  0.06371900  0.62715400  1
  O  O59  1  0.75301300  0.56371900  0.87284600  1
  O  O60  1  0.25301300  0.93628100  0.37284600  1
  O  O61  1  0.24698700  0.43628100  0.12715400  1
  O  O62  1  0.29203500  0.04458400  0.55244700  1
  O  O63  1  0.70796500  0.04458400  0.94755300  1
  O  O64  1  0.70796500  0.95541600  0.44755300  1
  O  O65  1  0.29203500  0.95541600  0.05244700  1
  O  O66  1  0.43041200  0.60876800  0.54497500  1
  O  O67  1  0.56958800  0.60876800  0.95502500  1
