# generated using pymatgen
data_Sb2Te4Pb
_symmetry_space_group_name_H-M   'P 1'
_cell_length_a   4.41812805
_cell_length_b   4.41812805
_cell_length_c   42.47387509
_cell_angle_alpha   90.00000000
_cell_angle_beta   90.00000000
_cell_angle_gamma   120.00000000
_symmetry_Int_Tables_number   1
_chemical_formula_structural   Sb2Te4Pb
_chemical_formula_sum   'Sb6 Te12 Pb3'
_cell_volume   718.00772319
_cell_formula_units_Z   3
loop_
 _symmetry_equiv_pos_site_id
 _symmetry_equiv_pos_as_xyz
  1  'x, y, z'
loop_
 _atom_site_type_symbol
 _atom_site_label
 _atom_site_symmetry_multiplicity
 _atom_site_fract_x
 _atom_site_fract_y
 _atom_site_fract_z
 _atom_site_occupancy
  Sb  Sb0  1  0.33333333  0.66666667  0.09356567  1
  Sb  Sb1  1  0.33333333  0.66666667  0.23976767  1
  Sb  Sb2  1  0.00000000  0.00000000  0.42689900  1
  Sb  Sb3  1  0.00000000  0.00000000  0.57310100  1
  Sb  Sb4  1  0.66666667  0.33333333  0.76023233  1
  Sb  Sb5  1  0.66666667  0.33333333  0.90643433  1
  Te  Te6  1  0.00000000  0.00000000  0.28578000  1
  Te  Te7  1  0.66666667  0.33333333  0.20093733  1
  Te  Te8  1  0.00000000  0.00000000  0.13239600  1
  Te  Te9  1  0.66666667  0.33333333  0.04755333  1
  Te  Te10  1  0.66666667  0.33333333  0.61911333  1
  Te  Te11  1  0.33333333  0.66666667  0.53427067  1
  Te  Te12  1  0.66666667  0.33333333  0.46572933  1
  Te  Te13  1  0.33333333  0.66666667  0.38088667  1
  Te  Te14  1  0.33333333  0.66666667  0.95244667  1
  Te  Te15  1  0.00000000  0.00000000  0.86760400  1
  Te  Te16  1  0.33333333  0.66666667  0.79906267  1
  Te  Te17  1  0.00000000  0.00000000  0.71422000  1
  Pb  Pb18  1  0.00000000  0.00000000  0.00000000  1
  Pb  Pb19  1  0.66666667  0.33333333  0.33333333  1
  Pb  Pb20  1  0.33333333  0.66666667  0.66666667  1
