# generated using pymatgen
data_BaSiN2
_symmetry_space_group_name_H-M   'P 1'
_cell_length_a   5.65749200
_cell_length_b   11.59225400
_cell_length_c   7.65287100
_cell_angle_alpha   90.00000000
_cell_angle_beta   90.00000000
_cell_angle_gamma   90.00000000
_symmetry_Int_Tables_number   1
_chemical_formula_structural   BaSiN2
_chemical_formula_sum   'Ba8 Si8 N16'
_cell_volume   501.89888368
_cell_formula_units_Z   8
loop_
 _symmetry_equiv_pos_site_id
 _symmetry_equiv_pos_as_xyz
  1  'x, y, z'
loop_
 _atom_site_type_symbol
 _atom_site_label
 _atom_site_symmetry_multiplicity
 _atom_site_fract_x
 _atom_site_fract_y
 _atom_site_fract_z
 _atom_site_occupancy
  Ba  Ba0  1  0.50000000  0.83636500  0.06373600  1
  Ba  Ba1  1  0.00000000  0.66363500  0.93626400  1
  Ba  Ba2  1  0.50000000  0.66363500  0.56373600  1
  Ba  Ba3  1  0.00000000  0.83636500  0.43626400  1
  Ba  Ba4  1  0.00000000  0.33636500  0.06373600  1
  Ba  Ba5  1  0.50000000  0.16363500  0.93626400  1
  Ba  Ba6  1  0.00000000  0.16363500  0.56373600  1
  Ba  Ba7  1  0.50000000  0.33636500  0.43626400  1
  Si  Si8  1  0.00000000  0.54851200  0.35974700  1
  Si  Si9  1  0.00000000  0.95148800  0.85974700  1
  Si  Si10  1  0.50000000  0.95148800  0.64025300  1
  Si  Si11  1  0.50000000  0.54851200  0.14025300  1
  Si  Si12  1  0.50000000  0.04851200  0.35974700  1
  Si  Si13  1  0.50000000  0.45148800  0.85974700  1
  Si  Si14  1  0.00000000  0.45148800  0.64025300  1
  Si  Si15  1  0.00000000  0.04851200  0.14025300  1
  N  N16  1  0.25000000  0.59539800  0.25000000  1
  N  N17  1  0.75000000  0.90460200  0.75000000  1
  N  N18  1  0.25000000  0.90460200  0.75000000  1
  N  N19  1  0.75000000  0.59539800  0.25000000  1
  N  N20  1  0.50000000  0.89918200  0.42020100  1
  N  N21  1  0.00000000  0.89918200  0.07979900  1
  N  N22  1  0.50000000  0.60081800  0.92020100  1
  N  N23  1  0.00000000  0.60081800  0.57979900  1
  N  N24  1  0.75000000  0.09539800  0.25000000  1
  N  N25  1  0.25000000  0.40460200  0.75000000  1
  N  N26  1  0.75000000  0.40460200  0.75000000  1
  N  N27  1  0.25000000  0.09539800  0.25000000  1
  N  N28  1  0.00000000  0.39918200  0.42020100  1
  N  N29  1  0.50000000  0.39918200  0.07979900  1
  N  N30  1  0.00000000  0.10081800  0.92020100  1
  N  N31  1  0.50000000  0.10081800  0.57979900  1
