# generated using pymatgen
data_Bi2Te3
_symmetry_space_group_name_H-M   'P 1'
_cell_length_a   4.44949012
_cell_length_b   4.44949012
_cell_length_c   31.15087381
_cell_angle_alpha   90.00000000
_cell_angle_beta   90.00000000
_cell_angle_gamma   120.00000000
_symmetry_Int_Tables_number   1
_chemical_formula_structural   Bi2Te3
_chemical_formula_sum   'Bi6 Te9'
_cell_volume   534.09850044
_cell_formula_units_Z   3
loop_
 _symmetry_equiv_pos_site_id
 _symmetry_equiv_pos_as_xyz
  1  'x, y, z'
loop_
 _atom_site_type_symbol
 _atom_site_label
 _atom_site_symmetry_multiplicity
 _atom_site_fract_x
 _atom_site_fract_y
 _atom_site_fract_z
 _atom_site_occupancy
  Bi  Bi0  1  0.33333333  0.66666667  0.26740967  1
  Bi  Bi1  1  0.33333333  0.66666667  0.06592367  1
  Bi  Bi2  1  0.00000000  0.00000000  0.60074300  1
  Bi  Bi3  1  0.00000000  0.00000000  0.39925700  1
  Bi  Bi4  1  0.66666667  0.33333333  0.93407633  1
  Bi  Bi5  1  0.66666667  0.33333333  0.73259033  1
  Te  Te6  1  0.66666667  0.33333333  0.12148933  1
  Te  Te7  1  0.00000000  0.00000000  0.00000000  1
  Te  Te8  1  0.00000000  0.00000000  0.21184400  1
  Te  Te9  1  0.33333333  0.66666667  0.45482267  1
  Te  Te10  1  0.66666667  0.33333333  0.33333333  1
  Te  Te11  1  0.66666667  0.33333333  0.54517733  1
  Te  Te12  1  0.00000000  0.00000000  0.78815600  1
  Te  Te13  1  0.33333333  0.66666667  0.66666667  1
  Te  Te14  1  0.33333333  0.66666667  0.87851067  1
