# generated using pymatgen
data_Li2CO3
_symmetry_space_group_name_H-M   'P 1'
_cell_length_a   8.41820000
_cell_length_b   5.04435200
_cell_length_c   6.34779188
_cell_angle_alpha   90.00000000
_cell_angle_beta   114.23623240
_cell_angle_gamma   90.00000000
_symmetry_Int_Tables_number   1
_chemical_formula_structural   Li2CO3
_chemical_formula_sum   'Li8 C4 O12'
_cell_volume   245.79656311
_cell_formula_units_Z   4
loop_
 _symmetry_equiv_pos_site_id
 _symmetry_equiv_pos_as_xyz
  1  'x, y, z'
loop_
 _atom_site_type_symbol
 _atom_site_label
 _atom_site_symmetry_multiplicity
 _atom_site_fract_x
 _atom_site_fract_y
 _atom_site_fract_z
 _atom_site_occupancy
  Li  Li0  1  0.69885150  0.94909350  0.83895600  1
  Li  Li1  1  0.30114850  0.94909350  0.66104400  1
  Li  Li2  1  0.30114850  0.05090650  0.16104400  1
  Li  Li3  1  0.69885150  0.05090650  0.33895600  1
  Li  Li4  1  0.19885150  0.44909350  0.83895600  1
  Li  Li5  1  0.80114850  0.44909350  0.66104400  1
  Li  Li6  1  0.80114850  0.55090650  0.16104400  1
  Li  Li7  1  0.19885150  0.55090650  0.33895600  1
  C  C8  1  0.50000000  0.56503700  0.25000000  1
  C  C9  1  0.50000000  0.43496300  0.75000000  1
  C  C10  1  0.00000000  0.06503700  0.25000000  1
  C  C11  1  0.00000000  0.93496300  0.75000000  1
  O  O12  1  0.50000000  0.81985400  0.25000000  1
  O  O13  1  0.50000000  0.18014600  0.75000000  1
  O  O14  1  0.14687500  0.93520700  0.31474700  1
  O  O15  1  0.85312500  0.93520700  0.18525300  1
  O  O16  1  0.85312500  0.06479300  0.68525300  1
  O  O17  1  0.14687500  0.06479300  0.81474700  1
  O  O18  1  0.00000000  0.31985400  0.25000000  1
  O  O19  1  0.00000000  0.68014600  0.75000000  1
  O  O20  1  0.64687500  0.43520700  0.31474700  1
  O  O21  1  0.35312500  0.43520700  0.18525300  1
  O  O22  1  0.35312500  0.56479300  0.68525300  1
  O  O23  1  0.64687500  0.56479300  0.81474700  1
