# generated using pymatgen
data_Si5P6O25
_symmetry_space_group_name_H-M   'P 1'
_cell_length_a   7.98009398
_cell_length_b   7.98009398
_cell_length_c   24.32803536
_cell_angle_alpha   90.00000000
_cell_angle_beta   90.00000000
_cell_angle_gamma   120.00000000
_symmetry_Int_Tables_number   1
_chemical_formula_structural   Si5P6O25
_chemical_formula_sum   'Si15 P18 O75'
_cell_volume   1341.69463013
_cell_formula_units_Z   3
loop_
 _symmetry_equiv_pos_site_id
 _symmetry_equiv_pos_as_xyz
  1  'x, y, z'
loop_
 _atom_site_type_symbol
 _atom_site_label
 _atom_site_symmetry_multiplicity
 _atom_site_fract_x
 _atom_site_fract_y
 _atom_site_fract_z
 _atom_site_occupancy
  Si  Si0  1  0.00000000  0.00000000  0.00000000  1
  Si  Si1  1  0.00000000  0.00000000  0.18078100  1
  Si  Si2  1  0.66666667  0.33333333  0.15255233  1
  Si  Si3  1  0.33333333  0.66666667  0.10064267  1
  Si  Si4  1  0.33333333  0.66666667  0.23269067  1
  Si  Si5  1  0.66666667  0.33333333  0.33333333  1
  Si  Si6  1  0.66666667  0.33333333  0.51411433  1
  Si  Si7  1  0.33333333  0.66666667  0.48588567  1
  Si  Si8  1  0.00000000  0.00000000  0.43397600  1
  Si  Si9  1  0.00000000  0.00000000  0.56602400  1
  Si  Si10  1  0.33333333  0.66666667  0.66666667  1
  Si  Si11  1  0.33333333  0.66666667  0.84744767  1
  Si  Si12  1  0.00000000  0.00000000  0.81921900  1
  Si  Si13  1  0.66666667  0.33333333  0.76730933  1
  Si  Si14  1  0.66666667  0.33333333  0.89935733  1
  P  P15  1  0.98194600  0.26676200  0.09244300  1
  P  P16  1  0.28481600  0.01805400  0.09244300  1
  P  P17  1  0.73323800  0.71518400  0.09244300  1
  P  P18  1  0.68472067  0.06657133  0.24089033  1
  P  P19  1  0.38185067  0.31527933  0.24089033  1
  P  P20  1  0.93342867  0.61814933  0.24089033  1
  P  P21  1  0.64861267  0.60009533  0.42577633  1
  P  P22  1  0.95148267  0.35138733  0.42577633  1
  P  P23  1  0.39990467  0.04851733  0.42577633  1
  P  P24  1  0.35138733  0.39990467  0.57422367  1
  P  P25  1  0.04851733  0.64861267  0.57422367  1
  P  P26  1  0.60009533  0.95148267  0.57422367  1
  P  P27  1  0.31527933  0.93342867  0.75910967  1
  P  P28  1  0.61814933  0.68472067  0.75910967  1
  P  P29  1  0.06657133  0.38185067  0.75910967  1
  P  P30  1  0.01805400  0.73323800  0.90755700  1
  P  P31  1  0.71518400  0.98194600  0.90755700  1
  P  P32  1  0.26676200  0.28481600  0.90755700  1
  O  O33  1  0.92534733  0.79602567  0.22304867  1
  O  O34  1  0.20397433  0.12932167  0.22304867  1
  O  O35  1  0.87067833  0.07465267  0.22304867  1
  O  O36  1  0.74131933  0.53730767  0.11028467  1
  O  O37  1  0.46269233  0.20401167  0.11028467  1
  O  O38  1  0.79598833  0.25868067  0.11028467  1
  O  O39  1  0.14948433  0.68029267  0.25693467  1
  O  O40  1  0.31970733  0.46919167  0.25693467  1
  O  O41  1  0.53080833  0.85051567  0.25693467  1
  O  O42  1  0.51718233  0.65304067  0.07639867  1
  O  O43  1  0.34695933  0.86414167  0.07639867  1
  O  O44  1  0.33333333  0.66666667  0.16666667  1
  O  O45  1  0.07875400  0.21155100  0.13834100  1
  O  O46  1  0.13279700  0.92124600  0.13834100  1
  O  O47  1  0.78844900  0.86720300  0.13834100  1
  O  O48  1  0.58791267  0.12178233  0.19499233  1
  O  O49  1  0.53386967  0.41208733  0.19499233  1
  O  O50  1  0.87821767  0.46613033  0.19499233  1
  O  O51  1  0.93634700  0.14468500  0.04071200  1
  O  O52  1  0.20833800  0.06365300  0.04071200  1
  O  O53  1  0.85531500  0.79166200  0.04071200  1
  O  O54  1  0.73031967  0.18864833  0.29262133  1
  O  O55  1  0.45832867  0.26968033  0.29262133  1
  O  O56  1  0.81135167  0.54167133  0.29262133  1
  O  O57  1  0.13585833  0.48281767  0.07639867  1
  O  O58  1  0.59201400  0.12935900  0.55638200  1
  O  O59  1  0.87064100  0.46265500  0.55638200  1
  O  O60  1  0.53734500  0.40798600  0.55638200  1
  O  O61  1  0.40798600  0.87064100  0.44361800  1
  O  O62  1  0.12935900  0.53734500  0.44361800  1
  O  O63  1  0.46265500  0.59201400  0.44361800  1
  O  O64  1  0.81615100  0.01362600  0.59026800  1
  O  O65  1  0.98637400  0.80252500  0.59026800  1
  O  O66  1  0.19747500  0.18384900  0.59026800  1
  O  O67  1  0.18384900  0.98637400  0.40973200  1
  O  O68  1  0.01362600  0.19747500  0.40973200  1
  O  O69  1  1.00000000  0.00000000  0.50000000  1
  O  O70  1  0.74542067  0.54488433  0.47167433  1
  O  O71  1  0.79946367  0.25457933  0.47167433  1
  O  O72  1  0.45511567  0.20053633  0.47167433  1
  O  O73  1  0.25457933  0.45511567  0.52832567  1
  O  O74  1  0.20053633  0.74542067  0.52832567  1
  O  O75  1  0.54488433  0.79946367  0.52832567  1
  O  O76  1  0.60301367  0.47801833  0.37404533  1
  O  O77  1  0.87500467  0.39698633  0.37404533  1
  O  O78  1  0.52198167  0.12499533  0.37404533  1
  O  O79  1  0.39698633  0.52198167  0.62595467  1
  O  O80  1  0.12499533  0.60301367  0.62595467  1
  O  O81  1  0.47801833  0.87500467  0.62595467  1
  O  O82  1  0.80252500  0.81615100  0.40973200  1
  O  O83  1  0.25868067  0.46269233  0.88971533  1
  O  O84  1  0.53730767  0.79598833  0.88971533  1
  O  O85  1  0.20401167  0.74131933  0.88971533  1
  O  O86  1  0.07465267  0.20397433  0.77695133  1
  O  O87  1  0.79602567  0.87067833  0.77695133  1
  O  O88  1  0.12932167  0.92534733  0.77695133  1
  O  O89  1  0.48281767  0.34695933  0.92360133  1
  O  O90  1  0.65304067  0.13585833  0.92360133  1
  O  O91  1  0.86414167  0.51718233  0.92360133  1
  O  O92  1  0.85051567  0.31970733  0.74306533  1
  O  O93  1  0.68029267  0.53080833  0.74306533  1
  O  O94  1  0.66666667  0.33333333  0.83333333  1
  O  O95  1  0.41208733  0.87821767  0.80500767  1
  O  O96  1  0.46613033  0.58791267  0.80500767  1
  O  O97  1  0.12178233  0.53386967  0.80500767  1
  O  O98  1  0.92124600  0.78844900  0.86165900  1
  O  O99  1  0.86720300  0.07875400  0.86165900  1
  O  O100  1  0.21155100  0.13279700  0.86165900  1
  O  O101  1  0.26968033  0.81135167  0.70737867  1
  O  O102  1  0.54167133  0.73031967  0.70737867  1
  O  O103  1  0.18864833  0.45832867  0.70737867  1
  O  O104  1  0.06365300  0.85531500  0.95928800  1
  O  O105  1  0.79166200  0.93634700  0.95928800  1
  O  O106  1  0.14468500  0.20833800  0.95928800  1
  O  O107  1  0.46919167  0.14948433  0.74306533  1
