# generated using pymatgen
data_SiO2
_symmetry_space_group_name_H-M   'P 1'
_cell_length_a   24.56334800
_cell_length_b   24.56334800
_cell_length_c   24.56334800
_cell_angle_alpha   90.00000000
_cell_angle_beta   90.00000000
_cell_angle_gamma   90.00000000
_symmetry_Int_Tables_number   1
_chemical_formula_structural   SiO2
_chemical_formula_sum   'Si192 O384'
_cell_volume   14820.49411844
_cell_formula_units_Z   192
loop_
 _symmetry_equiv_pos_site_id
 _symmetry_equiv_pos_as_xyz
  1  'x, y, z'
loop_
 _atom_site_type_symbol
 _atom_site_label
 _atom_site_symmetry_multiplicity
 _atom_site_fract_x
 _atom_site_fract_y
 _atom_site_fract_z
 _atom_site_occupancy
  Si  Si0  1  0.00067700  0.17923150  0.91096950  1
  Si  Si1  1  0.08903050  0.17923150  0.99932300  1
  Si  Si2  1  0.17923150  0.08903050  0.99932300  1
  Si  Si3  1  0.00067700  0.08903050  0.82076850  1
  Si  Si4  1  0.17923150  0.00067700  0.91096950  1
  Si  Si5  1  0.08903050  0.00067700  0.82076850  1
  Si  Si6  1  0.82076850  0.91096950  0.99932300  1
  Si  Si7  1  0.50067700  0.91096950  0.67923150  1
  Si  Si8  1  0.82076850  0.99932300  0.91096950  1
  Si  Si9  1  0.58903050  0.99932300  0.67923150  1
  Si  Si10  1  0.00067700  0.82076850  0.08903050  1
  Si  Si11  1  0.91096950  0.82076850  0.99932300  1
  Si  Si12  1  0.08903050  0.82076850  0.00067700  1
  Si  Si13  1  0.99932300  0.82076850  0.91096950  1
  Si  Si14  1  0.83903050  0.07076850  0.74932300  1
  Si  Si15  1  0.75067700  0.07076850  0.66096950  1
  Si  Si16  1  0.91096950  0.99932300  0.82076850  1
  Si  Si17  1  0.17923150  0.99932300  0.08903050  1
  Si  Si18  1  0.17923150  0.91096950  0.00067700  1
  Si  Si19  1  0.99932300  0.91096950  0.82076850  1
  Si  Si20  1  0.25067700  0.16096950  0.07076850  1
  Si  Si21  1  0.92923150  0.16096950  0.74932300  1
  Si  Si22  1  0.41096950  0.00067700  0.67923150  1
  Si  Si23  1  0.82076850  0.00067700  0.08903050  1
  Si  Si24  1  0.33903050  0.24932300  0.07076850  1
  Si  Si25  1  0.92923150  0.24932300  0.66096950  1
  Si  Si26  1  0.82076850  0.08903050  0.00067700  1
  Si  Si27  1  0.49932300  0.08903050  0.67923150  1
  Si  Si28  1  0.75067700  0.33903050  0.92923150  1
  Si  Si29  1  0.57076850  0.33903050  0.74932300  1
  Si  Si30  1  0.57076850  0.25067700  0.66096950  1
  Si  Si31  1  0.83903050  0.25067700  0.92923150  1
  Si  Si32  1  0.99932300  0.17923150  0.08903050  1
  Si  Si33  1  0.91096950  0.17923150  0.00067700  1
  Si  Si34  1  0.66096950  0.42923150  0.74932300  1
  Si  Si35  1  0.75067700  0.42923150  0.83903050  1
  Si  Si36  1  0.74932300  0.42923150  0.66096950  1
  Si  Si37  1  0.83903050  0.42923150  0.75067700  1
  Si  Si38  1  0.16096950  0.25067700  0.07076850  1
  Si  Si39  1  0.92923150  0.25067700  0.83903050  1
  Si  Si40  1  0.24932300  0.33903050  0.07076850  1
  Si  Si41  1  0.92923150  0.33903050  0.75067700  1
  Si  Si42  1  0.66096950  0.24932300  0.92923150  1
  Si  Si43  1  0.57076850  0.24932300  0.83903050  1
  Si  Si44  1  0.74932300  0.16096950  0.92923150  1
  Si  Si45  1  0.57076850  0.16096950  0.75067700  1
  Si  Si46  1  0.74932300  0.07076850  0.83903050  1
  Si  Si47  1  0.66096950  0.07076850  0.75067700  1
  Si  Si48  1  0.00067700  0.67923150  0.41096950  1
  Si  Si49  1  0.08903050  0.67923150  0.49932300  1
  Si  Si50  1  0.17923150  0.58903050  0.49932300  1
  Si  Si51  1  0.00067700  0.58903050  0.32076850  1
  Si  Si52  1  0.17923150  0.50067700  0.41096950  1
  Si  Si53  1  0.08903050  0.50067700  0.32076850  1
  Si  Si54  1  0.82076850  0.41096950  0.49932300  1
  Si  Si55  1  0.50067700  0.41096950  0.17923150  1
  Si  Si56  1  0.82076850  0.49932300  0.41096950  1
  Si  Si57  1  0.58903050  0.49932300  0.17923150  1
  Si  Si58  1  0.00067700  0.32076850  0.58903050  1
  Si  Si59  1  0.91096950  0.32076850  0.49932300  1
  Si  Si60  1  0.08903050  0.32076850  0.50067700  1
  Si  Si61  1  0.99932300  0.32076850  0.41096950  1
  Si  Si62  1  0.83903050  0.57076850  0.24932300  1
  Si  Si63  1  0.75067700  0.57076850  0.16096950  1
  Si  Si64  1  0.91096950  0.49932300  0.32076850  1
  Si  Si65  1  0.17923150  0.49932300  0.58903050  1
  Si  Si66  1  0.17923150  0.41096950  0.50067700  1
  Si  Si67  1  0.99932300  0.41096950  0.32076850  1
  Si  Si68  1  0.25067700  0.66096950  0.57076850  1
  Si  Si69  1  0.92923150  0.66096950  0.24932300  1
  Si  Si70  1  0.41096950  0.50067700  0.17923150  1
  Si  Si71  1  0.82076850  0.50067700  0.58903050  1
  Si  Si72  1  0.33903050  0.74932300  0.57076850  1
  Si  Si73  1  0.92923150  0.74932300  0.16096950  1
  Si  Si74  1  0.82076850  0.58903050  0.50067700  1
  Si  Si75  1  0.49932300  0.58903050  0.17923150  1
  Si  Si76  1  0.75067700  0.83903050  0.42923150  1
  Si  Si77  1  0.57076850  0.83903050  0.24932300  1
  Si  Si78  1  0.57076850  0.75067700  0.16096950  1
  Si  Si79  1  0.83903050  0.75067700  0.42923150  1
  Si  Si80  1  0.99932300  0.67923150  0.58903050  1
  Si  Si81  1  0.91096950  0.67923150  0.50067700  1
  Si  Si82  1  0.66096950  0.92923150  0.24932300  1
  Si  Si83  1  0.75067700  0.92923150  0.33903050  1
  Si  Si84  1  0.74932300  0.92923150  0.16096950  1
  Si  Si85  1  0.83903050  0.92923150  0.25067700  1
  Si  Si86  1  0.16096950  0.75067700  0.57076850  1
  Si  Si87  1  0.92923150  0.75067700  0.33903050  1
  Si  Si88  1  0.24932300  0.83903050  0.57076850  1
  Si  Si89  1  0.92923150  0.83903050  0.25067700  1
  Si  Si90  1  0.66096950  0.74932300  0.42923150  1
  Si  Si91  1  0.57076850  0.74932300  0.33903050  1
  Si  Si92  1  0.74932300  0.66096950  0.42923150  1
  Si  Si93  1  0.57076850  0.66096950  0.25067700  1
  Si  Si94  1  0.74932300  0.57076850  0.33903050  1
  Si  Si95  1  0.66096950  0.57076850  0.25067700  1
  Si  Si96  1  0.50067700  0.17923150  0.41096950  1
  Si  Si97  1  0.58903050  0.17923150  0.49932300  1
  Si  Si98  1  0.67923150  0.08903050  0.49932300  1
  Si  Si99  1  0.50067700  0.08903050  0.32076850  1
  Si  Si100  1  0.67923150  0.00067700  0.41096950  1
  Si  Si101  1  0.58903050  0.00067700  0.32076850  1
  Si  Si102  1  0.32076850  0.91096950  0.49932300  1
  Si  Si103  1  0.00067700  0.91096950  0.17923150  1
  Si  Si104  1  0.32076850  0.99932300  0.41096950  1
  Si  Si105  1  0.08903050  0.99932300  0.17923150  1
  Si  Si106  1  0.50067700  0.82076850  0.58903050  1
  Si  Si107  1  0.41096950  0.82076850  0.49932300  1
  Si  Si108  1  0.58903050  0.82076850  0.50067700  1
  Si  Si109  1  0.49932300  0.82076850  0.41096950  1
  Si  Si110  1  0.33903050  0.07076850  0.24932300  1
  Si  Si111  1  0.25067700  0.07076850  0.16096950  1
  Si  Si112  1  0.41096950  0.99932300  0.32076850  1
  Si  Si113  1  0.67923150  0.99932300  0.58903050  1
  Si  Si114  1  0.67923150  0.91096950  0.50067700  1
  Si  Si115  1  0.49932300  0.91096950  0.32076850  1
  Si  Si116  1  0.75067700  0.16096950  0.57076850  1
  Si  Si117  1  0.42923150  0.16096950  0.24932300  1
  Si  Si118  1  0.91096950  0.00067700  0.17923150  1
  Si  Si119  1  0.32076850  0.00067700  0.58903050  1
  Si  Si120  1  0.83903050  0.24932300  0.57076850  1
  Si  Si121  1  0.42923150  0.24932300  0.16096950  1
  Si  Si122  1  0.32076850  0.08903050  0.50067700  1
  Si  Si123  1  0.99932300  0.08903050  0.17923150  1
  Si  Si124  1  0.25067700  0.33903050  0.42923150  1
  Si  Si125  1  0.07076850  0.33903050  0.24932300  1
  Si  Si126  1  0.07076850  0.25067700  0.16096950  1
  Si  Si127  1  0.33903050  0.25067700  0.42923150  1
  Si  Si128  1  0.49932300  0.17923150  0.58903050  1
  Si  Si129  1  0.41096950  0.17923150  0.50067700  1
  Si  Si130  1  0.16096950  0.42923150  0.24932300  1
  Si  Si131  1  0.25067700  0.42923150  0.33903050  1
  Si  Si132  1  0.24932300  0.42923150  0.16096950  1
  Si  Si133  1  0.33903050  0.42923150  0.25067700  1
  Si  Si134  1  0.66096950  0.25067700  0.57076850  1
  Si  Si135  1  0.42923150  0.25067700  0.33903050  1
  Si  Si136  1  0.74932300  0.33903050  0.57076850  1
  Si  Si137  1  0.42923150  0.33903050  0.25067700  1
  Si  Si138  1  0.16096950  0.24932300  0.42923150  1
  Si  Si139  1  0.07076850  0.24932300  0.33903050  1
  Si  Si140  1  0.24932300  0.16096950  0.42923150  1
  Si  Si141  1  0.07076850  0.16096950  0.25067700  1
  Si  Si142  1  0.24932300  0.07076850  0.33903050  1
  Si  Si143  1  0.16096950  0.07076850  0.25067700  1
  Si  Si144  1  0.50067700  0.67923150  0.91096950  1
  Si  Si145  1  0.58903050  0.67923150  0.99932300  1
  Si  Si146  1  0.67923150  0.58903050  0.99932300  1
  Si  Si147  1  0.50067700  0.58903050  0.82076850  1
  Si  Si148  1  0.67923150  0.50067700  0.91096950  1
  Si  Si149  1  0.58903050  0.50067700  0.82076850  1
  Si  Si150  1  0.32076850  0.41096950  0.99932300  1
  Si  Si151  1  0.00067700  0.41096950  0.67923150  1
  Si  Si152  1  0.32076850  0.49932300  0.91096950  1
  Si  Si153  1  0.08903050  0.49932300  0.67923150  1
  Si  Si154  1  0.50067700  0.32076850  0.08903050  1
  Si  Si155  1  0.41096950  0.32076850  0.99932300  1
  Si  Si156  1  0.58903050  0.32076850  0.00067700  1
  Si  Si157  1  0.49932300  0.32076850  0.91096950  1
  Si  Si158  1  0.33903050  0.57076850  0.74932300  1
  Si  Si159  1  0.25067700  0.57076850  0.66096950  1
  Si  Si160  1  0.41096950  0.49932300  0.82076850  1
  Si  Si161  1  0.67923150  0.49932300  0.08903050  1
  Si  Si162  1  0.67923150  0.41096950  0.00067700  1
  Si  Si163  1  0.49932300  0.41096950  0.82076850  1
  Si  Si164  1  0.75067700  0.66096950  0.07076850  1
  Si  Si165  1  0.42923150  0.66096950  0.74932300  1
  Si  Si166  1  0.91096950  0.50067700  0.67923150  1
  Si  Si167  1  0.32076850  0.50067700  0.08903050  1
  Si  Si168  1  0.83903050  0.74932300  0.07076850  1
  Si  Si169  1  0.42923150  0.74932300  0.66096950  1
  Si  Si170  1  0.32076850  0.58903050  0.00067700  1
  Si  Si171  1  0.99932300  0.58903050  0.67923150  1
  Si  Si172  1  0.25067700  0.83903050  0.92923150  1
  Si  Si173  1  0.07076850  0.83903050  0.74932300  1
  Si  Si174  1  0.07076850  0.75067700  0.66096950  1
  Si  Si175  1  0.33903050  0.75067700  0.92923150  1
  Si  Si176  1  0.49932300  0.67923150  0.08903050  1
  Si  Si177  1  0.41096950  0.67923150  0.00067700  1
  Si  Si178  1  0.16096950  0.92923150  0.74932300  1
  Si  Si179  1  0.25067700  0.92923150  0.83903050  1
  Si  Si180  1  0.24932300  0.92923150  0.66096950  1
  Si  Si181  1  0.33903050  0.92923150  0.75067700  1
  Si  Si182  1  0.66096950  0.75067700  0.07076850  1
  Si  Si183  1  0.42923150  0.75067700  0.83903050  1
  Si  Si184  1  0.74932300  0.83903050  0.07076850  1
  Si  Si185  1  0.42923150  0.83903050  0.75067700  1
  Si  Si186  1  0.16096950  0.74932300  0.92923150  1
  Si  Si187  1  0.07076850  0.74932300  0.83903050  1
  Si  Si188  1  0.24932300  0.66096950  0.92923150  1
  Si  Si189  1  0.07076850  0.66096950  0.75067700  1
  Si  Si190  1  0.24932300  0.57076850  0.83903050  1
  Si  Si191  1  0.16096950  0.57076850  0.75067700  1
  O  O192  1  0.37830300  0.23404200  0.12169700  1
  O  O193  1  0.51822150  0.37500000  0.76822150  1
  O  O194  1  0.12830300  0.01595800  0.87169700  1
  O  O195  1  0.73177850  0.48177850  0.87500000  1
  O  O196  1  0.12500000  0.23177850  0.01822150  1
  O  O197  1  0.23177850  0.01822150  0.12500000  1
  O  O198  1  0.23404200  0.37830300  0.12169700  1
  O  O199  1  0.87830300  0.37830300  0.76595800  1
  O  O200  1  0.29890050  0.29890050  0.08956600  1
  O  O201  1  0.91043400  0.29890050  0.70109950  1
  O  O202  1  0.98177850  0.12500000  0.76822150  1
  O  O203  1  0.48177850  0.87500000  0.73177850  1
  O  O204  1  0.87500000  0.76822150  0.01822150  1
  O  O205  1  0.20109950  0.20109950  0.08956600  1
  O  O206  1  0.16043400  0.04890050  0.04890050  1
  O  O207  1  0.95109950  0.04890050  0.83956600  1
  O  O208  1  0.91043400  0.20109950  0.79890050  1
  O  O209  1  0.12830300  0.87169700  0.01595800  1
  O  O210  1  0.98404200  0.87169700  0.87169700  1
  O  O211  1  0.62500000  0.26822150  0.98177850  1
  O  O212  1  0.26595800  0.12169700  0.12169700  1
  O  O213  1  0.01595800  0.12830300  0.87169700  1
  O  O214  1  0.12830300  0.12830300  0.98404200  1
  O  O215  1  0.87830300  0.12169700  0.73404200  1
  O  O216  1  0.04890050  0.95109950  0.83956600  1
  O  O217  1  0.16043400  0.95109950  0.95109950  1
  O  O218  1  0.23177850  0.12500000  0.01822150  1
  O  O219  1  0.80401650  0.30401650  0.94647200  1
  O  O220  1  0.55352800  0.30401650  0.69598350  1
  O  O221  1  0.76822150  0.01822150  0.87500000  1
  O  O222  1  0.87500000  0.23177850  0.98177850  1
  O  O223  1  0.79890050  0.41043400  0.70109950  1
  O  O224  1  0.80401650  0.05352800  0.69598350  1
  O  O225  1  0.76822150  0.98177850  0.12500000  1
  O  O226  1  0.69598350  0.19598350  0.94647200  1
  O  O227  1  0.80352800  0.05401650  0.05401650  1
  O  O228  1  0.44598350  0.05401650  0.69647200  1
  O  O229  1  0.55352800  0.19598350  0.80401650  1
  O  O230  1  0.98177850  0.76822150  0.12500000  1
  O  O231  1  0.55401650  0.94598350  0.69647200  1
  O  O232  1  0.80352800  0.94598350  0.94598350  1
  O  O233  1  0.94598350  0.19647200  0.05401650  1
  O  O234  1  0.95109950  0.83956600  0.04890050  1
  O  O235  1  0.04890050  0.16043400  0.04890050  1
  O  O236  1  0.95109950  0.16043400  0.95109950  1
  O  O237  1  0.12169700  0.26595800  0.12169700  1
  O  O238  1  0.05401650  0.80352800  0.05401650  1
  O  O239  1  0.94598350  0.80352800  0.94598350  1
  O  O240  1  0.87830300  0.26595800  0.87830300  1
  O  O241  1  0.87169700  0.98404200  0.87169700  1
  O  O242  1  0.69598350  0.44647200  0.69598350  1
  O  O243  1  0.80401650  0.44647200  0.80401650  1
  O  O244  1  0.79890050  0.08956600  0.79890050  1
  O  O245  1  0.62830300  0.98404200  0.62830300  1
  O  O246  1  0.70109950  0.08956600  0.70109950  1
  O  O247  1  0.04890050  0.83956600  0.95109950  1
  O  O248  1  0.87500000  0.01822150  0.76822150  1
  O  O249  1  0.98177850  0.23177850  0.87500000  1
  O  O250  1  0.05401650  0.19647200  0.94598350  1
  O  O251  1  0.19647200  0.94598350  0.05401650  1
  O  O252  1  0.94598350  0.94598350  0.80352800  1
  O  O253  1  0.19647200  0.05401650  0.94598350  1
  O  O254  1  0.94647200  0.19598350  0.69598350  1
  O  O255  1  0.30401650  0.19598350  0.05352800  1
  O  O256  1  0.05401650  0.05401650  0.80352800  1
  O  O257  1  0.51822150  0.12500000  0.73177850  1
  O  O258  1  0.62500000  0.48177850  0.76822150  1
  O  O259  1  0.69598350  0.05352800  0.80401650  1
  O  O260  1  0.70109950  0.41043400  0.79890050  1
  O  O261  1  0.94647200  0.30401650  0.80401650  1
  O  O262  1  0.19598350  0.30401650  0.05352800  1
  O  O263  1  0.37500000  0.98177850  0.73177850  1
  O  O264  1  0.76822150  0.87500000  0.01822150  1
  O  O265  1  0.76822150  0.12500000  0.98177850  1
  O  O266  1  0.83956600  0.95109950  0.04890050  1
  O  O267  1  0.45109950  0.95109950  0.66043400  1
  O  O268  1  0.62169700  0.12169700  0.76595800  1
  O  O269  1  0.73404200  0.12169700  0.87830300  1
  O  O270  1  0.87169700  0.12830300  0.01595800  1
  O  O271  1  0.48404200  0.12830300  0.62830300  1
  O  O272  1  0.87169700  0.87169700  0.98404200  1
  O  O273  1  0.51595800  0.87169700  0.62830300  1
  O  O274  1  0.58956600  0.20109950  0.70109950  1
  O  O275  1  0.83956600  0.04890050  0.95109950  1
  O  O276  1  0.79890050  0.20109950  0.91043400  1
  O  O277  1  0.54890050  0.04890050  0.66043400  1
  O  O278  1  0.01822150  0.23177850  0.12500000  1
  O  O279  1  0.62500000  0.01822150  0.73177850  1
  O  O280  1  0.51822150  0.26822150  0.87500000  1
  O  O281  1  0.73177850  0.37500000  0.98177850  1
  O  O282  1  0.70109950  0.29890050  0.91043400  1
  O  O283  1  0.58956600  0.29890050  0.79890050  1
  O  O284  1  0.62169700  0.37830300  0.73404200  1
  O  O285  1  0.76595800  0.37830300  0.87830300  1
  O  O286  1  0.37169700  0.01595800  0.62830300  1
  O  O287  1  0.62169700  0.23404200  0.87830300  1
  O  O288  1  0.37830300  0.73404200  0.62169700  1
  O  O289  1  0.51822150  0.87500000  0.26822150  1
  O  O290  1  0.12830300  0.51595800  0.37169700  1
  O  O291  1  0.73177850  0.98177850  0.37500000  1
  O  O292  1  0.12500000  0.73177850  0.51822150  1
  O  O293  1  0.23177850  0.51822150  0.62500000  1
  O  O294  1  0.23404200  0.87830300  0.62169700  1
  O  O295  1  0.87830300  0.87830300  0.26595800  1
  O  O296  1  0.29890050  0.79890050  0.58956600  1
  O  O297  1  0.91043400  0.79890050  0.20109950  1
  O  O298  1  0.98177850  0.62500000  0.26822150  1
  O  O299  1  0.48177850  0.37500000  0.23177850  1
  O  O300  1  0.87500000  0.26822150  0.51822150  1
  O  O301  1  0.20109950  0.70109950  0.58956600  1
  O  O302  1  0.16043400  0.54890050  0.54890050  1
  O  O303  1  0.95109950  0.54890050  0.33956600  1
  O  O304  1  0.91043400  0.70109950  0.29890050  1
  O  O305  1  0.12830300  0.37169700  0.51595800  1
  O  O306  1  0.98404200  0.37169700  0.37169700  1
  O  O307  1  0.62500000  0.76822150  0.48177850  1
  O  O308  1  0.26595800  0.62169700  0.62169700  1
  O  O309  1  0.01595800  0.62830300  0.37169700  1
  O  O310  1  0.12830300  0.62830300  0.48404200  1
  O  O311  1  0.87830300  0.62169700  0.23404200  1
  O  O312  1  0.04890050  0.45109950  0.33956600  1
  O  O313  1  0.16043400  0.45109950  0.45109950  1
  O  O314  1  0.23177850  0.62500000  0.51822150  1
  O  O315  1  0.80401650  0.80401650  0.44647200  1
  O  O316  1  0.55352800  0.80401650  0.19598350  1
  O  O317  1  0.76822150  0.51822150  0.37500000  1
  O  O318  1  0.87500000  0.73177850  0.48177850  1
  O  O319  1  0.79890050  0.91043400  0.20109950  1
  O  O320  1  0.80401650  0.55352800  0.19598350  1
  O  O321  1  0.76822150  0.48177850  0.62500000  1
  O  O322  1  0.69598350  0.69598350  0.44647200  1
  O  O323  1  0.80352800  0.55401650  0.55401650  1
  O  O324  1  0.44598350  0.55401650  0.19647200  1
  O  O325  1  0.55352800  0.69598350  0.30401650  1
  O  O326  1  0.98177850  0.26822150  0.62500000  1
  O  O327  1  0.55401650  0.44598350  0.19647200  1
  O  O328  1  0.80352800  0.44598350  0.44598350  1
  O  O329  1  0.94598350  0.69647200  0.55401650  1
  O  O330  1  0.95109950  0.33956600  0.54890050  1
  O  O331  1  0.04890050  0.66043400  0.54890050  1
  O  O332  1  0.95109950  0.66043400  0.45109950  1
  O  O333  1  0.12169700  0.76595800  0.62169700  1
  O  O334  1  0.05401650  0.30352800  0.55401650  1
  O  O335  1  0.94598350  0.30352800  0.44598350  1
  O  O336  1  0.87830300  0.76595800  0.37830300  1
  O  O337  1  0.87169700  0.48404200  0.37169700  1
  O  O338  1  0.69598350  0.94647200  0.19598350  1
  O  O339  1  0.80401650  0.94647200  0.30401650  1
  O  O340  1  0.79890050  0.58956600  0.29890050  1
  O  O341  1  0.62830300  0.48404200  0.12830300  1
  O  O342  1  0.70109950  0.58956600  0.20109950  1
  O  O343  1  0.04890050  0.33956600  0.45109950  1
  O  O344  1  0.87500000  0.51822150  0.26822150  1
  O  O345  1  0.98177850  0.73177850  0.37500000  1
  O  O346  1  0.05401650  0.69647200  0.44598350  1
  O  O347  1  0.19647200  0.44598350  0.55401650  1
  O  O348  1  0.94598350  0.44598350  0.30352800  1
  O  O349  1  0.19647200  0.55401650  0.44598350  1
  O  O350  1  0.94647200  0.69598350  0.19598350  1
  O  O351  1  0.30401650  0.69598350  0.55352800  1
  O  O352  1  0.05401650  0.55401650  0.30352800  1
  O  O353  1  0.51822150  0.62500000  0.23177850  1
  O  O354  1  0.62500000  0.98177850  0.26822150  1
  O  O355  1  0.69598350  0.55352800  0.30401650  1
  O  O356  1  0.70109950  0.91043400  0.29890050  1
  O  O357  1  0.94647200  0.80401650  0.30401650  1
  O  O358  1  0.19598350  0.80401650  0.55352800  1
  O  O359  1  0.37500000  0.48177850  0.23177850  1
  O  O360  1  0.76822150  0.37500000  0.51822150  1
  O  O361  1  0.76822150  0.62500000  0.48177850  1
  O  O362  1  0.83956600  0.45109950  0.54890050  1
  O  O363  1  0.45109950  0.45109950  0.16043400  1
  O  O364  1  0.62169700  0.62169700  0.26595800  1
  O  O365  1  0.73404200  0.62169700  0.37830300  1
  O  O366  1  0.87169700  0.62830300  0.51595800  1
  O  O367  1  0.48404200  0.62830300  0.12830300  1
  O  O368  1  0.87169700  0.37169700  0.48404200  1
  O  O369  1  0.51595800  0.37169700  0.12830300  1
  O  O370  1  0.58956600  0.70109950  0.20109950  1
  O  O371  1  0.83956600  0.54890050  0.45109950  1
  O  O372  1  0.79890050  0.70109950  0.41043400  1
  O  O373  1  0.54890050  0.54890050  0.16043400  1
  O  O374  1  0.01822150  0.73177850  0.62500000  1
  O  O375  1  0.62500000  0.51822150  0.23177850  1
  O  O376  1  0.51822150  0.76822150  0.37500000  1
  O  O377  1  0.73177850  0.87500000  0.48177850  1
  O  O378  1  0.70109950  0.79890050  0.41043400  1
  O  O379  1  0.58956600  0.79890050  0.29890050  1
  O  O380  1  0.62169700  0.87830300  0.23404200  1
  O  O381  1  0.76595800  0.87830300  0.37830300  1
  O  O382  1  0.37169700  0.51595800  0.12830300  1
  O  O383  1  0.62169700  0.73404200  0.37830300  1
  O  O384  1  0.87830300  0.23404200  0.62169700  1
  O  O385  1  0.01822150  0.37500000  0.26822150  1
  O  O386  1  0.62830300  0.01595800  0.37169700  1
  O  O387  1  0.23177850  0.48177850  0.37500000  1
  O  O388  1  0.62500000  0.23177850  0.51822150  1
  O  O389  1  0.73177850  0.01822150  0.62500000  1
  O  O390  1  0.73404200  0.37830300  0.62169700  1
  O  O391  1  0.37830300  0.37830300  0.26595800  1
  O  O392  1  0.79890050  0.29890050  0.58956600  1
  O  O393  1  0.41043400  0.29890050  0.20109950  1
  O  O394  1  0.48177850  0.12500000  0.26822150  1
  O  O395  1  0.98177850  0.87500000  0.23177850  1
  O  O396  1  0.37500000  0.76822150  0.51822150  1
  O  O397  1  0.70109950  0.20109950  0.58956600  1
  O  O398  1  0.66043400  0.04890050  0.54890050  1
  O  O399  1  0.45109950  0.04890050  0.33956600  1
  O  O400  1  0.41043400  0.20109950  0.29890050  1
  O  O401  1  0.62830300  0.87169700  0.51595800  1
  O  O402  1  0.48404200  0.87169700  0.37169700  1
  O  O403  1  0.12500000  0.26822150  0.48177850  1
  O  O404  1  0.76595800  0.12169700  0.62169700  1
  O  O405  1  0.51595800  0.12830300  0.37169700  1
  O  O406  1  0.62830300  0.12830300  0.48404200  1
  O  O407  1  0.37830300  0.12169700  0.23404200  1
  O  O408  1  0.54890050  0.95109950  0.33956600  1
  O  O409  1  0.66043400  0.95109950  0.45109950  1
  O  O410  1  0.73177850  0.12500000  0.51822150  1
  O  O411  1  0.30401650  0.30401650  0.44647200  1
  O  O412  1  0.05352800  0.30401650  0.19598350  1
  O  O413  1  0.26822150  0.01822150  0.37500000  1
  O  O414  1  0.37500000  0.23177850  0.48177850  1
  O  O415  1  0.29890050  0.41043400  0.20109950  1
  O  O416  1  0.30401650  0.05352800  0.19598350  1
  O  O417  1  0.26822150  0.98177850  0.62500000  1
  O  O418  1  0.19598350  0.19598350  0.44647200  1
  O  O419  1  0.30352800  0.05401650  0.55401650  1
  O  O420  1  0.94598350  0.05401650  0.19647200  1
  O  O421  1  0.05352800  0.19598350  0.30401650  1
  O  O422  1  0.48177850  0.76822150  0.62500000  1
  O  O423  1  0.05401650  0.94598350  0.19647200  1
  O  O424  1  0.30352800  0.94598350  0.44598350  1
  O  O425  1  0.44598350  0.19647200  0.55401650  1
  O  O426  1  0.45109950  0.83956600  0.54890050  1
  O  O427  1  0.54890050  0.16043400  0.54890050  1
  O  O428  1  0.45109950  0.16043400  0.45109950  1
  O  O429  1  0.62169700  0.26595800  0.62169700  1
  O  O430  1  0.55401650  0.80352800  0.55401650  1
  O  O431  1  0.44598350  0.80352800  0.44598350  1
  O  O432  1  0.37830300  0.26595800  0.37830300  1
  O  O433  1  0.37169700  0.98404200  0.37169700  1
  O  O434  1  0.19598350  0.44647200  0.19598350  1
  O  O435  1  0.30401650  0.44647200  0.30401650  1
  O  O436  1  0.29890050  0.08956600  0.29890050  1
  O  O437  1  0.12830300  0.98404200  0.12830300  1
  O  O438  1  0.20109950  0.08956600  0.20109950  1
  O  O439  1  0.54890050  0.83956600  0.45109950  1
  O  O440  1  0.37500000  0.01822150  0.26822150  1
  O  O441  1  0.48177850  0.23177850  0.37500000  1
  O  O442  1  0.55401650  0.19647200  0.44598350  1
  O  O443  1  0.69647200  0.94598350  0.55401650  1
  O  O444  1  0.44598350  0.94598350  0.30352800  1
  O  O445  1  0.69647200  0.05401650  0.44598350  1
  O  O446  1  0.44647200  0.19598350  0.19598350  1
  O  O447  1  0.80401650  0.19598350  0.55352800  1
  O  O448  1  0.55401650  0.05401650  0.30352800  1
  O  O449  1  0.01822150  0.12500000  0.23177850  1
  O  O450  1  0.12500000  0.48177850  0.26822150  1
  O  O451  1  0.19598350  0.05352800  0.30401650  1
  O  O452  1  0.20109950  0.41043400  0.29890050  1
  O  O453  1  0.44647200  0.30401650  0.30401650  1
  O  O454  1  0.69598350  0.30401650  0.55352800  1
  O  O455  1  0.87500000  0.98177850  0.23177850  1
  O  O456  1  0.26822150  0.87500000  0.51822150  1
  O  O457  1  0.26822150  0.12500000  0.48177850  1
  O  O458  1  0.33956600  0.95109950  0.54890050  1
  O  O459  1  0.95109950  0.95109950  0.16043400  1
  O  O460  1  0.12169700  0.12169700  0.26595800  1
  O  O461  1  0.23404200  0.12169700  0.37830300  1
  O  O462  1  0.37169700  0.12830300  0.51595800  1
  O  O463  1  0.98404200  0.12830300  0.12830300  1
  O  O464  1  0.37169700  0.87169700  0.48404200  1
  O  O465  1  0.01595800  0.87169700  0.12830300  1
  O  O466  1  0.08956600  0.20109950  0.20109950  1
  O  O467  1  0.33956600  0.04890050  0.45109950  1
  O  O468  1  0.29890050  0.20109950  0.41043400  1
  O  O469  1  0.04890050  0.04890050  0.16043400  1
  O  O470  1  0.51822150  0.23177850  0.62500000  1
  O  O471  1  0.12500000  0.01822150  0.23177850  1
  O  O472  1  0.01822150  0.26822150  0.37500000  1
  O  O473  1  0.23177850  0.37500000  0.48177850  1
  O  O474  1  0.20109950  0.29890050  0.41043400  1
  O  O475  1  0.08956600  0.29890050  0.29890050  1
  O  O476  1  0.12169700  0.37830300  0.23404200  1
  O  O477  1  0.26595800  0.37830300  0.37830300  1
  O  O478  1  0.87169700  0.01595800  0.12830300  1
  O  O479  1  0.12169700  0.23404200  0.37830300  1
  O  O480  1  0.87830300  0.73404200  0.12169700  1
  O  O481  1  0.01822150  0.87500000  0.76822150  1
  O  O482  1  0.62830300  0.51595800  0.87169700  1
  O  O483  1  0.23177850  0.98177850  0.87500000  1
  O  O484  1  0.62500000  0.73177850  0.01822150  1
  O  O485  1  0.73177850  0.51822150  0.12500000  1
  O  O486  1  0.73404200  0.87830300  0.12169700  1
  O  O487  1  0.37830300  0.87830300  0.76595800  1
  O  O488  1  0.79890050  0.79890050  0.08956600  1
  O  O489  1  0.41043400  0.79890050  0.70109950  1
  O  O490  1  0.48177850  0.62500000  0.76822150  1
  O  O491  1  0.98177850  0.37500000  0.73177850  1
  O  O492  1  0.37500000  0.26822150  0.01822150  1
  O  O493  1  0.70109950  0.70109950  0.08956600  1
  O  O494  1  0.66043400  0.54890050  0.04890050  1
  O  O495  1  0.45109950  0.54890050  0.83956600  1
  O  O496  1  0.41043400  0.70109950  0.79890050  1
  O  O497  1  0.62830300  0.37169700  0.01595800  1
  O  O498  1  0.48404200  0.37169700  0.87169700  1
  O  O499  1  0.12500000  0.76822150  0.98177850  1
  O  O500  1  0.76595800  0.62169700  0.12169700  1
  O  O501  1  0.51595800  0.62830300  0.87169700  1
  O  O502  1  0.62830300  0.62830300  0.98404200  1
  O  O503  1  0.37830300  0.62169700  0.73404200  1
  O  O504  1  0.54890050  0.45109950  0.83956600  1
  O  O505  1  0.66043400  0.45109950  0.95109950  1
  O  O506  1  0.73177850  0.62500000  0.01822150  1
  O  O507  1  0.30401650  0.80401650  0.94647200  1
  O  O508  1  0.05352800  0.80401650  0.69598350  1
  O  O509  1  0.26822150  0.51822150  0.87500000  1
  O  O510  1  0.37500000  0.73177850  0.98177850  1
  O  O511  1  0.29890050  0.91043400  0.70109950  1
  O  O512  1  0.30401650  0.55352800  0.69598350  1
  O  O513  1  0.26822150  0.48177850  0.12500000  1
  O  O514  1  0.19598350  0.69598350  0.94647200  1
  O  O515  1  0.30352800  0.55401650  0.05401650  1
  O  O516  1  0.94598350  0.55401650  0.69647200  1
  O  O517  1  0.05352800  0.69598350  0.80401650  1
  O  O518  1  0.48177850  0.26822150  0.12500000  1
  O  O519  1  0.05401650  0.44598350  0.69647200  1
  O  O520  1  0.30352800  0.44598350  0.94598350  1
  O  O521  1  0.44598350  0.69647200  0.05401650  1
  O  O522  1  0.45109950  0.33956600  0.04890050  1
  O  O523  1  0.54890050  0.66043400  0.04890050  1
  O  O524  1  0.45109950  0.66043400  0.95109950  1
  O  O525  1  0.62169700  0.76595800  0.12169700  1
  O  O526  1  0.55401650  0.30352800  0.05401650  1
  O  O527  1  0.44598350  0.30352800  0.94598350  1
  O  O528  1  0.37830300  0.76595800  0.87830300  1
  O  O529  1  0.37169700  0.48404200  0.87169700  1
  O  O530  1  0.19598350  0.94647200  0.69598350  1
  O  O531  1  0.30401650  0.94647200  0.80401650  1
  O  O532  1  0.29890050  0.58956600  0.79890050  1
  O  O533  1  0.12830300  0.48404200  0.62830300  1
  O  O534  1  0.20109950  0.58956600  0.70109950  1
  O  O535  1  0.54890050  0.33956600  0.95109950  1
  O  O536  1  0.37500000  0.51822150  0.76822150  1
  O  O537  1  0.48177850  0.73177850  0.87500000  1
  O  O538  1  0.55401650  0.69647200  0.94598350  1
  O  O539  1  0.69647200  0.44598350  0.05401650  1
  O  O540  1  0.44598350  0.44598350  0.80352800  1
  O  O541  1  0.69647200  0.55401650  0.94598350  1
  O  O542  1  0.44647200  0.69598350  0.69598350  1
  O  O543  1  0.80401650  0.69598350  0.05352800  1
  O  O544  1  0.55401650  0.55401650  0.80352800  1
  O  O545  1  0.01822150  0.62500000  0.73177850  1
  O  O546  1  0.12500000  0.98177850  0.76822150  1
  O  O547  1  0.19598350  0.55352800  0.80401650  1
  O  O548  1  0.20109950  0.91043400  0.79890050  1
  O  O549  1  0.44647200  0.80401650  0.80401650  1
  O  O550  1  0.69598350  0.80401650  0.05352800  1
  O  O551  1  0.87500000  0.48177850  0.73177850  1
  O  O552  1  0.26822150  0.37500000  0.01822150  1
  O  O553  1  0.26822150  0.62500000  0.98177850  1
  O  O554  1  0.33956600  0.45109950  0.04890050  1
  O  O555  1  0.95109950  0.45109950  0.66043400  1
  O  O556  1  0.12169700  0.62169700  0.76595800  1
  O  O557  1  0.23404200  0.62169700  0.87830300  1
  O  O558  1  0.37169700  0.62830300  0.01595800  1
  O  O559  1  0.98404200  0.62830300  0.62830300  1
  O  O560  1  0.37169700  0.37169700  0.98404200  1
  O  O561  1  0.01595800  0.37169700  0.62830300  1
  O  O562  1  0.08956600  0.70109950  0.70109950  1
  O  O563  1  0.33956600  0.54890050  0.95109950  1
  O  O564  1  0.29890050  0.70109950  0.91043400  1
  O  O565  1  0.04890050  0.54890050  0.66043400  1
  O  O566  1  0.51822150  0.73177850  0.12500000  1
  O  O567  1  0.12500000  0.51822150  0.73177850  1
  O  O568  1  0.01822150  0.76822150  0.87500000  1
  O  O569  1  0.23177850  0.87500000  0.98177850  1
  O  O570  1  0.20109950  0.79890050  0.91043400  1
  O  O571  1  0.08956600  0.79890050  0.79890050  1
  O  O572  1  0.12169700  0.87830300  0.73404200  1
  O  O573  1  0.26595800  0.87830300  0.87830300  1
  O  O574  1  0.87169700  0.51595800  0.62830300  1
  O  O575  1  0.12169700  0.73404200  0.87830300  1
