# generated using pymatgen
data_Sm5AgSe8
_symmetry_space_group_name_H-M   'P 1'
_cell_length_a   8.81524600
_cell_length_b   8.81524600
_cell_length_c   8.93776800
_cell_angle_alpha   90.00000000
_cell_angle_beta   90.00000000
_cell_angle_gamma   90.00000000
_symmetry_Int_Tables_number   1
_chemical_formula_structural   Sm5AgSe8
_chemical_formula_sum   'Sm10 Ag2 Se16'
_cell_volume   694.54109913
_cell_formula_units_Z   2
loop_
 _symmetry_equiv_pos_site_id
 _symmetry_equiv_pos_as_xyz
  1  'x, y, z'
loop_
 _atom_site_type_symbol
 _atom_site_label
 _atom_site_symmetry_multiplicity
 _atom_site_fract_x
 _atom_site_fract_y
 _atom_site_fract_z
 _atom_site_occupancy
  Sm  Sm0  1  0.13104500  0.25257000  0.36955100  1
  Sm  Sm1  1  0.25257000  0.86895500  0.63044900  1
  Sm  Sm2  1  0.36895500  0.24743000  0.86955100  1
  Sm  Sm3  1  0.50000000  0.00000000  0.25000000  1
  Sm  Sm4  1  0.24743000  0.63104500  0.13044900  1
  Sm  Sm5  1  0.63104500  0.75257000  0.86955100  1
  Sm  Sm6  1  0.75257000  0.36895500  0.13044900  1
  Sm  Sm7  1  0.86895500  0.74743000  0.36955100  1
  Sm  Sm8  1  0.00000000  0.50000000  0.75000000  1
  Sm  Sm9  1  0.74743000  0.13104500  0.63044900  1
  Ag  Ag10  1  0.00000000  0.00000000  0.00000000  1
  Ag  Ag11  1  0.50000000  0.50000000  0.50000000  1
  Se  Se12  1  0.43031250  0.18148850  0.54746950  1
  Se  Se13  1  0.18238550  0.92456450  0.31506550  1
  Se  Se14  1  0.68148850  0.06968750  0.95253050  1
  Se  Se15  1  0.31761450  0.57543550  0.81506550  1
  Se  Se16  1  0.07543550  0.18238550  0.68493450  1
  Se  Se17  1  0.42456450  0.31761450  0.18493450  1
  Se  Se18  1  0.81851150  0.43031250  0.45253050  1
  Se  Se19  1  0.06968750  0.31851150  0.04746950  1
  Se  Se20  1  0.93031250  0.68148850  0.04746950  1
  Se  Se21  1  0.68238550  0.42456450  0.81506550  1
  Se  Se22  1  0.18148850  0.56968750  0.45253050  1
  Se  Se23  1  0.81761450  0.07543550  0.31506550  1
  Se  Se24  1  0.57543550  0.68238550  0.18493450  1
  Se  Se25  1  0.92456450  0.81761450  0.68493450  1
  Se  Se26  1  0.31851150  0.93031250  0.95253050  1
  Se  Se27  1  0.56968750  0.81851150  0.54746950  1
