# generated using pymatgen
data_MgAl2O4
_symmetry_space_group_name_H-M   'P 1'
_cell_length_a   5.76823766
_cell_length_b   5.76823766
_cell_length_c   56.68406160
_cell_angle_alpha   90.00000000
_cell_angle_beta   90.00000000
_cell_angle_gamma   120.00000000
_symmetry_Int_Tables_number   1
_chemical_formula_structural   MgAl2O4
_chemical_formula_sum   'Mg24 Al48 O96'
_cell_volume   1633.34483982
_cell_formula_units_Z   24
loop_
 _symmetry_equiv_pos_site_id
 _symmetry_equiv_pos_as_xyz
  1  'x, y, z'
loop_
 _atom_site_type_symbol
 _atom_site_label
 _atom_site_symmetry_multiplicity
 _atom_site_fract_x
 _atom_site_fract_y
 _atom_site_fract_z
 _atom_site_occupancy
  Mg  Mg0  1  0.00000000  0.00000000  0.15522600  1
  Mg  Mg1  1  0.33333333  0.66666667  0.07188467  1
  Mg  Mg2  1  0.33333333  0.66666667  0.16621367  1
  Mg  Mg3  1  0.33333333  0.66666667  0.32259067  1
  Mg  Mg4  1  0.66666667  0.33333333  0.08265133  1
  Mg  Mg5  1  0.66666667  0.33333333  0.23972733  1
  Mg  Mg6  1  0.33333333  0.66666667  0.01141167  1
  Mg  Mg7  1  0.33333333  0.66666667  0.26018567  1
  Mg  Mg8  1  0.66666667  0.33333333  0.48855933  1
  Mg  Mg9  1  0.00000000  0.00000000  0.40521800  1
  Mg  Mg10  1  0.00000000  0.00000000  0.49954700  1
  Mg  Mg11  1  0.00000000  0.00000000  0.65592400  1
  Mg  Mg12  1  0.33333333  0.66666667  0.41598467  1
  Mg  Mg13  1  0.33333333  0.66666667  0.57306067  1
  Mg  Mg14  1  0.00000000  0.00000000  0.34474500  1
  Mg  Mg15  1  0.00000000  0.00000000  0.59351900  1
  Mg  Mg16  1  0.33333333  0.66666667  0.82189267  1
  Mg  Mg17  1  0.66666667  0.33333333  0.73855133  1
  Mg  Mg18  1  0.66666667  0.33333333  0.83288033  1
  Mg  Mg19  1  0.66666667  0.33333333  0.98925733  1
  Mg  Mg20  1  0.00000000  0.00000000  0.74931800  1
  Mg  Mg21  1  0.00000000  0.00000000  0.90639400  1
  Mg  Mg22  1  0.66666667  0.33333333  0.67807833  1
  Mg  Mg23  1  0.66666667  0.33333333  0.92685233  1
  Al  Al24  1  0.00969933  0.50484967  0.12518167  1
  Al  Al25  1  0.49515033  0.50484967  0.12518167  1
  Al  Al26  1  0.49515033  0.99030067  0.12518167  1
  Al  Al27  1  0.33876600  0.16938300  0.04145200  1
  Al  Al28  1  0.83061700  0.16938300  0.04145200  1
  Al  Al29  1  0.83061700  0.66123400  0.04145200  1
  Al  Al30  1  0.33390933  0.16695467  0.29191967  1
  Al  Al31  1  0.83304533  0.16695467  0.29191967  1
  Al  Al32  1  0.00000000  0.00000000  0.09522300  1
  Al  Al33  1  0.00000000  0.00000000  0.00017500  1
  Al  Al34  1  0.83304533  0.66609067  0.29191967  1
  Al  Al35  1  0.67194733  0.83597367  0.20858267  1
  Al  Al36  1  0.16402633  0.83597367  0.20858267  1
  Al  Al37  1  0.00000000  0.00000000  0.25055200  1
  Al  Al38  1  0.16402633  0.32805267  0.20858267  1
  Al  Al39  1  0.66666667  0.33333333  0.17749933  1
  Al  Al40  1  0.67636600  0.83818300  0.45851500  1
  Al  Al41  1  0.16181700  0.83818300  0.45851500  1
  Al  Al42  1  0.16181700  0.32363400  0.45851500  1
  Al  Al43  1  0.00543267  0.50271633  0.37478533  1
  Al  Al44  1  0.49728367  0.50271633  0.37478533  1
  Al  Al45  1  0.49728367  0.99456733  0.37478533  1
  Al  Al46  1  0.00057600  0.50028800  0.62525300  1
  Al  Al47  1  0.49971200  0.50028800  0.62525300  1
  Al  Al48  1  0.66666667  0.33333333  0.42855633  1
  Al  Al49  1  0.66666667  0.33333333  0.33350833  1
  Al  Al50  1  0.49971200  0.99942400  0.62525300  1
  Al  Al51  1  0.33861400  0.16930700  0.54191600  1
  Al  Al52  1  0.83069300  0.16930700  0.54191600  1
  Al  Al53  1  0.66666667  0.33333333  0.58388533  1
  Al  Al54  1  0.83069300  0.66138600  0.54191600  1
  Al  Al55  1  0.33333333  0.66666667  0.51083267  1
  Al  Al56  1  0.34303267  0.17151633  0.79184833  1
  Al  Al57  1  0.82848367  0.17151633  0.79184833  1
  Al  Al58  1  0.82848367  0.65696733  0.79184833  1
  Al  Al59  1  0.67209933  0.83604967  0.70811867  1
  Al  Al60  1  0.16395033  0.83604967  0.70811867  1
  Al  Al61  1  0.16395033  0.32790067  0.70811867  1
  Al  Al62  1  0.66724267  0.83362133  0.95858633  1
  Al  Al63  1  0.16637867  0.83362133  0.95858633  1
  Al  Al64  1  0.33333333  0.66666667  0.76188967  1
  Al  Al65  1  0.33333333  0.66666667  0.66684167  1
  Al  Al66  1  0.16637867  0.33275733  0.95858633  1
  Al  Al67  1  0.00528067  0.50264033  0.87524933  1
  Al  Al68  1  0.49735967  0.50264033  0.87524933  1
  Al  Al69  1  0.33333333  0.66666667  0.91721867  1
  Al  Al70  1  0.49735967  0.99471933  0.87524933  1
  Al  Al71  1  0.00000000  0.00000000  0.84416600  1
  O  O72  1  0.18042400  0.36084800  0.14331300  1
  O  O73  1  0.33333333  0.66666667  0.10666367  1
  O  O74  1  0.18042400  0.81957600  0.14331300  1
  O  O75  1  0.63915200  0.81957600  0.14331300  1
  O  O76  1  0.34710467  0.17355233  0.10620633  1
  O  O77  1  0.51286267  0.02572533  0.05921533  1
  O  O78  1  0.82644767  0.17355233  0.10620633  1
  O  O79  1  0.66666667  0.33333333  0.02326733  1
  O  O80  1  0.51286267  0.48713733  0.05921533  1
  O  O81  1  0.66666667  0.33333333  0.14469133  1
  O  O82  1  0.82644767  0.65289533  0.10620633  1
  O  O83  1  0.97427467  0.48713733  0.05921533  1
  O  O84  1  0.70849333  0.85424667  0.02210667  1
  O  O85  1  0.51830433  0.03660867  0.31123467  1
  O  O86  1  0.66666667  0.33333333  0.27417933  1
  O  O87  1  0.14575333  0.85424667  0.02210667  1
  O  O88  1  0.51830433  0.48169567  0.31123467  1
  O  O89  1  0.00000000  0.00000000  0.06249800  1
  O  O90  1  0.14575333  0.29150667  0.02210667  1
  O  O91  1  0.96339133  0.48169567  0.31123467  1
  O  O92  1  0.70233267  0.85116633  0.27198733  1
  O  O93  1  0.85241200  0.70482400  0.22838200  1
  O  O94  1  0.00000000  0.00000000  0.19072900  1
  O  O95  1  0.14883367  0.85116633  0.27198733  1
  O  O96  1  0.00000000  0.00000000  0.30938500  1
  O  O97  1  0.85241200  0.14758800  0.22838200  1
  O  O98  1  0.14883367  0.29766733  0.27198733  1
  O  O99  1  0.29517600  0.14758800  0.22838200  1
  O  O100  1  0.00584867  0.50292433  0.18950233  1
  O  O101  1  0.49707567  0.50292433  0.18950233  1
  O  O102  1  0.33333333  0.66666667  0.22466467  1
  O  O103  1  0.49707567  0.99415133  0.18950233  1
  O  O104  1  0.84709067  0.69418133  0.47664633  1
  O  O105  1  0.00000000  0.00000000  0.43999700  1
  O  O106  1  0.84709067  0.15290933  0.47664633  1
  O  O107  1  0.30581867  0.15290933  0.47664633  1
  O  O108  1  0.01377133  0.50688567  0.43953967  1
  O  O109  1  0.17952933  0.35905867  0.39254867  1
  O  O110  1  0.49311433  0.50688567  0.43953967  1
  O  O111  1  0.33333333  0.66666667  0.35660067  1
  O  O112  1  0.17952933  0.82047067  0.39254867  1
  O  O113  1  0.33333333  0.66666667  0.47802467  1
  O  O114  1  0.49311433  0.98622867  0.43953967  1
  O  O115  1  0.64094133  0.82047067  0.39254867  1
  O  O116  1  0.37516000  0.18758000  0.35544000  1
  O  O117  1  0.18497100  0.36994200  0.64456800  1
  O  O118  1  0.33333333  0.66666667  0.60751267  1
  O  O119  1  0.81242000  0.18758000  0.35544000  1
  O  O120  1  0.18497100  0.81502900  0.64456800  1
  O  O121  1  0.66666667  0.33333333  0.39583133  1
  O  O122  1  0.81242000  0.62484000  0.35544000  1
  O  O123  1  0.63005800  0.81502900  0.64456800  1
  O  O124  1  0.36899933  0.18449967  0.60532067  1
  O  O125  1  0.51907867  0.03815733  0.56171533  1
  O  O126  1  0.66666667  0.33333333  0.52406233  1
  O  O127  1  0.81550033  0.18449967  0.60532067  1
  O  O128  1  0.66666667  0.33333333  0.64271833  1
  O  O129  1  0.51907867  0.48092133  0.56171533  1
  O  O130  1  0.81550033  0.63100067  0.60532067  1
  O  O131  1  0.96184267  0.48092133  0.56171533  1
  O  O132  1  0.67251533  0.83625767  0.52283567  1
  O  O133  1  0.16374233  0.83625767  0.52283567  1
  O  O134  1  0.00000000  0.00000000  0.55799800  1
  O  O135  1  0.16374233  0.32748467  0.52283567  1
  O  O136  1  0.51375733  0.02751467  0.80997967  1
  O  O137  1  0.66666667  0.33333333  0.77333033  1
  O  O138  1  0.51375733  0.48624267  0.80997967  1
  O  O139  1  0.97248533  0.48624267  0.80997967  1
  O  O140  1  0.68043800  0.84021900  0.77287300  1
  O  O141  1  0.84619600  0.69239200  0.72588200  1
  O  O142  1  0.15978100  0.84021900  0.77287300  1
  O  O143  1  0.00000000  0.00000000  0.68993400  1
  O  O144  1  0.84619600  0.15380400  0.72588200  1
  O  O145  1  0.00000000  0.00000000  0.81135800  1
  O  O146  1  0.15978100  0.31956200  0.77287300  1
  O  O147  1  0.30760800  0.15380400  0.72588200  1
  O  O148  1  0.04182667  0.52091333  0.68877333  1
  O  O149  1  0.85163767  0.70327533  0.97790133  1
  O  O150  1  0.00000000  0.00000000  0.94084600  1
  O  O151  1  0.47908667  0.52091333  0.68877333  1
  O  O152  1  0.85163767  0.14836233  0.97790133  1
  O  O153  1  0.33333333  0.66666667  0.72916467  1
  O  O154  1  0.47908667  0.95817333  0.68877333  1
  O  O155  1  0.29672467  0.14836233  0.97790133  1
  O  O156  1  0.03566600  0.51783300  0.93865400  1
  O  O157  1  0.18574533  0.37149067  0.89504867  1
  O  O158  1  0.33333333  0.66666667  0.85739567  1
  O  O159  1  0.48216700  0.51783300  0.93865400  1
  O  O160  1  0.33333333  0.66666667  0.97605167  1
  O  O161  1  0.18574533  0.81425467  0.89504867  1
  O  O162  1  0.48216700  0.96433400  0.93865400  1
  O  O163  1  0.62850933  0.81425467  0.89504867  1
  O  O164  1  0.33918200  0.16959100  0.85616900  1
  O  O165  1  0.83040900  0.16959100  0.85616900  1
  O  O166  1  0.66666667  0.33333333  0.89133133  1
  O  O167  1  0.83040900  0.66081800  0.85616900  1
