# generated using pymatgen
data_Ce2Y2O7
_symmetry_space_group_name_H-M   'P 1'
_cell_length_a   9.38404800
_cell_length_b   9.39212095
_cell_length_c   9.41691688
_cell_angle_alpha   109.48554886
_cell_angle_beta   109.32648776
_cell_angle_gamma   109.33803563
_symmetry_Int_Tables_number   1
_chemical_formula_structural   Ce2Y2O7
_chemical_formula_sum   'Ce8 Y8 O28'
_cell_volume   640.98038919
_cell_formula_units_Z   4
loop_
 _symmetry_equiv_pos_site_id
 _symmetry_equiv_pos_as_xyz
  1  'x, y, z'
loop_
 _atom_site_type_symbol
 _atom_site_label
 _atom_site_symmetry_multiplicity
 _atom_site_fract_x
 _atom_site_fract_y
 _atom_site_fract_z
 _atom_site_occupancy
  Ce  Ce0  1  0.22638600  0.25179000  0.99334400  1
  Ce  Ce1  1  0.26269100  0.75541400  0.51096500  1
  Ce  Ce2  1  0.72927200  0.22888600  0.47571300  1
  Ce  Ce3  1  0.99894300  0.25180200  0.25180900  1
  Ce  Ce4  1  0.76733700  0.51936500  0.27803000  1
  Ce  Ce5  1  0.00096200  0.00475900  0.50590900  1
  Ce  Ce6  1  0.25028100  0.99273400  0.24352900  1
  Ce  Ce7  1  0.76543000  0.74169200  0.01411200  1
  Y  Y8  1  0.74479700  0.02720000  0.74946300  1
  Y  Y9  1  0.49900000  0.99182600  0.99116400  1
  Y  Y10  1  0.00053400  0.50398700  0.02219200  1
  Y  Y11  1  0.03235800  0.77717000  0.75911600  1
  Y  Y12  1  0.25818400  0.48136500  0.73375200  1
  Y  Y13  1  0.50681500  0.25671000  0.72927500  1
  Y  Y14  1  0.48159300  0.48005600  0.47654600  1
  Y  Y15  1  0.49715200  0.74451200  0.27247500  1
  O  O16  1  0.27823000  0.03578800  0.99618100  1
  O  O17  1  0.24243700  0.51341000  0.98240800  1
  O  O18  1  0.99219900  0.73776900  0.97468800  1
  O  O19  1  0.50431900  0.03136100  0.76859800  1
  O  O20  1  0.26522200  0.24425900  0.76191100  1
  O  O21  1  0.97901300  0.99136900  0.75417900  1
  O  O22  1  0.52324700  0.52932500  0.75903000  1
  O  O23  1  0.25714300  0.73133800  0.76852400  1
  O  O24  1  0.77308200  0.28334100  0.74277600  1
  O  O25  1  0.24373100  0.48723700  0.48663900  1
  O  O26  1  0.01394300  0.76692100  0.50923600  1
  O  O27  1  0.49021500  0.23607300  0.47578000  1
  O  O28  1  0.51783200  0.75155200  0.52355700  1
  O  O29  1  0.24978000  0.00152300  0.49183200  1
  O  O30  1  0.23263800  0.23732300  0.23712800  1
  O  O31  1  0.99687700  0.26241500  0.51176600  1
  O  O32  1  0.77537800  0.52125900  0.53593600  1
  O  O33  1  0.25102800  0.75044200  0.26414100  1
  O  O34  1  0.72884500  0.25006800  0.22923500  1
  O  O35  1  0.49537800  0.47622700  0.23212600  1
  O  O36  1  0.00046500  0.99672700  0.25379800  1
  O  O37  1  0.74733800  0.00385100  0.49899000  1
  O  O38  1  0.73905200  0.75362800  0.24432700  1
  O  O39  1  0.49223700  0.96819800  0.22320100  1
  O  O40  1  0.00451900  0.50888900  0.26903000  1
  O  O41  1  0.98860000  0.25489000  0.00817900  1
  O  O42  1  0.73438900  0.48293100  0.01350100  1
  O  O43  1  0.72492800  0.94641500  0.97591200  1
