# generated using pymatgen
data_Zn(FeO2)2
_symmetry_space_group_name_H-M   'P 1'
_cell_length_a   6.00276959
_cell_length_b   6.01435900
_cell_length_c   8.58134228
_cell_angle_alpha   90.00000000
_cell_angle_beta   90.00000000
_cell_angle_gamma   90.00000000
_symmetry_Int_Tables_number   1
_chemical_formula_structural   Zn(FeO2)2
_chemical_formula_sum   'Zn4 Fe8 O16'
_cell_volume   309.81058097
_cell_formula_units_Z   4
loop_
 _symmetry_equiv_pos_site_id
 _symmetry_equiv_pos_as_xyz
  1  'x, y, z'
loop_
 _atom_site_type_symbol
 _atom_site_label
 _atom_site_symmetry_multiplicity
 _atom_site_fract_x
 _atom_site_fract_y
 _atom_site_fract_z
 _atom_site_occupancy
  Zn  Zn0  1  0.75000000  0.25000000  0.75000000  1
  Zn  Zn1  1  0.25000000  0.25000000  0.75000000  1
  Zn  Zn2  1  0.25000000  0.75000000  0.25000000  1
  Zn  Zn3  1  0.75000000  0.75000000  0.25000000  1
  Fe  Fe4  1  0.00000000  0.75000000  0.86943000  1
  Fe  Fe5  1  0.50000000  0.75000000  0.63057000  1
  Fe  Fe6  1  0.00000000  0.50000000  0.50000000  1
  Fe  Fe7  1  0.00000000  0.00000000  0.50000000  1
  Fe  Fe8  1  0.50000000  0.25000000  0.36943000  1
  Fe  Fe9  1  0.00000000  0.25000000  0.13057000  1
  Fe  Fe10  1  0.50000000  0.00000000  0.00000000  1
  Fe  Fe11  1  0.50000000  0.50000000  0.00000000  1
  O  O12  1  0.50000000  0.00580150  0.76342450  1
  O  O13  1  0.50000000  0.49419850  0.76342450  1
  O  O14  1  0.00000000  0.00580150  0.73657550  1
  O  O15  1  0.00000000  0.49419850  0.73657550  1
  O  O16  1  0.23490950  0.75000000  0.50177250  1
  O  O17  1  0.76509050  0.75000000  0.50177250  1
  O  O18  1  0.23490950  0.25000000  0.49822750  1
  O  O19  1  0.76509050  0.25000000  0.49822750  1
  O  O20  1  0.00000000  0.50580150  0.26342450  1
  O  O21  1  0.00000000  0.99419850  0.26342450  1
  O  O22  1  0.50000000  0.50580150  0.23657550  1
  O  O23  1  0.50000000  0.99419850  0.23657550  1
  O  O24  1  0.73490950  0.25000000  0.00177250  1
  O  O25  1  0.26509050  0.25000000  0.00177250  1
  O  O26  1  0.73490950  0.75000000  0.99822750  1
  O  O27  1  0.26509050  0.75000000  0.99822750  1
