# generated using pymatgen
data_HfCu2Te3
_symmetry_space_group_name_H-M   'P 1'
_cell_length_a   20.43604000
_cell_length_b   4.08008000
_cell_length_c   7.32530261
_cell_angle_alpha   90.00000000
_cell_angle_beta   98.46832253
_cell_angle_gamma   90.00000000
_symmetry_Int_Tables_number   1
_chemical_formula_structural   HfCu2Te3
_chemical_formula_sum   'Hf4 Cu8 Te12'
_cell_volume   604.12953345
_cell_formula_units_Z   4
loop_
 _symmetry_equiv_pos_site_id
 _symmetry_equiv_pos_as_xyz
  1  'x, y, z'
loop_
 _atom_site_type_symbol
 _atom_site_label
 _atom_site_symmetry_multiplicity
 _atom_site_fract_x
 _atom_site_fract_y
 _atom_site_fract_z
 _atom_site_occupancy
  Hf  Hf0  1  0.64595200  0.00000000  0.05452900  1
  Hf  Hf1  1  0.85404800  0.50000000  0.94547100  1
  Hf  Hf2  1  0.14595200  0.50000000  0.05452900  1
  Hf  Hf3  1  0.35404800  0.00000000  0.94547100  1
  Cu  Cu4  1  0.71341400  0.00000000  0.42582600  1
  Cu  Cu5  1  0.78658600  0.50000000  0.57417400  1
  Cu  Cu6  1  0.54877700  0.50000000  0.14936500  1
  Cu  Cu7  1  0.95122300  0.00000000  0.85063500  1
  Cu  Cu8  1  0.21341400  0.50000000  0.42582600  1
  Cu  Cu9  1  0.28658600  0.00000000  0.57417400  1
  Cu  Cu10  1  0.04877700  0.00000000  0.14936500  1
  Cu  Cu11  1  0.45122300  0.50000000  0.85063500  1
  Te  Te12  1  0.75057600  0.00000000  0.78553800  1
  Te  Te13  1  0.91861200  0.00000000  0.17990600  1
  Te  Te14  1  0.58362000  0.00000000  0.36481700  1
  Te  Te15  1  0.74942400  0.50000000  0.21446200  1
  Te  Te16  1  0.91638000  0.50000000  0.63518300  1
  Te  Te17  1  0.58138800  0.50000000  0.82009400  1
  Te  Te18  1  0.25057600  0.50000000  0.78553800  1
  Te  Te19  1  0.41861200  0.50000000  0.17990600  1
  Te  Te20  1  0.08362000  0.50000000  0.36481700  1
  Te  Te21  1  0.24942400  0.00000000  0.21446200  1
  Te  Te22  1  0.41638000  0.00000000  0.63518300  1
  Te  Te23  1  0.08138800  0.00000000  0.82009400  1
