# generated using pymatgen
data_W6CCl18
_symmetry_space_group_name_H-M   'P 1'
_cell_length_a   9.40841131
_cell_length_b   9.40841131
_cell_length_c   18.33670100
_cell_angle_alpha   90.00000000
_cell_angle_beta   90.00000000
_cell_angle_gamma   120.00000000
_symmetry_Int_Tables_number   1
_chemical_formula_structural   W6CCl18
_chemical_formula_sum   'W12 C2 Cl36'
_cell_volume   1405.67339592
_cell_formula_units_Z   2
loop_
 _symmetry_equiv_pos_site_id
 _symmetry_equiv_pos_as_xyz
  1  'x, y, z'
loop_
 _atom_site_type_symbol
 _atom_site_label
 _atom_site_symmetry_multiplicity
 _atom_site_fract_x
 _atom_site_fract_y
 _atom_site_fract_z
 _atom_site_occupancy
  W  W0  1  0.51066467  0.15327333  0.83027900  1
  W  W1  1  0.84672667  0.35739133  0.83027900  1
  W  W2  1  0.64260867  0.48933533  0.83027900  1
  W  W3  1  0.48933533  0.64260867  0.16972100  1
  W  W4  1  0.64260867  0.48933533  0.66972100  1
  W  W5  1  0.51066467  0.15327333  0.66972100  1
  W  W6  1  0.84672667  0.35739133  0.66972100  1
  W  W7  1  0.15327333  0.51066467  0.33027900  1
  W  W8  1  0.35739133  0.84672667  0.33027900  1
  W  W9  1  0.35739133  0.84672667  0.16972100  1
  W  W10  1  0.15327333  0.51066467  0.16972100  1
  W  W11  1  0.48933533  0.64260867  0.33027900  1
  C  C12  1  0.66666667  0.33333333  0.75000000  1
  C  C13  1  0.33333333  0.66666667  0.25000000  1
  Cl  Cl14  1  0.69600167  0.14203733  0.91682300  1
  Cl  Cl15  1  0.85796267  0.55396433  0.91682300  1
  Cl  Cl16  1  0.44603567  0.30399833  0.91682300  1
  Cl  Cl17  1  0.30399833  0.44603567  0.08317700  1
  Cl  Cl18  1  0.44603567  0.30399833  0.58317700  1
  Cl  Cl19  1  0.69600167  0.14203733  0.58317700  1
  Cl  Cl20  1  0.85796267  0.55396433  0.58317700  1
  Cl  Cl21  1  0.14203733  0.69600167  0.41682300  1
  Cl  Cl22  1  0.55396433  0.85796267  0.41682300  1
  Cl  Cl23  1  0.55396433  0.85796267  0.08317700  1
  Cl  Cl24  1  0.47366767  0.42852633  0.25000000  1
  Cl  Cl25  1  0.95485867  0.52633233  0.25000000  1
  Cl  Cl26  1  0.57147367  0.04514133  0.25000000  1
  Cl  Cl27  1  0.04514133  0.57147367  0.75000000  1
  Cl  Cl28  1  0.52633233  0.95485867  0.75000000  1
  Cl  Cl29  1  0.42852633  0.47366767  0.75000000  1
  Cl  Cl30  1  0.71445067  0.82578033  0.25000000  1
  Cl  Cl31  1  0.11132967  0.28554933  0.25000000  1
  Cl  Cl32  1  0.17421967  0.88867033  0.25000000  1
  Cl  Cl33  1  0.88867033  0.17421967  0.75000000  1
  Cl  Cl34  1  0.28554933  0.11132967  0.75000000  1
  Cl  Cl35  1  0.82578033  0.71445067  0.75000000  1
  Cl  Cl36  1  0.69680567  0.61151333  0.39206400  1
  Cl  Cl37  1  0.91470767  0.30319433  0.10793600  1
  Cl  Cl38  1  0.38848667  0.08529233  0.10793600  1
  Cl  Cl39  1  0.38848667  0.08529233  0.39206400  1
  Cl  Cl40  1  0.91470767  0.30319433  0.39206400  1
  Cl  Cl41  1  0.08529233  0.38848667  0.60793600  1
  Cl  Cl42  1  0.30319433  0.91470767  0.60793600  1
  Cl  Cl43  1  0.61151333  0.69680567  0.60793600  1
  Cl  Cl44  1  0.69680567  0.61151333  0.10793600  1
  Cl  Cl45  1  0.61151333  0.69680567  0.89206400  1
  Cl  Cl46  1  0.08529233  0.38848667  0.89206400  1
  Cl  Cl47  1  0.30319433  0.91470767  0.89206400  1
  Cl  Cl48  1  0.30399833  0.44603567  0.41682300  1
  Cl  Cl49  1  0.14203733  0.69600167  0.08317700  1
