# generated using pymatgen
data_MgB9N
_symmetry_space_group_name_H-M   'P 1'
_cell_length_a   5.49463561
_cell_length_b   5.49463561
_cell_length_c   20.04897225
_cell_angle_alpha   90.00000000
_cell_angle_beta   90.00000000
_cell_angle_gamma   120.00000000
_symmetry_Int_Tables_number   1
_chemical_formula_structural   MgB9N
_chemical_formula_sum   'Mg6 B54 N6'
_cell_volume   524.20425188
_cell_formula_units_Z   6
loop_
 _symmetry_equiv_pos_site_id
 _symmetry_equiv_pos_as_xyz
  1  'x, y, z'
loop_
 _atom_site_type_symbol
 _atom_site_label
 _atom_site_symmetry_multiplicity
 _atom_site_fract_x
 _atom_site_fract_y
 _atom_site_fract_z
 _atom_site_occupancy
  Mg  Mg0  1  0.66666667  0.33333333  0.02893933  1
  Mg  Mg1  1  0.00000000  0.00000000  0.30439400  1
  Mg  Mg2  1  0.33333333  0.66666667  0.36227267  1
  Mg  Mg3  1  0.66666667  0.33333333  0.63772733  1
  Mg  Mg4  1  0.00000000  0.00000000  0.69560600  1
  Mg  Mg5  1  0.33333333  0.66666667  0.97106067  1
  B  B6  1  0.87864800  0.43932400  0.29713500  1
  B  B7  1  0.56067600  0.43932400  0.29713500  1
  B  B8  1  0.56067600  0.12135200  0.29713500  1
  B  B9  1  0.78801867  0.89400933  0.03619833  1
  B  B10  1  0.15637167  0.31274333  0.18272933  1
  B  B11  1  0.15637167  0.84362833  0.18272933  1
  B  B12  1  0.68725667  0.84362833  0.18272933  1
  B  B13  1  0.51029500  0.02059000  0.15060400  1
  B  B14  1  0.51029500  0.48970500  0.15060400  1
  B  B15  1  0.97941000  0.48970500  0.15060400  1
  B  B16  1  0.22563200  0.45126400  0.09908600  1
  B  B17  1  0.22563200  0.77436800  0.09908600  1
  B  B18  1  0.54873600  0.77436800  0.09908600  1
  B  B19  1  0.44103467  0.88206933  0.23424733  1
  B  B20  1  0.44103467  0.55896533  0.23424733  1
  B  B21  1  0.11793067  0.55896533  0.23424733  1
  B  B22  1  0.10599067  0.21198133  0.03619833  1
  B  B23  1  0.10599067  0.89400933  0.03619833  1
  B  B24  1  0.54531467  0.77265733  0.63046833  1
  B  B25  1  0.22734267  0.77265733  0.63046833  1
  B  B26  1  0.22734267  0.45468533  0.63046833  1
  B  B27  1  0.45468533  0.22734267  0.36953167  1
  B  B28  1  0.82303833  0.64607667  0.51606267  1
  B  B29  1  0.82303833  0.17696167  0.51606267  1
  B  B30  1  0.35392333  0.17696167  0.51606267  1
  B  B31  1  0.17696167  0.35392333  0.48393733  1
  B  B32  1  0.17696167  0.82303833  0.48393733  1
  B  B33  1  0.64607667  0.82303833  0.48393733  1
  B  B34  1  0.89229867  0.78459733  0.43241933  1
  B  B35  1  0.89229867  0.10770133  0.43241933  1
  B  B36  1  0.21540267  0.10770133  0.43241933  1
  B  B37  1  0.10770133  0.21540267  0.56758067  1
  B  B38  1  0.10770133  0.89229867  0.56758067  1
  B  B39  1  0.78459733  0.89229867  0.56758067  1
  B  B40  1  0.77265733  0.54531467  0.36953167  1
  B  B41  1  0.77265733  0.22734267  0.36953167  1
  B  B42  1  0.21198133  0.10599067  0.96380167  1
  B  B43  1  0.89400933  0.10599067  0.96380167  1
  B  B44  1  0.89400933  0.78801867  0.96380167  1
  B  B45  1  0.12135200  0.56067600  0.70286500  1
  B  B46  1  0.48970500  0.97941000  0.84939600  1
  B  B47  1  0.48970500  0.51029500  0.84939600  1
  B  B48  1  0.02059000  0.51029500  0.84939600  1
  B  B49  1  0.84362833  0.68725667  0.81727067  1
  B  B50  1  0.84362833  0.15637167  0.81727067  1
  B  B51  1  0.31274333  0.15637167  0.81727067  1
  B  B52  1  0.55896533  0.11793067  0.76575267  1
  B  B53  1  0.55896533  0.44103467  0.76575267  1
  B  B54  1  0.88206933  0.44103467  0.76575267  1
  B  B55  1  0.77436800  0.54873600  0.90091400  1
  B  B56  1  0.77436800  0.22563200  0.90091400  1
  B  B57  1  0.45126400  0.22563200  0.90091400  1
  B  B58  1  0.43932400  0.87864800  0.70286500  1
  B  B59  1  0.43932400  0.56067600  0.70286500  1
  N  N60  1  0.66666667  0.33333333  0.13385633  1
  N  N61  1  0.00000000  0.00000000  0.19947700  1
  N  N62  1  0.33333333  0.66666667  0.46718967  1
  N  N63  1  0.66666667  0.33333333  0.53281033  1
  N  N64  1  0.00000000  0.00000000  0.80052300  1
  N  N65  1  0.33333333  0.66666667  0.86614367  1
