# generated using pymatgen
data_NiO2
_symmetry_space_group_name_H-M   'P 1'
_cell_length_a   2.80425780
_cell_length_b   2.80425780
_cell_length_c   20.92288427
_cell_angle_alpha   90.00000000
_cell_angle_beta   90.00000000
_cell_angle_gamma   120.00000000
_symmetry_Int_Tables_number   1
_chemical_formula_structural   NiO2
_chemical_formula_sum   'Ni3 O6'
_cell_volume   142.49120397
_cell_formula_units_Z   3
loop_
 _symmetry_equiv_pos_site_id
 _symmetry_equiv_pos_as_xyz
  1  'x, y, z'
loop_
 _atom_site_type_symbol
 _atom_site_label
 _atom_site_symmetry_multiplicity
 _atom_site_fract_x
 _atom_site_fract_y
 _atom_site_fract_z
 _atom_site_occupancy
  Ni  Ni0  1  0.00000000  0.00000000  0.00000000  1
  Ni  Ni1  1  0.66666667  0.33333333  0.33333333  1
  Ni  Ni2  1  0.33333333  0.66666667  0.66666667  1
  O  O3  1  0.33333333  0.66666667  0.28787767  1
  O  O4  1  0.33333333  0.66666667  0.04545567  1
  O  O5  1  0.00000000  0.00000000  0.62121100  1
  O  O6  1  0.00000000  0.00000000  0.37878900  1
  O  O7  1  0.66666667  0.33333333  0.95454433  1
  O  O8  1  0.66666667  0.33333333  0.71212233  1
