# generated using pymatgen
data_CaUO4
_symmetry_space_group_name_H-M   'P 1'
_cell_length_a   3.89684629
_cell_length_b   3.89684629
_cell_length_c   17.81320330
_cell_angle_alpha   90.00000000
_cell_angle_beta   90.00000000
_cell_angle_gamma   120.00000000
_symmetry_Int_Tables_number   1
_chemical_formula_structural   CaUO4
_chemical_formula_sum   'Ca3 U3 O12'
_cell_volume   234.26057626
_cell_formula_units_Z   3
loop_
 _symmetry_equiv_pos_site_id
 _symmetry_equiv_pos_as_xyz
  1  'x, y, z'
loop_
 _atom_site_type_symbol
 _atom_site_label
 _atom_site_symmetry_multiplicity
 _atom_site_fract_x
 _atom_site_fract_y
 _atom_site_fract_z
 _atom_site_occupancy
  Ca  Ca0  1  0.33333333  0.66666667  0.16666667  1
  Ca  Ca1  1  1.00000000  1.00000000  0.50000000  1
  Ca  Ca2  1  0.66666667  0.33333333  0.83333333  1
  U  U3  1  0.00000000  0.00000000  0.00000000  1
  U  U4  1  0.66666667  0.33333333  0.33333333  1
  U  U5  1  0.33333333  0.66666667  0.66666667  1
  O  O6  1  0.33333333  0.66666667  0.02919767  1
  O  O7  1  0.33333333  0.66666667  0.30413567  1
  O  O8  1  0.66666667  0.33333333  0.22185633  1
  O  O9  1  0.00000000  0.00000000  0.11147700  1
  O  O10  1  0.00000000  0.00000000  0.36253100  1
  O  O11  1  0.00000000  0.00000000  0.63746900  1
  O  O12  1  0.33333333  0.66666667  0.55518967  1
  O  O13  1  0.66666667  0.33333333  0.44481033  1
  O  O14  1  0.66666667  0.33333333  0.69586433  1
  O  O15  1  0.66666667  0.33333333  0.97080233  1
  O  O16  1  0.00000000  0.00000000  0.88852300  1
  O  O17  1  0.33333333  0.66666667  0.77814367  1
