# generated using pymatgen
data_AgSbS2
_symmetry_space_group_name_H-M   'P 1'
_cell_length_a   12.96559800
_cell_length_b   4.66159000
_cell_length_c   13.27130029
_cell_angle_alpha   90.00000000
_cell_angle_beta   98.91218783
_cell_angle_gamma   90.00000000
_symmetry_Int_Tables_number   1
_chemical_formula_structural   AgSbS2
_chemical_formula_sum   'Ag8 Sb8 S16'
_cell_volume   792.43733229
_cell_formula_units_Z   8
loop_
 _symmetry_equiv_pos_site_id
 _symmetry_equiv_pos_as_xyz
  1  'x, y, z'
loop_
 _atom_site_type_symbol
 _atom_site_label
 _atom_site_symmetry_multiplicity
 _atom_site_fract_x
 _atom_site_fract_y
 _atom_site_fract_z
 _atom_site_occupancy
  Ag  Ag0  1  0.00000000  0.50000000  0.00000000  1
  Ag  Ag1  1  0.00000000  0.00211300  0.25000000  1
  Ag  Ag2  1  0.00000000  0.50000000  0.50000000  1
  Ag  Ag3  1  0.00000000  0.99788700  0.75000000  1
  Ag  Ag4  1  0.50000000  0.00000000  0.00000000  1
  Ag  Ag5  1  0.50000000  0.50211300  0.25000000  1
  Ag  Ag6  1  0.50000000  0.00000000  0.50000000  1
  Ag  Ag7  1  0.50000000  0.49788700  0.75000000  1
  Sb  Sb8  1  0.74609250  0.97291050  0.37385400  1
  Sb  Sb9  1  0.75390750  0.47291050  0.12614600  1
  Sb  Sb10  1  0.75390750  0.52708950  0.62614600  1
  Sb  Sb11  1  0.74609250  0.02708950  0.87385400  1
  Sb  Sb12  1  0.24609250  0.47291050  0.37385400  1
  Sb  Sb13  1  0.25390750  0.97291050  0.12614600  1
  Sb  Sb14  1  0.25390750  0.02708950  0.62614600  1
  Sb  Sb15  1  0.24609250  0.52708950  0.87385400  1
  S  S16  1  0.89049650  0.80667650  0.08510800  1
  S  S17  1  0.60950350  0.30667650  0.41489200  1
  S  S18  1  0.60950350  0.69332350  0.91489200  1
  S  S19  1  0.89049650  0.19332350  0.58510800  1
  S  S20  1  0.85540600  0.65264300  0.80205400  1
  S  S21  1  0.85540600  0.34735700  0.30205400  1
  S  S22  1  0.64459400  0.84735700  0.19794600  1
  S  S23  1  0.64459400  0.15264300  0.69794600  1
  S  S24  1  0.39049650  0.30667650  0.08510800  1
  S  S25  1  0.10950350  0.80667650  0.41489200  1
  S  S26  1  0.10950350  0.19332350  0.91489200  1
  S  S27  1  0.39049650  0.69332350  0.58510800  1
  S  S28  1  0.35540600  0.15264300  0.80205400  1
  S  S29  1  0.35540600  0.84735700  0.30205400  1
  S  S30  1  0.14459400  0.34735700  0.19794600  1
  S  S31  1  0.14459400  0.65264300  0.69794600  1
