# generated using pymatgen
data_Zn2SnO4
_symmetry_space_group_name_H-M   'P 1'
_cell_length_a   6.09842600
_cell_length_b   6.32977000
_cell_length_c   8.79358000
_cell_angle_alpha   90.00000000
_cell_angle_beta   90.00000000
_cell_angle_gamma   90.00000000
_symmetry_Int_Tables_number   1
_chemical_formula_structural   Zn2SnO4
_chemical_formula_sum   'Zn8 Sn4 O16'
_cell_volume   339.44655620
_cell_formula_units_Z   4
loop_
 _symmetry_equiv_pos_site_id
 _symmetry_equiv_pos_as_xyz
  1  'x, y, z'
loop_
 _atom_site_type_symbol
 _atom_site_label
 _atom_site_symmetry_multiplicity
 _atom_site_fract_x
 _atom_site_fract_y
 _atom_site_fract_z
 _atom_site_occupancy
  Zn  Zn0  1  0.50000000  0.25000000  0.64157800  1
  Zn  Zn1  1  0.50000000  0.75000000  0.35842200  1
  Zn  Zn2  1  0.25000000  0.25000000  0.25000000  1
  Zn  Zn3  1  0.75000000  0.25000000  0.25000000  1
  Zn  Zn4  1  0.00000000  0.75000000  0.14157800  1
  Zn  Zn5  1  0.00000000  0.25000000  0.85842200  1
  Zn  Zn6  1  0.75000000  0.75000000  0.75000000  1
  Zn  Zn7  1  0.25000000  0.75000000  0.75000000  1
  Sn  Sn8  1  0.50000000  0.00000000  0.00000000  1
  Sn  Sn9  1  0.00000000  0.00000000  0.50000000  1
  Sn  Sn10  1  0.00000000  0.50000000  0.50000000  1
  Sn  Sn11  1  0.50000000  0.50000000  0.00000000  1
  O  O12  1  0.50000000  0.01743400  0.23488400  1
  O  O13  1  0.00000000  0.98256600  0.73488400  1
  O  O14  1  0.76695500  0.75000000  0.50059800  1
  O  O15  1  0.23304500  0.75000000  0.50059800  1
  O  O16  1  0.76695500  0.25000000  0.49940200  1
  O  O17  1  0.23304500  0.25000000  0.49940200  1
  O  O18  1  0.00000000  0.01743400  0.26511600  1
  O  O19  1  0.50000000  0.98256600  0.76511600  1
  O  O20  1  0.00000000  0.51743400  0.73488400  1
  O  O21  1  0.50000000  0.48256600  0.23488400  1
  O  O22  1  0.26695500  0.25000000  0.00059800  1
  O  O23  1  0.73304500  0.25000000  0.00059800  1
  O  O24  1  0.26695500  0.75000000  0.99940200  1
  O  O25  1  0.73304500  0.75000000  0.99940200  1
  O  O26  1  0.50000000  0.51743400  0.76511600  1
  O  O27  1  0.00000000  0.48256600  0.26511600  1
