# generated using pymatgen
data_MgAl2O4
_symmetry_space_group_name_H-M   'P 1'
_cell_length_a   5.70980800
_cell_length_b   5.78445400
_cell_length_c   8.10907800
_cell_angle_alpha   90.00000000
_cell_angle_beta   90.00000000
_cell_angle_gamma   90.00000000
_symmetry_Int_Tables_number   1
_chemical_formula_structural   MgAl2O4
_chemical_formula_sum   'Mg4 Al8 O16'
_cell_volume   267.82761526
_cell_formula_units_Z   4
loop_
 _symmetry_equiv_pos_site_id
 _symmetry_equiv_pos_as_xyz
  1  'x, y, z'
loop_
 _atom_site_type_symbol
 _atom_site_label
 _atom_site_symmetry_multiplicity
 _atom_site_fract_x
 _atom_site_fract_y
 _atom_site_fract_z
 _atom_site_occupancy
  Mg  Mg0  1  0.25000000  0.25000000  0.25000000  1
  Mg  Mg1  1  0.75000000  0.25000000  0.25000000  1
  Mg  Mg2  1  0.75000000  0.75000000  0.75000000  1
  Mg  Mg3  1  0.25000000  0.75000000  0.75000000  1
  Al  Al4  1  0.50000000  0.75000000  0.36459800  1
  Al  Al5  1  0.50000000  0.00000000  0.00000000  1
  Al  Al6  1  0.00000000  0.00000000  0.50000000  1
  Al  Al7  1  0.50000000  0.25000000  0.63540200  1
  Al  Al8  1  0.00000000  0.25000000  0.86459800  1
  Al  Al9  1  0.00000000  0.50000000  0.50000000  1
  Al  Al10  1  0.50000000  0.50000000  0.00000000  1
  Al  Al11  1  0.00000000  0.75000000  0.13540200  1
  O  O12  1  0.50000000  0.00103600  0.23459800  1
  O  O13  1  0.00000000  0.99896400  0.73459800  1
  O  O14  1  0.76454900  0.75000000  0.49600300  1
  O  O15  1  0.23545100  0.75000000  0.49600300  1
  O  O16  1  0.76454900  0.25000000  0.50399700  1
  O  O17  1  0.00000000  0.00103600  0.26540200  1
  O  O18  1  0.23545100  0.25000000  0.50399700  1
  O  O19  1  0.50000000  0.99896400  0.76540200  1
  O  O20  1  0.00000000  0.50103600  0.73459800  1
  O  O21  1  0.50000000  0.49896400  0.23459800  1
  O  O22  1  0.26454900  0.25000000  0.99600300  1
  O  O23  1  0.73545100  0.25000000  0.99600300  1
  O  O24  1  0.26454900  0.75000000  0.00399700  1
  O  O25  1  0.50000000  0.50103600  0.76540200  1
  O  O26  1  0.73545100  0.75000000  0.00399700  1
  O  O27  1  0.00000000  0.49896400  0.26540200  1
