# generated using pymatgen
data_Ba2V3O9
_symmetry_space_group_name_H-M   'P 1'
_cell_length_a   8.51145900
_cell_length_b   5.96825600
_cell_length_c   9.47349095
_cell_angle_alpha   90.00000000
_cell_angle_beta   114.27705800
_cell_angle_gamma   90.00000000
_symmetry_Int_Tables_number   1
_chemical_formula_structural   Ba2V3O9
_chemical_formula_sum   'Ba4 V6 O18'
_cell_volume   438.68275328
_cell_formula_units_Z   2
loop_
 _symmetry_equiv_pos_site_id
 _symmetry_equiv_pos_as_xyz
  1  'x, y, z'
loop_
 _atom_site_type_symbol
 _atom_site_label
 _atom_site_symmetry_multiplicity
 _atom_site_fract_x
 _atom_site_fract_y
 _atom_site_fract_z
 _atom_site_occupancy
  Ba  Ba0  1  0.20109000  0.74962700  0.09038200  1
  Ba  Ba1  1  0.79891000  0.24962700  0.90961800  1
  Ba  Ba2  1  0.79138500  0.75202600  0.26396600  1
  Ba  Ba3  1  0.20861500  0.25202600  0.73603400  1
  V  V4  1  0.48686900  0.98052200  0.49355900  1
  V  V5  1  0.51313100  0.48052200  0.50644100  1
  V  V6  1  0.51704700  0.74986200  0.82041800  1
  V  V7  1  0.91766800  0.75005100  0.68934900  1
  V  V8  1  0.48295300  0.24986200  0.17958200  1
  V  V9  1  0.08233200  0.25005100  0.31065100  1
  O  O10  1  0.32013900  0.24628000  0.42532600  1
  O  O11  1  0.98823600  0.98155500  0.80745900  1
  O  O12  1  0.01176400  0.48155500  0.19254100  1
  O  O13  1  0.01066500  0.02126100  0.18966300  1
  O  O14  1  0.65126300  0.25169800  0.57162700  1
  O  O15  1  0.98933500  0.52126100  0.81033700  1
  O  O16  1  0.67986100  0.74628000  0.57467400  1
  O  O17  1  0.47768900  0.50316100  0.70369700  1
  O  O18  1  0.38623200  0.75026100  0.91635000  1
  O  O19  1  0.98369000  0.24731200  0.43350200  1
  O  O20  1  0.34873700  0.75169800  0.42837300  1
  O  O21  1  0.01631000  0.74731200  0.56649800  1
  O  O22  1  0.52090700  0.49625700  0.29625800  1
  O  O23  1  0.72750600  0.74926900  0.95133400  1
  O  O24  1  0.47909300  0.99625700  0.70374200  1
  O  O25  1  0.61376800  0.25026100  0.08365000  1
  O  O26  1  0.27249400  0.24926900  0.04866600  1
  O  O27  1  0.52231100  0.00316100  0.29630300  1
