# generated using pymatgen
data_Sm5AgS8
_symmetry_space_group_name_H-M   'P 1'
_cell_length_a   8.47126600
_cell_length_b   8.47126600
_cell_length_c   8.53722400
_cell_angle_alpha   90.00000000
_cell_angle_beta   90.00000000
_cell_angle_gamma   90.00000000
_symmetry_Int_Tables_number   1
_chemical_formula_structural   Sm5AgS8
_chemical_formula_sum   'Sm10 Ag2 S16'
_cell_volume   612.65123659
_cell_formula_units_Z   2
loop_
 _symmetry_equiv_pos_site_id
 _symmetry_equiv_pos_as_xyz
  1  'x, y, z'
loop_
 _atom_site_type_symbol
 _atom_site_label
 _atom_site_symmetry_multiplicity
 _atom_site_fract_x
 _atom_site_fract_y
 _atom_site_fract_z
 _atom_site_occupancy
  Sm  Sm0  1  0.36606150  0.25195750  0.38099950  1
  Sm  Sm1  1  0.74804250  0.36606150  0.61900050  1
  Sm  Sm2  1  0.13393850  0.24804250  0.88099950  1
  Sm  Sm3  1  0.00000000  0.00000000  0.50000000  1
  Sm  Sm4  1  0.75195750  0.13393850  0.11900050  1
  Sm  Sm5  1  0.86606150  0.75195750  0.88099950  1
  Sm  Sm6  1  0.24804250  0.86606150  0.11900050  1
  Sm  Sm7  1  0.63393850  0.74804250  0.38099950  1
  Sm  Sm8  1  0.50000000  0.50000000  0.00000000  1
  Sm  Sm9  1  0.25195750  0.63393850  0.61900050  1
  Ag  Ag10  1  0.00000000  0.50000000  0.25000000  1
  Ag  Ag11  1  0.50000000  0.00000000  0.75000000  1
  S  S12  1  0.06980450  0.17895350  0.20116250  1
  S  S13  1  0.31572150  0.92468950  0.43376950  1
  S  S14  1  0.32104650  0.56980450  0.29883750  1
  S  S15  1  0.18427850  0.57531050  0.93376950  1
  S  S16  1  0.42468950  0.18427850  0.06623050  1
  S  S17  1  0.07531050  0.31572150  0.56623050  1
  S  S18  1  0.17895350  0.93019550  0.79883750  1
  S  S19  1  0.43019550  0.32104650  0.70116250  1
  S  S20  1  0.56980450  0.67895350  0.70116250  1
  S  S21  1  0.81572150  0.42468950  0.93376950  1
  S  S22  1  0.82104650  0.06980450  0.79883750  1
  S  S23  1  0.68427850  0.07531050  0.43376950  1
  S  S24  1  0.92468950  0.68427850  0.56623050  1
  S  S25  1  0.57531050  0.81572150  0.06623050  1
  S  S26  1  0.67895350  0.43019550  0.29883750  1
  S  S27  1  0.93019550  0.82104650  0.20116250  1
