# generated using pymatgen
data_La2Se3
_symmetry_space_group_name_H-M   'P 1'
_cell_length_a   9.10708200
_cell_length_b   9.10708200
_cell_length_c   27.22746400
_cell_angle_alpha   90.00000000
_cell_angle_beta   90.00000000
_cell_angle_gamma   90.00000000
_symmetry_Int_Tables_number   1
_chemical_formula_structural   La2Se3
_chemical_formula_sum   'La32 Se48'
_cell_volume   2258.21707261
_cell_formula_units_Z   16
loop_
 _symmetry_equiv_pos_site_id
 _symmetry_equiv_pos_as_xyz
  1  'x, y, z'
loop_
 _atom_site_type_symbol
 _atom_site_label
 _atom_site_symmetry_multiplicity
 _atom_site_fract_x
 _atom_site_fract_y
 _atom_site_fract_z
 _atom_site_occupancy
  La  La0  1  0.86349600  0.74269650  0.46060475  1
  La  La1  1  0.50000000  0.00000000  0.41637275  1
  La  La2  1  0.25000000  0.62005450  0.37500000  1
  La  La3  1  0.00000000  0.00000000  0.33362725  1
  La  La4  1  0.63650400  0.74269650  0.28939525  1
  La  La5  1  0.75000000  0.37994550  0.37500000  1
  La  La6  1  0.36349600  0.25730350  0.28939525  1
  La  La7  1  0.75730350  0.13650400  0.21060475  1
  La  La8  1  0.12005450  0.25000000  0.12500000  1
  La  La9  1  0.50000000  0.50000000  0.16637275  1
  La  La10  1  0.87994550  0.75000000  0.12500000  1
  La  La11  1  0.24269650  0.86349600  0.21060475  1
  La  La12  1  0.50000000  0.00000000  0.08362725  1
  La  La13  1  0.24269650  0.63650400  0.03939525  1
  La  La14  1  0.13650400  0.25730350  0.46060475  1
  La  La15  1  0.75730350  0.36349600  0.03939525  1
  La  La16  1  0.36349600  0.24269650  0.96060475  1
  La  La17  1  0.00000000  0.50000000  0.91637275  1
  La  La18  1  0.75000000  0.12005450  0.87500000  1
  La  La19  1  0.50000000  0.50000000  0.83362725  1
  La  La20  1  0.13650400  0.24269650  0.78939525  1
  La  La21  1  0.25000000  0.87994550  0.87500000  1
  La  La22  1  0.86349600  0.75730350  0.78939525  1
  La  La23  1  0.25730350  0.63650400  0.71060475  1
  La  La24  1  0.62005450  0.75000000  0.62500000  1
  La  La25  1  0.00000000  0.00000000  0.66637275  1
  La  La26  1  0.37994550  0.25000000  0.62500000  1
  La  La27  1  0.74269650  0.36349600  0.71060475  1
  La  La28  1  0.00000000  0.50000000  0.58362725  1
  La  La29  1  0.74269650  0.13650400  0.53939525  1
  La  La30  1  0.63650400  0.75730350  0.96060475  1
  La  La31  1  0.25730350  0.86349600  0.53939525  1
  Se  Se32  1  0.42646000  0.31962850  0.39595075  1
  Se  Se33  1  0.17439100  0.92750450  0.43288975  1
  Se  Se34  1  0.82560900  0.07249550  0.43288975  1
  Se  Se35  1  0.32560900  0.92750450  0.31711025  1
  Se  Se36  1  0.67439100  0.07249550  0.31711025  1
  Se  Se37  1  0.57354000  0.68037150  0.39595075  1
  Se  Se38  1  0.07354000  0.31962850  0.35404925  1
  Se  Se39  1  0.92646000  0.68037150  0.35404925  1
  Se  Se40  1  0.91950100  0.83019950  0.23380475  1
  Se  Se41  1  0.66980050  0.41950100  0.26619525  1
  Se  Se42  1  0.81962850  0.42646000  0.14595075  1
  Se  Se43  1  0.33019950  0.58049900  0.26619525  1
  Se  Se44  1  0.18037150  0.57354000  0.14595075  1
  Se  Se45  1  0.57249550  0.82560900  0.18288975  1
  Se  Se46  1  0.08049900  0.16980050  0.23380475  1
  Se  Se47  1  0.42750450  0.17439100  0.18288975  1
  Se  Se48  1  0.42750450  0.32560900  0.06711025  1
  Se  Se49  1  0.18037150  0.92646000  0.10404925  1
  Se  Se50  1  0.83019950  0.41950100  0.48380475  1
  Se  Se51  1  0.81962850  0.07354000  0.10404925  1
  Se  Se52  1  0.16980050  0.58049900  0.48380475  1
  Se  Se53  1  0.57249550  0.67439100  0.06711025  1
  Se  Se54  1  0.08049900  0.33019950  0.01619525  1
  Se  Se55  1  0.91950100  0.66980050  0.01619525  1
  Se  Se56  1  0.92646000  0.81962850  0.89595075  1
  Se  Se57  1  0.67439100  0.42750450  0.93288975  1
  Se  Se58  1  0.32560900  0.57249550  0.93288975  1
  Se  Se59  1  0.82560900  0.42750450  0.81711025  1
  Se  Se60  1  0.17439100  0.57249550  0.81711025  1
  Se  Se61  1  0.07354000  0.18037150  0.89595075  1
  Se  Se62  1  0.57354000  0.81962850  0.85404925  1
  Se  Se63  1  0.42646000  0.18037150  0.85404925  1
  Se  Se64  1  0.41950100  0.33019950  0.73380475  1
  Se  Se65  1  0.16980050  0.91950100  0.76619525  1
  Se  Se66  1  0.31962850  0.92646000  0.64595075  1
  Se  Se67  1  0.83019950  0.08049900  0.76619525  1
  Se  Se68  1  0.68037150  0.07354000  0.64595075  1
  Se  Se69  1  0.07249550  0.32560900  0.68288975  1
  Se  Se70  1  0.58049900  0.66980050  0.73380475  1
  Se  Se71  1  0.92750450  0.67439100  0.68288975  1
  Se  Se72  1  0.92750450  0.82560900  0.56711025  1
  Se  Se73  1  0.68037150  0.42646000  0.60404925  1
  Se  Se74  1  0.33019950  0.91950100  0.98380475  1
  Se  Se75  1  0.31962850  0.57354000  0.60404925  1
  Se  Se76  1  0.66980050  0.08049900  0.98380475  1
  Se  Se77  1  0.07249550  0.17439100  0.56711025  1
  Se  Se78  1  0.58049900  0.83019950  0.51619525  1
  Se  Se79  1  0.41950100  0.16980050  0.51619525  1
