# generated using pymatgen
data_Sm2Se3
_symmetry_space_group_name_H-M   'P 1'
_cell_length_a   8.84747200
_cell_length_b   8.84747200
_cell_length_c   26.53602600
_cell_angle_alpha   90.00000000
_cell_angle_beta   90.00000000
_cell_angle_gamma   90.00000000
_symmetry_Int_Tables_number   1
_chemical_formula_structural   Sm2Se3
_chemical_formula_sum   'Sm32 Se48'
_cell_volume   2077.18069557
_cell_formula_units_Z   16
loop_
 _symmetry_equiv_pos_site_id
 _symmetry_equiv_pos_as_xyz
  1  'x, y, z'
loop_
 _atom_site_type_symbol
 _atom_site_label
 _atom_site_symmetry_multiplicity
 _atom_site_fract_x
 _atom_site_fract_y
 _atom_site_fract_z
 _atom_site_occupancy
  Sm  Sm0  1  0.74209300  0.63333200  0.21022900  1
  Sm  Sm1  1  0.25790700  0.36666800  0.21022900  1
  Sm  Sm2  1  0.00000000  0.00000000  0.16687100  1
  Sm  Sm3  1  0.38100200  0.75000000  0.12500000  1
  Sm  Sm4  1  0.25790700  0.13333200  0.03977100  1
  Sm  Sm5  1  0.00000000  0.50000000  0.08312900  1
  Sm  Sm6  1  0.74209300  0.86666800  0.03977100  1
  Sm  Sm7  1  0.61899800  0.25000000  0.12500000  1
  Sm  Sm8  1  0.36666800  0.75790700  0.46022900  1
  Sm  Sm9  1  0.00000000  0.50000000  0.41687100  1
  Sm  Sm10  1  0.25000000  0.11899800  0.37500000  1
  Sm  Sm11  1  0.75000000  0.88100200  0.37500000  1
  Sm  Sm12  1  0.63333200  0.24209300  0.46022900  1
  Sm  Sm13  1  0.50000000  0.50000000  0.33312900  1
  Sm  Sm14  1  0.86666800  0.24209300  0.28977100  1
  Sm  Sm15  1  0.13333200  0.75790700  0.28977100  1
  Sm  Sm16  1  0.24209300  0.13333200  0.71022900  1
  Sm  Sm17  1  0.75790700  0.86666800  0.71022900  1
  Sm  Sm18  1  0.50000000  0.50000000  0.66687100  1
  Sm  Sm19  1  0.88100200  0.25000000  0.62500000  1
  Sm  Sm20  1  0.75790700  0.63333200  0.53977100  1
  Sm  Sm21  1  0.50000000  0.00000000  0.58312900  1
  Sm  Sm22  1  0.24209300  0.36666800  0.53977100  1
  Sm  Sm23  1  0.11899800  0.75000000  0.62500000  1
  Sm  Sm24  1  0.86666800  0.25790700  0.96022900  1
  Sm  Sm25  1  0.50000000  0.00000000  0.91687100  1
  Sm  Sm26  1  0.75000000  0.61899800  0.87500000  1
  Sm  Sm27  1  0.25000000  0.38100200  0.87500000  1
  Sm  Sm28  1  0.13333200  0.74209300  0.96022900  1
  Sm  Sm29  1  0.00000000  0.00000000  0.83312900  1
  Sm  Sm30  1  0.36666800  0.74209300  0.78977100  1
  Sm  Sm31  1  0.63333200  0.25790700  0.78977100  1
  Se  Se32  1  0.92903500  0.32435500  0.18330900  1
  Se  Se33  1  0.68043250  0.92731050  0.14602650  1
  Se  Se34  1  0.07096500  0.67564500  0.18330900  1
  Se  Se35  1  0.07096500  0.82435500  0.06669100  1
  Se  Se36  1  0.92903500  0.17564500  0.06669100  1
  Se  Se37  1  0.68043250  0.57268950  0.10397350  1
  Se  Se38  1  0.31956750  0.07268950  0.14602650  1
  Se  Se39  1  0.42000550  0.82632150  0.01627850  1
  Se  Se40  1  0.31956750  0.42731050  0.10397350  1
  Se  Se41  1  0.67367850  0.92000550  0.48372150  1
  Se  Se42  1  0.57999450  0.17367850  0.01627850  1
  Se  Se43  1  0.07268950  0.81956750  0.39602650  1
  Se  Se44  1  0.92731050  0.18043250  0.39602650  1
  Se  Se45  1  0.67564500  0.57096500  0.43330900  1
  Se  Se46  1  0.32632150  0.07999450  0.48372150  1
  Se  Se47  1  0.42731050  0.81956750  0.35397350  1
  Se  Se48  1  0.32435500  0.42903500  0.43330900  1
  Se  Se49  1  0.17564500  0.42903500  0.31669100  1
  Se  Se50  1  0.57268950  0.18043250  0.35397350  1
  Se  Se51  1  0.57999450  0.32632150  0.23372150  1
  Se  Se52  1  0.42000550  0.67367850  0.23372150  1
  Se  Se53  1  0.17367850  0.07999450  0.26627850  1
  Se  Se54  1  0.82435500  0.57096500  0.31669100  1
  Se  Se55  1  0.82632150  0.92000550  0.26627850  1
  Se  Se56  1  0.42903500  0.82435500  0.68330900  1
  Se  Se57  1  0.18043250  0.42731050  0.64602650  1
  Se  Se58  1  0.57096500  0.17564500  0.68330900  1
  Se  Se59  1  0.57096500  0.32435500  0.56669100  1
  Se  Se60  1  0.42903500  0.67564500  0.56669100  1
  Se  Se61  1  0.18043250  0.07268950  0.60397350  1
  Se  Se62  1  0.81956750  0.57268950  0.64602650  1
  Se  Se63  1  0.92000550  0.32632150  0.51627850  1
  Se  Se64  1  0.81956750  0.92731050  0.60397350  1
  Se  Se65  1  0.17367850  0.42000550  0.98372150  1
  Se  Se66  1  0.07999450  0.67367850  0.51627850  1
  Se  Se67  1  0.57268950  0.31956750  0.89602650  1
  Se  Se68  1  0.42731050  0.68043250  0.89602650  1
  Se  Se69  1  0.17564500  0.07096500  0.93330900  1
  Se  Se70  1  0.82632150  0.57999450  0.98372150  1
  Se  Se71  1  0.92731050  0.31956750  0.85397350  1
  Se  Se72  1  0.82435500  0.92903500  0.93330900  1
  Se  Se73  1  0.67564500  0.92903500  0.81669100  1
  Se  Se74  1  0.07268950  0.68043250  0.85397350  1
  Se  Se75  1  0.07999450  0.82632150  0.73372150  1
  Se  Se76  1  0.92000550  0.17367850  0.73372150  1
  Se  Se77  1  0.67367850  0.57999450  0.76627850  1
  Se  Se78  1  0.32435500  0.07096500  0.81669100  1
  Se  Se79  1  0.32632150  0.42000550  0.76627850  1
