# generated using pymatgen
data_Nd2EuS4
_symmetry_space_group_name_H-M   'P 1'
_cell_length_a   8.65495800
_cell_length_b   8.65495800
_cell_length_c   8.60390400
_cell_angle_alpha   90.00000000
_cell_angle_beta   90.00000000
_cell_angle_gamma   90.00000000
_symmetry_Int_Tables_number   1
_chemical_formula_structural   Nd2EuS4
_chemical_formula_sum   'Nd8 Eu4 S16'
_cell_volume   644.50380464
_cell_formula_units_Z   4
loop_
 _symmetry_equiv_pos_site_id
 _symmetry_equiv_pos_as_xyz
  1  'x, y, z'
loop_
 _atom_site_type_symbol
 _atom_site_label
 _atom_site_symmetry_multiplicity
 _atom_site_fract_x
 _atom_site_fract_y
 _atom_site_fract_z
 _atom_site_occupancy
  Nd  Nd0  1  0.87283500  0.75000000  0.87500000  1
  Nd  Nd1  1  0.75000000  0.37283500  0.62500000  1
  Nd  Nd2  1  0.62716500  0.75000000  0.37500000  1
  Nd  Nd3  1  0.75000000  0.12716500  0.12500000  1
  Nd  Nd4  1  0.37283500  0.25000000  0.37500000  1
  Nd  Nd5  1  0.25000000  0.87283500  0.12500000  1
  Nd  Nd6  1  0.12716500  0.25000000  0.87500000  1
  Nd  Nd7  1  0.25000000  0.62716500  0.62500000  1
  Eu  Eu8  1  0.00000000  0.00000000  0.50000000  1
  Eu  Eu9  1  0.50000000  0.00000000  0.75000000  1
  Eu  Eu10  1  0.50000000  0.50000000  0.00000000  1
  Eu  Eu11  1  0.00000000  0.50000000  0.25000000  1
  S  S12  1  0.07506050  0.17485050  0.19483650  1
  S  S13  1  0.42493950  0.17485050  0.05516350  1
  S  S14  1  0.82514950  0.07506050  0.80516350  1
  S  S15  1  0.67485050  0.42493950  0.30516350  1
  S  S16  1  0.67485050  0.07506050  0.44483650  1
  S  S17  1  0.07506050  0.32514950  0.55516350  1
  S  S18  1  0.42493950  0.32514950  0.69483650  1
  S  S19  1  0.82514950  0.42493950  0.94483650  1
  S  S20  1  0.57506050  0.67485050  0.69483650  1
  S  S21  1  0.92493950  0.67485050  0.55516350  1
  S  S22  1  0.32514950  0.57506050  0.30516350  1
  S  S23  1  0.17485050  0.92493950  0.80516350  1
  S  S24  1  0.17485050  0.57506050  0.94483650  1
  S  S25  1  0.57506050  0.82514950  0.05516350  1
  S  S26  1  0.92493950  0.82514950  0.19483650  1
  S  S27  1  0.32514950  0.92493950  0.44483650  1
