# generated using pymatgen
data_Li4TaN3
_symmetry_space_group_name_H-M   'P 1'
_cell_length_a   4.93480200
_cell_length_b   9.76477600
_cell_length_c   14.21574800
_cell_angle_alpha   90.00000000
_cell_angle_beta   90.00000000
_cell_angle_gamma   90.00000000
_symmetry_Int_Tables_number   1
_chemical_formula_structural   Li4TaN3
_chemical_formula_sum   'Li32 Ta8 N24'
_cell_volume   685.01760570
_cell_formula_units_Z   8
loop_
 _symmetry_equiv_pos_site_id
 _symmetry_equiv_pos_as_xyz
  1  'x, y, z'
loop_
 _atom_site_type_symbol
 _atom_site_label
 _atom_site_symmetry_multiplicity
 _atom_site_fract_x
 _atom_site_fract_y
 _atom_site_fract_z
 _atom_site_occupancy
  Li  Li0  1  0.52370650  0.96426150  0.91478350  1
  Li  Li1  1  0.52370650  0.03573850  0.58521650  1
  Li  Li2  1  0.97629350  0.96426150  0.08521650  1
  Li  Li3  1  0.97629350  0.03573850  0.41478350  1
  Li  Li4  1  0.47629350  0.03573850  0.08521650  1
  Li  Li5  1  0.47629350  0.96426150  0.41478350  1
  Li  Li6  1  0.02370650  0.03573850  0.91478350  1
  Li  Li7  1  0.02370650  0.96426150  0.58521650  1
  Li  Li8  1  0.00000000  0.75000000  0.72570000  1
  Li  Li9  1  0.50000000  0.75000000  0.27430000  1
  Li  Li10  1  0.00000000  0.25000000  0.27430000  1
  Li  Li11  1  0.50000000  0.25000000  0.72570000  1
  Li  Li12  1  0.90467800  0.00000000  0.25000000  1
  Li  Li13  1  0.59532200  0.00000000  0.75000000  1
  Li  Li14  1  0.09532200  0.00000000  0.75000000  1
  Li  Li15  1  0.40467800  0.00000000  0.25000000  1
  Li  Li16  1  0.02370650  0.46426150  0.41478350  1
  Li  Li17  1  0.02370650  0.53573850  0.08521650  1
  Li  Li18  1  0.47629350  0.46426150  0.58521650  1
  Li  Li19  1  0.47629350  0.53573850  0.91478350  1
  Li  Li20  1  0.97629350  0.53573850  0.58521650  1
  Li  Li21  1  0.97629350  0.46426150  0.91478350  1
  Li  Li22  1  0.52370650  0.53573850  0.41478350  1
  Li  Li23  1  0.52370650  0.46426150  0.08521650  1
  Li  Li24  1  0.50000000  0.25000000  0.22570000  1
  Li  Li25  1  0.00000000  0.25000000  0.77430000  1
  Li  Li26  1  0.50000000  0.75000000  0.77430000  1
  Li  Li27  1  0.00000000  0.75000000  0.22570000  1
  Li  Li28  1  0.40467800  0.50000000  0.75000000  1
  Li  Li29  1  0.09532200  0.50000000  0.25000000  1
  Li  Li30  1  0.59532200  0.50000000  0.25000000  1
  Li  Li31  1  0.90467800  0.50000000  0.75000000  1
  Ta  Ta32  1  0.50000000  0.25000000  0.41933300  1
  Ta  Ta33  1  0.00000000  0.25000000  0.58066700  1
  Ta  Ta34  1  0.50000000  0.75000000  0.58066700  1
  Ta  Ta35  1  0.00000000  0.75000000  0.41933300  1
  Ta  Ta36  1  0.00000000  0.75000000  0.91933300  1
  Ta  Ta37  1  0.50000000  0.75000000  0.08066700  1
  Ta  Ta38  1  0.00000000  0.25000000  0.08066700  1
  Ta  Ta39  1  0.50000000  0.25000000  0.91933300  1
  N  N40  1  0.75000000  0.36546300  0.50000000  1
  N  N41  1  0.25000000  0.13453700  0.50000000  1
  N  N42  1  0.25000000  0.63453700  0.50000000  1
  N  N43  1  0.75000000  0.86546300  0.50000000  1
  N  N44  1  0.68098600  0.12461100  0.33646400  1
  N  N45  1  0.68098600  0.87538900  0.16353600  1
  N  N46  1  0.81901400  0.12461100  0.66353600  1
  N  N47  1  0.81901400  0.87538900  0.83646400  1
  N  N48  1  0.31901400  0.87538900  0.66353600  1
  N  N49  1  0.31901400  0.12461100  0.83646400  1
  N  N50  1  0.18098600  0.87538900  0.33646400  1
  N  N51  1  0.18098600  0.12461100  0.16353600  1
  N  N52  1  0.25000000  0.86546300  0.00000000  1
  N  N53  1  0.75000000  0.63453700  0.00000000  1
  N  N54  1  0.75000000  0.13453700  0.00000000  1
  N  N55  1  0.25000000  0.36546300  0.00000000  1
  N  N56  1  0.18098600  0.62461100  0.83646400  1
  N  N57  1  0.18098600  0.37538900  0.66353600  1
  N  N58  1  0.31901400  0.62461100  0.16353600  1
  N  N59  1  0.31901400  0.37538900  0.33646400  1
  N  N60  1  0.81901400  0.37538900  0.16353600  1
  N  N61  1  0.81901400  0.62461100  0.33646400  1
  N  N62  1  0.68098600  0.37538900  0.83646400  1
  N  N63  1  0.68098600  0.62461100  0.66353600  1
