# generated using pymatgen
data_K4Ge9O20
_symmetry_space_group_name_H-M   'P 1'
_cell_length_a   15.98110800
_cell_length_b   15.98110800
_cell_length_c   7.63990400
_cell_angle_alpha   90.00000000
_cell_angle_beta   90.00000000
_cell_angle_gamma   90.00000000
_symmetry_Int_Tables_number   1
_chemical_formula_structural   K4Ge9O20
_chemical_formula_sum   'K16 Ge36 O80'
_cell_volume   1951.19949262
_cell_formula_units_Z   4
loop_
 _symmetry_equiv_pos_site_id
 _symmetry_equiv_pos_as_xyz
  1  'x, y, z'
loop_
 _atom_site_type_symbol
 _atom_site_label
 _atom_site_symmetry_multiplicity
 _atom_site_fract_x
 _atom_site_fract_y
 _atom_site_fract_z
 _atom_site_occupancy
  K  K0  1  0.30701800  0.08623700  0.28265600  1
  K  K1  1  0.58623700  0.69298200  0.53265600  1
  K  K2  1  0.41376300  0.30701800  0.53265600  1
  K  K3  1  0.69298200  0.91376300  0.28265600  1
  K  K4  1  0.19298200  0.91376300  0.96734400  1
  K  K5  1  0.41376300  0.80701800  0.21734400  1
  K  K6  1  0.58623700  0.19298200  0.21734400  1
  K  K7  1  0.80701800  0.08623700  0.96734400  1
  K  K8  1  0.80701800  0.58623700  0.78265600  1
  K  K9  1  0.08623700  0.19298200  0.03265600  1
  K  K10  1  0.91376300  0.80701800  0.03265600  1
  K  K11  1  0.19298200  0.41376300  0.78265600  1
  K  K12  1  0.69298200  0.41376300  0.46734400  1
  K  K13  1  0.91376300  0.30701800  0.71734400  1
  K  K14  1  0.08623700  0.69298200  0.71734400  1
  K  K15  1  0.30701800  0.58623700  0.46734400  1
  Ge  Ge16  1  0.64115200  0.19288400  0.69187000  1
  Ge  Ge17  1  0.35884800  0.30711600  0.05813000  1
  Ge  Ge18  1  0.64115200  0.69288400  0.05813000  1
  Ge  Ge19  1  0.30711600  0.14115200  0.80813000  1
  Ge  Ge20  1  0.80711600  0.14115200  0.44187000  1
  Ge  Ge21  1  0.69288400  0.85884800  0.80813000  1
  Ge  Ge22  1  0.35884800  0.80711600  0.69187000  1
  Ge  Ge23  1  0.19288400  0.85884800  0.44187000  1
  Ge  Ge24  1  0.59208750  0.02372050  0.88340550  1
  Ge  Ge25  1  0.52372050  0.40791250  0.13340550  1
  Ge  Ge26  1  0.47627950  0.59208750  0.13340550  1
  Ge  Ge27  1  0.40791250  0.97627950  0.88340550  1
  Ge  Ge28  1  0.90791250  0.97627950  0.36659450  1
  Ge  Ge29  1  0.47627950  0.09208750  0.61659450  1
  Ge  Ge30  1  0.52372050  0.90791250  0.61659450  1
  Ge  Ge31  1  0.09208750  0.02372050  0.36659450  1
  Ge  Ge32  1  0.50000000  0.00000000  0.25000000  1
  Ge  Ge33  1  0.00000000  0.00000000  0.00000000  1
  Ge  Ge34  1  0.14115200  0.69288400  0.19187000  1
  Ge  Ge35  1  0.85884800  0.80711600  0.55813000  1
  Ge  Ge36  1  0.14115200  0.19288400  0.55813000  1
  Ge  Ge37  1  0.80711600  0.64115200  0.30813000  1
  Ge  Ge38  1  0.30711600  0.64115200  0.94187000  1
  Ge  Ge39  1  0.19288400  0.35884800  0.30813000  1
  Ge  Ge40  1  0.85884800  0.30711600  0.19187000  1
  Ge  Ge41  1  0.69288400  0.35884800  0.94187000  1
  Ge  Ge42  1  0.09208750  0.52372050  0.38340550  1
  Ge  Ge43  1  0.02372050  0.90791250  0.63340550  1
  Ge  Ge44  1  0.97627950  0.09208750  0.63340550  1
  Ge  Ge45  1  0.90791250  0.47627950  0.38340550  1
  Ge  Ge46  1  0.40791250  0.47627950  0.86659450  1
  Ge  Ge47  1  0.97627950  0.59208750  0.11659450  1
  Ge  Ge48  1  0.02372050  0.40791250  0.11659450  1
  Ge  Ge49  1  0.59208750  0.52372050  0.86659450  1
  Ge  Ge50  1  0.00000000  0.50000000  0.75000000  1
  Ge  Ge51  1  0.50000000  0.50000000  0.50000000  1
  O  O52  1  0.67353300  0.79627900  0.99984700  1
  O  O53  1  0.32646700  0.20372100  0.99984700  1
  O  O54  1  0.32646700  0.70372100  0.75015300  1
  O  O55  1  0.70372100  0.17353300  0.50015300  1
  O  O56  1  0.29627900  0.82646700  0.50015300  1
  O  O57  1  0.67353300  0.29627900  0.75015300  1
  O  O58  1  0.65151900  0.12736700  0.87640800  1
  O  O59  1  0.62736700  0.34848100  0.12640800  1
  O  O60  1  0.69345650  0.96216050  0.88825450  1
  O  O61  1  0.46216050  0.30654350  0.13825450  1
  O  O62  1  0.53783950  0.69345650  0.13825450  1
  O  O63  1  0.30654350  0.03783950  0.88825450  1
  O  O64  1  0.80654350  0.03783950  0.36174550  1
  O  O65  1  0.53783950  0.19345650  0.61174550  1
  O  O66  1  0.46216050  0.80654350  0.61174550  1
  O  O67  1  0.19345650  0.96216050  0.36174550  1
  O  O68  1  0.47149150  0.58930450  0.37684050  1
  O  O69  1  0.79627900  0.82646700  0.74984700  1
  O  O70  1  0.08930450  0.02850850  0.12315950  1
  O  O71  1  0.52850850  0.91069550  0.37315950  1
  O  O72  1  0.47149150  0.08930450  0.37315950  1
  O  O73  1  0.91069550  0.97149150  0.12315950  1
  O  O74  1  0.41069550  0.97149150  0.12684050  1
  O  O75  1  0.37263300  0.65151900  0.12640800  1
  O  O76  1  0.52850850  0.41069550  0.37684050  1
  O  O77  1  0.58930450  0.02850850  0.12684050  1
  O  O78  1  0.07877750  0.02120950  0.61921650  1
  O  O79  1  0.52120950  0.92122250  0.86921650  1
  O  O80  1  0.47879050  0.07877750  0.86921650  1
  O  O81  1  0.92122250  0.97879050  0.61921650  1
  O  O82  1  0.42122250  0.97879050  0.63078350  1
  O  O83  1  0.47879050  0.57877750  0.88078350  1
  O  O84  1  0.52120950  0.42122250  0.88078350  1
  O  O85  1  0.57877750  0.02120950  0.63078350  1
  O  O86  1  0.15151900  0.12736700  0.37359200  1
  O  O87  1  0.62736700  0.84848100  0.62359200  1
  O  O88  1  0.37263300  0.15151900  0.62359200  1
  O  O89  1  0.84848100  0.87263300  0.37359200  1
  O  O90  1  0.34848100  0.87263300  0.87640800  1
  O  O91  1  0.20372100  0.17353300  0.74984700  1
  O  O92  1  0.17353300  0.29627900  0.49984700  1
  O  O93  1  0.82646700  0.70372100  0.49984700  1
  O  O94  1  0.82646700  0.20372100  0.25015300  1
  O  O95  1  0.20372100  0.67353300  0.00015300  1
  O  O96  1  0.79627900  0.32646700  0.00015300  1
  O  O97  1  0.17353300  0.79627900  0.25015300  1
  O  O98  1  0.15151900  0.62736700  0.37640800  1
  O  O99  1  0.12736700  0.84848100  0.62640800  1
  O  O100  1  0.19345650  0.46216050  0.38825450  1
  O  O101  1  0.96216050  0.80654350  0.63825450  1
  O  O102  1  0.03783950  0.19345650  0.63825450  1
  O  O103  1  0.80654350  0.53783950  0.38825450  1
  O  O104  1  0.30654350  0.53783950  0.86174550  1
  O  O105  1  0.03783950  0.69345650  0.11174550  1
  O  O106  1  0.96216050  0.30654350  0.11174550  1
  O  O107  1  0.69345650  0.46216050  0.86174550  1
  O  O108  1  0.97149150  0.08930450  0.87684050  1
  O  O109  1  0.29627900  0.32646700  0.24984700  1
  O  O110  1  0.58930450  0.52850850  0.62315950  1
  O  O111  1  0.02850850  0.41069550  0.87315950  1
  O  O112  1  0.97149150  0.58930450  0.87315950  1
  O  O113  1  0.41069550  0.47149150  0.62315950  1
  O  O114  1  0.91069550  0.47149150  0.62684050  1
  O  O115  1  0.87263300  0.15151900  0.62640800  1
  O  O116  1  0.02850850  0.91069550  0.87684050  1
  O  O117  1  0.08930450  0.52850850  0.62684050  1
  O  O118  1  0.57877750  0.52120950  0.11921650  1
  O  O119  1  0.02120950  0.42122250  0.36921650  1
  O  O120  1  0.97879050  0.57877750  0.36921650  1
  O  O121  1  0.42122250  0.47879050  0.11921650  1
  O  O122  1  0.92122250  0.47879050  0.13078350  1
  O  O123  1  0.97879050  0.07877750  0.38078350  1
  O  O124  1  0.02120950  0.92122250  0.38078350  1
  O  O125  1  0.07877750  0.52120950  0.13078350  1
  O  O126  1  0.65151900  0.62736700  0.87359200  1
  O  O127  1  0.12736700  0.34848100  0.12359200  1
  O  O128  1  0.87263300  0.65151900  0.12359200  1
  O  O129  1  0.34848100  0.37263300  0.87359200  1
  O  O130  1  0.84848100  0.37263300  0.37640800  1
  O  O131  1  0.70372100  0.67353300  0.24984700  1
