# generated using pymatgen
data_Ba2ZrS4
_symmetry_space_group_name_H-M   'P 1'
_cell_length_a   5.01089200
_cell_length_b   5.01089200
_cell_length_c   15.88990800
_cell_angle_alpha   90.00000000
_cell_angle_beta   90.00000000
_cell_angle_gamma   90.00000000
_symmetry_Int_Tables_number   1
_chemical_formula_structural   Ba2ZrS4
_chemical_formula_sum   'Ba4 Zr2 S8'
_cell_volume   398.98031389
_cell_formula_units_Z   2
loop_
 _symmetry_equiv_pos_site_id
 _symmetry_equiv_pos_as_xyz
  1  'x, y, z'
loop_
 _atom_site_type_symbol
 _atom_site_label
 _atom_site_symmetry_multiplicity
 _atom_site_fract_x
 _atom_site_fract_y
 _atom_site_fract_z
 _atom_site_occupancy
  Ba  Ba0  1  0.50000000  0.50000000  0.14170900  1
  Ba  Ba1  1  0.00000000  0.00000000  0.35829100  1
  Ba  Ba2  1  0.00000000  0.00000000  0.64170900  1
  Ba  Ba3  1  0.50000000  0.50000000  0.85829100  1
  Zr  Zr4  1  0.00000000  0.00000000  0.00000000  1
  Zr  Zr5  1  0.50000000  0.50000000  0.50000000  1
  S  S6  1  0.00000000  0.50000000  0.00000000  1
  S  S7  1  0.50000000  0.00000000  0.00000000  1
  S  S8  1  0.50000000  0.50000000  0.33675900  1
  S  S9  1  0.00000000  0.00000000  0.16324100  1
  S  S10  1  0.50000000  0.00000000  0.50000000  1
  S  S11  1  0.00000000  0.50000000  0.50000000  1
  S  S12  1  0.00000000  0.00000000  0.83675900  1
  S  S13  1  0.50000000  0.50000000  0.66324100  1
