# generated using pymatgen
data_MgAl2O4
_symmetry_space_group_name_H-M   'P 1'
_cell_length_a   5.77365260
_cell_length_b   5.77365260
_cell_length_c   14.15949100
_cell_angle_alpha   90.00000000
_cell_angle_beta   90.00000000
_cell_angle_gamma   120.00000000
_symmetry_Int_Tables_number   1
_chemical_formula_structural   MgAl2O4
_chemical_formula_sum   'Mg6 Al12 O24'
_cell_volume   408.77052384
_cell_formula_units_Z   6
loop_
 _symmetry_equiv_pos_site_id
 _symmetry_equiv_pos_as_xyz
  1  'x, y, z'
loop_
 _atom_site_type_symbol
 _atom_site_label
 _atom_site_symmetry_multiplicity
 _atom_site_fract_x
 _atom_site_fract_y
 _atom_site_fract_z
 _atom_site_occupancy
  Mg  Mg0  1  0.33333333  0.66666667  0.00396300  1
  Mg  Mg1  1  0.00000000  0.00000000  0.66645500  1
  Mg  Mg2  1  0.66666667  0.33333333  0.96151800  1
  Mg  Mg3  1  0.66666667  0.33333333  0.58432900  1
  Mg  Mg4  1  0.66666667  0.33333333  0.33453400  1
  Mg  Mg5  1  0.33333333  0.66666667  0.24632500  1
  Al  Al6  1  0.00000000  0.00000000  0.91415400  1
  Al  Al7  1  0.49763283  0.99526567  0.79082200  1
  Al  Al8  1  0.49763283  0.50236717  0.79082200  1
  Al  Al9  1  0.16644883  0.33289767  0.45750500  1
  Al  Al10  1  0.00473433  0.50236717  0.79082200  1
  Al  Al11  1  0.33333333  0.66666667  0.62308300  1
  Al  Al12  1  0.16644883  0.83355117  0.45750500  1
  Al  Al13  1  0.83055833  0.66111667  0.12579300  1
  Al  Al14  1  0.66710233  0.83355117  0.45750500  1
  Al  Al15  1  0.83055833  0.16944167  0.12579300  1
  Al  Al16  1  0.00000000  0.00000000  0.29089300  1
  Al  Al17  1  0.33888333  0.16944167  0.12579300  1
  O  O18  1  0.34047233  0.17023617  0.86689400  1
  O  O19  1  0.82976383  0.17023617  0.86689400  1
  O  O20  1  0.66666667  0.33333333  0.72606200  1
  O  O21  1  0.82976383  0.65952767  0.86689400  1
  O  O22  1  0.03596133  0.51798067  0.53709900  1
  O  O23  1  0.18582633  0.37165267  0.71156500  1
  O  O24  1  0.48201933  0.51798067  0.53709900  1
  O  O25  1  0.18582633  0.81417367  0.71156500  1
  O  O26  1  0.33333333  0.66666667  0.38758400  1
  O  O27  1  0.33333333  0.66666667  0.86217100  1
  O  O28  1  0.48201933  0.96403867  0.53709900  1
  O  O29  1  0.62834733  0.81417367  0.71156500  1
  O  O30  1  0.70830233  0.85415117  0.20308500  1
  O  O31  1  0.85168983  0.70337967  0.37994600  1
  O  O32  1  0.14584883  0.85415117  0.20308500  1
  O  O33  1  0.85168983  0.14831017  0.37994600  1
  O  O34  1  0.00000000  0.00000000  0.04307400  1
  O  O35  1  0.00000000  0.00000000  0.52832100  1
  O  O36  1  0.14584883  0.29169767  0.20308500  1
  O  O37  1  0.29662033  0.14831017  0.37994600  1
  O  O38  1  0.51284983  0.02569967  0.05384800  1
  O  O39  1  0.51284983  0.48715017  0.05384800  1
  O  O40  1  0.66666667  0.33333333  0.19798000  1
  O  O41  1  0.97430033  0.48715017  0.05384800  1
