# generated using pymatgen
data_LiCaTa2O6F
_symmetry_space_group_name_H-M   'P 1'
_cell_length_a   7.35306800
_cell_length_b   7.45765000
_cell_length_c   10.44195400
_cell_angle_alpha   90.00000000
_cell_angle_beta   90.00000000
_cell_angle_gamma   90.00000000
_symmetry_Int_Tables_number   1
_chemical_formula_structural   LiCaTa2O6F
_chemical_formula_sum   'Li4 Ca4 Ta8 O24 F4'
_cell_volume   572.60133376
_cell_formula_units_Z   4
loop_
 _symmetry_equiv_pos_site_id
 _symmetry_equiv_pos_as_xyz
  1  'x, y, z'
loop_
 _atom_site_type_symbol
 _atom_site_label
 _atom_site_symmetry_multiplicity
 _atom_site_fract_x
 _atom_site_fract_y
 _atom_site_fract_z
 _atom_site_occupancy
  Li  Li0  1  0.25000000  0.75000000  0.25000000  1
  Li  Li1  1  0.75000000  0.75000000  0.25000000  1
  Li  Li2  1  0.75000000  0.25000000  0.75000000  1
  Li  Li3  1  0.25000000  0.25000000  0.75000000  1
  Ca  Ca4  1  0.50000000  0.00000000  0.00000000  1
  Ca  Ca5  1  0.00000000  0.00000000  0.50000000  1
  Ca  Ca6  1  0.00000000  0.50000000  0.50000000  1
  Ca  Ca7  1  0.50000000  0.50000000  0.00000000  1
  Ta  Ta8  1  0.00000000  0.00000000  0.00000000  1
  Ta  Ta9  1  0.25000000  0.25000000  0.25000000  1
  Ta  Ta10  1  0.75000000  0.25000000  0.25000000  1
  Ta  Ta11  1  0.50000000  0.00000000  0.50000000  1
  Ta  Ta12  1  0.50000000  0.50000000  0.50000000  1
  Ta  Ta13  1  0.75000000  0.75000000  0.75000000  1
  Ta  Ta14  1  0.25000000  0.75000000  0.75000000  1
  Ta  Ta15  1  0.00000000  0.50000000  0.00000000  1
  O  O16  1  0.19748450  0.94163950  0.87635450  1
  O  O17  1  0.50000000  0.25000000  0.56494400  1
  O  O18  1  0.80251550  0.94163950  0.87635450  1
  O  O19  1  0.69748450  0.05836050  0.37635450  1
  O  O20  1  0.69748450  0.94163950  0.62364550  1
  O  O21  1  0.00000000  0.25000000  0.32383700  1
  O  O22  1  0.30251550  0.05836050  0.37635450  1
  O  O23  1  0.00000000  0.75000000  0.67616300  1
  O  O24  1  0.30251550  0.94163950  0.62364550  1
  O  O25  1  0.19748450  0.05836050  0.12364550  1
  O  O26  1  0.80251550  0.05836050  0.12364550  1
  O  O27  1  0.50000000  0.75000000  0.43505600  1
  O  O28  1  0.69748450  0.44163950  0.37635450  1
  O  O29  1  0.00000000  0.75000000  0.06494400  1
  O  O30  1  0.30251550  0.44163950  0.37635450  1
  O  O31  1  0.19748450  0.55836050  0.87635450  1
  O  O32  1  0.19748450  0.44163950  0.12364550  1
  O  O33  1  0.50000000  0.75000000  0.82383700  1
  O  O34  1  0.80251550  0.55836050  0.87635450  1
  O  O35  1  0.50000000  0.25000000  0.17616300  1
  O  O36  1  0.80251550  0.44163950  0.12364550  1
  O  O37  1  0.69748450  0.55836050  0.62364550  1
  O  O38  1  0.30251550  0.55836050  0.62364550  1
  O  O39  1  0.00000000  0.25000000  0.93505600  1
  F  F40  1  0.00000000  0.75000000  0.36960700  1
  F  F41  1  0.00000000  0.25000000  0.63039300  1
  F  F42  1  0.50000000  0.25000000  0.86960700  1
  F  F43  1  0.50000000  0.75000000  0.13039300  1
