# generated using pymatgen
data_Th3As4
_symmetry_space_group_name_H-M   'P 1'
_cell_length_a   8.90088200
_cell_length_b   8.90088200
_cell_length_c   8.90088200
_cell_angle_alpha   90.00000000
_cell_angle_beta   90.00000000
_cell_angle_gamma   90.00000000
_symmetry_Int_Tables_number   1
_chemical_formula_structural   Th3As4
_chemical_formula_sum   'Th12 As16'
_cell_volume   705.17861043
_cell_formula_units_Z   4
loop_
 _symmetry_equiv_pos_site_id
 _symmetry_equiv_pos_as_xyz
  1  'x, y, z'
loop_
 _atom_site_type_symbol
 _atom_site_label
 _atom_site_symmetry_multiplicity
 _atom_site_fract_x
 _atom_site_fract_y
 _atom_site_fract_z
 _atom_site_occupancy
  Th  Th0  1  0.00000000  0.75000000  0.12500000  1
  Th  Th1  1  0.25000000  0.37500000  0.00000000  1
  Th  Th2  1  0.75000000  0.12500000  0.00000000  1
  Th  Th3  1  0.12500000  0.00000000  0.75000000  1
  Th  Th4  1  0.37500000  0.00000000  0.25000000  1
  Th  Th5  1  0.00000000  0.25000000  0.37500000  1
  Th  Th6  1  0.50000000  0.25000000  0.62500000  1
  Th  Th7  1  0.75000000  0.87500000  0.50000000  1
  Th  Th8  1  0.25000000  0.62500000  0.50000000  1
  Th  Th9  1  0.62500000  0.50000000  0.25000000  1
  Th  Th10  1  0.87500000  0.50000000  0.75000000  1
  Th  Th11  1  0.50000000  0.75000000  0.87500000  1
  As  As12  1  0.32900800  0.32900800  0.32900800  1
  As  As13  1  0.92099200  0.42099200  0.07900800  1
  As  As14  1  0.42099200  0.07900800  0.92099200  1
  As  As15  1  0.07900800  0.92099200  0.42099200  1
  As  As16  1  0.67099200  0.82900800  0.17099200  1
  As  As17  1  0.82900800  0.17099200  0.67099200  1
  As  As18  1  0.07900800  0.07900800  0.07900800  1
  As  As19  1  0.17099200  0.67099200  0.82900800  1
  As  As20  1  0.82900800  0.82900800  0.82900800  1
  As  As21  1  0.42099200  0.92099200  0.57900800  1
  As  As22  1  0.92099200  0.57900800  0.42099200  1
  As  As23  1  0.57900800  0.42099200  0.92099200  1
  As  As24  1  0.17099200  0.32900800  0.67099200  1
  As  As25  1  0.32900800  0.67099200  0.17099200  1
  As  As26  1  0.57900800  0.57900800  0.57900800  1
  As  As27  1  0.67099200  0.17099200  0.32900800  1
