# generated using pymatgen
data_Li2TiO3
_symmetry_space_group_name_H-M   'P 1'
_cell_length_a   5.21886200
_cell_length_b   8.66861600
_cell_length_c   5.08653591
_cell_angle_alpha   90.00000000
_cell_angle_beta   112.08568871
_cell_angle_gamma   90.00000000
_symmetry_Int_Tables_number   1
_chemical_formula_structural   Li2TiO3
_chemical_formula_sum   'Li8 Ti4 O12'
_cell_volume   213.23111088
_cell_formula_units_Z   4
loop_
 _symmetry_equiv_pos_site_id
 _symmetry_equiv_pos_as_xyz
  1  'x, y, z'
loop_
 _atom_site_type_symbol
 _atom_site_label
 _atom_site_symmetry_multiplicity
 _atom_site_fract_x
 _atom_site_fract_y
 _atom_site_fract_z
 _atom_site_occupancy
  Li  Li0  1  0.50000000  0.58098100  0.75000000  1
  Li  Li1  1  0.50000000  0.25536800  0.75000000  1
  Li  Li2  1  0.50000000  0.41901900  0.25000000  1
  Li  Li3  1  0.50000000  0.74463200  0.25000000  1
  Li  Li4  1  0.00000000  0.08098100  0.75000000  1
  Li  Li5  1  0.00000000  0.75536800  0.75000000  1
  Li  Li6  1  0.00000000  0.91901900  0.25000000  1
  Li  Li7  1  0.00000000  0.24463200  0.25000000  1
  Ti  Ti8  1  0.50000000  0.91086100  0.75000000  1
  Ti  Ti9  1  0.50000000  0.08913900  0.25000000  1
  Ti  Ti10  1  0.00000000  0.41086100  0.75000000  1
  Ti  Ti11  1  0.00000000  0.58913900  0.25000000  1
  O  O12  1  0.27830950  0.07371950  0.48787000  1
  O  O13  1  0.72169050  0.92628050  0.51213000  1
  O  O14  1  0.72169050  0.07371950  0.01213000  1
  O  O15  1  0.75000000  0.25000000  0.50000000  1
  O  O16  1  0.27830950  0.92628050  0.98787000  1
  O  O17  1  0.75000000  0.75000000  0.00000000  1
  O  O18  1  0.77830950  0.57371950  0.48787000  1
  O  O19  1  0.22169050  0.42628050  0.51213000  1
  O  O20  1  0.22169050  0.57371950  0.01213000  1
  O  O21  1  0.25000000  0.75000000  0.50000000  1
  O  O22  1  0.77830950  0.42628050  0.98787000  1
  O  O23  1  0.25000000  0.25000000  0.00000000  1
