# generated using pymatgen
data_Ba3(PO4)2
_symmetry_space_group_name_H-M   'P 1'
_cell_length_a   5.68907432
_cell_length_b   5.68907432
_cell_length_c   21.37018829
_cell_angle_alpha   90.00000000
_cell_angle_beta   90.00000000
_cell_angle_gamma   120.00000000
_symmetry_Int_Tables_number   1
_chemical_formula_structural   Ba3(PO4)2
_chemical_formula_sum   'Ba9 P6 O24'
_cell_volume   598.99361730
_cell_formula_units_Z   3
loop_
 _symmetry_equiv_pos_site_id
 _symmetry_equiv_pos_as_xyz
  1  'x, y, z'
loop_
 _atom_site_type_symbol
 _atom_site_label
 _atom_site_symmetry_multiplicity
 _atom_site_fract_x
 _atom_site_fract_y
 _atom_site_fract_z
 _atom_site_occupancy
  Ba  Ba0  1  0.66666667  0.33333333  0.12321033  1
  Ba  Ba1  1  0.00000000  0.00000000  0.21012300  1
  Ba  Ba2  1  0.00000000  0.00000000  0.00000000  1
  Ba  Ba3  1  0.33333333  0.66666667  0.45654367  1
  Ba  Ba4  1  0.66666667  0.33333333  0.54345633  1
  Ba  Ba5  1  0.66666667  0.33333333  0.33333333  1
  Ba  Ba6  1  0.00000000  0.00000000  0.78987700  1
  Ba  Ba7  1  0.33333333  0.66666667  0.87678967  1
  Ba  Ba8  1  0.33333333  0.66666667  0.66666667  1
  P  P9  1  0.33333333  0.66666667  0.25929367  1
  P  P10  1  0.33333333  0.66666667  0.07403967  1
  P  P11  1  0.00000000  0.00000000  0.59262700  1
  P  P12  1  0.00000000  0.00000000  0.40737300  1
  P  P13  1  0.66666667  0.33333333  0.92596033  1
  P  P14  1  0.66666667  0.33333333  0.74070633  1
  O  O15  1  0.03412333  0.51706167  0.23440867  1
  O  O16  1  0.48293833  0.96587667  0.23440867  1
  O  O17  1  0.48293833  0.51706167  0.23440867  1
  O  O18  1  0.18372833  0.81627167  0.09892467  1
  O  O19  1  0.63254333  0.81627167  0.09892467  1
  O  O20  1  0.33333333  0.66666667  0.00153467  1
  O  O21  1  0.33333333  0.66666667  0.33179867  1
  O  O22  1  0.18372833  0.36745667  0.09892467  1
  O  O23  1  0.70079000  0.85039500  0.56774200  1
  O  O24  1  0.14960500  0.29921000  0.56774200  1
  O  O25  1  0.14960500  0.85039500  0.56774200  1
  O  O26  1  0.85039500  0.14960500  0.43225800  1
  O  O27  1  0.29921000  0.14960500  0.43225800  1
  O  O28  1  0.00000000  0.00000000  0.33486800  1
  O  O29  1  0.00000000  0.00000000  0.66513200  1
  O  O30  1  0.85039500  0.70079000  0.43225800  1
  O  O31  1  0.36745667  0.18372833  0.90107533  1
  O  O32  1  0.81627167  0.63254333  0.90107533  1
  O  O33  1  0.81627167  0.18372833  0.90107533  1
  O  O34  1  0.51706167  0.48293833  0.76559133  1
  O  O35  1  0.96587667  0.48293833  0.76559133  1
  O  O36  1  0.66666667  0.33333333  0.66820133  1
  O  O37  1  0.66666667  0.33333333  0.99846533  1
  O  O38  1  0.51706167  0.03412333  0.76559133  1
