# generated using pymatgen
data_Er2Se3
_symmetry_space_group_name_H-M   'P 1'
_cell_length_a   8.63629400
_cell_length_b   8.63629400
_cell_length_c   25.89931200
_cell_angle_alpha   90.00000000
_cell_angle_beta   90.00000000
_cell_angle_gamma   90.00000000
_symmetry_Int_Tables_number   1
_chemical_formula_structural   Er2Se3
_chemical_formula_sum   'Er32 Se48'
_cell_volume   1931.71505313
_cell_formula_units_Z   16
loop_
 _symmetry_equiv_pos_site_id
 _symmetry_equiv_pos_as_xyz
  1  'x, y, z'
loop_
 _atom_site_type_symbol
 _atom_site_label
 _atom_site_symmetry_multiplicity
 _atom_site_fract_x
 _atom_site_fract_y
 _atom_site_fract_z
 _atom_site_occupancy
  Er  Er0  1  0.25985400  0.36590900  0.21075200  1
  Er  Er1  1  0.00000000  0.00000000  0.16665650  1
  Er  Er2  1  0.38317250  0.75000000  0.12500000  1
  Er  Er3  1  0.25985400  0.13409100  0.03924800  1
  Er  Er4  1  0.00000000  0.50000000  0.08334350  1
  Er  Er5  1  0.74014600  0.86590900  0.03924800  1
  Er  Er6  1  0.61682750  0.25000000  0.12500000  1
  Er  Er7  1  0.36590900  0.75985400  0.46075200  1
  Er  Er8  1  0.25000000  0.11682750  0.37500000  1
  Er  Er9  1  0.00000000  0.50000000  0.41665650  1
  Er  Er10  1  0.75000000  0.88317250  0.37500000  1
  Er  Er11  1  0.63409100  0.24014600  0.46075200  1
  Er  Er12  1  0.50000000  0.50000000  0.33334350  1
  Er  Er13  1  0.86590900  0.24014600  0.28924800  1
  Er  Er14  1  0.74014600  0.63409100  0.21075200  1
  Er  Er15  1  0.13409100  0.75985400  0.28924800  1
  Er  Er16  1  0.75985400  0.86590900  0.71075200  1
  Er  Er17  1  0.50000000  0.50000000  0.66665650  1
  Er  Er18  1  0.88317250  0.25000000  0.62500000  1
  Er  Er19  1  0.75985400  0.63409100  0.53924800  1
  Er  Er20  1  0.50000000  0.00000000  0.58334350  1
  Er  Er21  1  0.24014600  0.36590900  0.53924800  1
  Er  Er22  1  0.11682750  0.75000000  0.62500000  1
  Er  Er23  1  0.86590900  0.25985400  0.96075200  1
  Er  Er24  1  0.75000000  0.61682750  0.87500000  1
  Er  Er25  1  0.50000000  0.00000000  0.91665650  1
  Er  Er26  1  0.25000000  0.38317250  0.87500000  1
  Er  Er27  1  0.13409100  0.74014600  0.96075200  1
  Er  Er28  1  0.00000000  0.00000000  0.83334350  1
  Er  Er29  1  0.36590900  0.74014600  0.78924800  1
  Er  Er30  1  0.24014600  0.13409100  0.71075200  1
  Er  Er31  1  0.63409100  0.25985400  0.78924800  1
  Se  Se32  1  0.68339950  0.93062650  0.14465350  1
  Se  Se33  1  0.06509200  0.67998000  0.18455400  1
  Se  Se34  1  0.93490800  0.32002000  0.18455400  1
  Se  Se35  1  0.06509200  0.82002000  0.06544600  1
  Se  Se36  1  0.93490800  0.17998000  0.06544600  1
  Se  Se37  1  0.31660050  0.06937350  0.14465350  1
  Se  Se38  1  0.31660050  0.43062650  0.10534650  1
  Se  Se39  1  0.67737700  0.92109100  0.48252700  1
  Se  Se40  1  0.57890900  0.17737700  0.01747300  1
  Se  Se41  1  0.68339950  0.56937350  0.10534650  1
  Se  Se42  1  0.42109100  0.82262300  0.01747300  1
  Se  Se43  1  0.06937350  0.81660050  0.39465350  1
  Se  Se44  1  0.93062650  0.18339950  0.39465350  1
  Se  Se45  1  0.32262300  0.07890900  0.48252700  1
  Se  Se46  1  0.32002000  0.43490800  0.43455400  1
  Se  Se47  1  0.17998000  0.43490800  0.31544600  1
  Se  Se48  1  0.56937350  0.18339950  0.35534650  1
  Se  Se49  1  0.67998000  0.56509200  0.43455400  1
  Se  Se50  1  0.57890900  0.32262300  0.23252700  1
  Se  Se51  1  0.43062650  0.81660050  0.35534650  1
  Se  Se52  1  0.42109100  0.67737700  0.23252700  1
  Se  Se53  1  0.82002000  0.56509200  0.31544600  1
  Se  Se54  1  0.82262300  0.92109100  0.26747300  1
  Se  Se55  1  0.17737700  0.07890900  0.26747300  1
  Se  Se56  1  0.18339950  0.43062650  0.64465350  1
  Se  Se57  1  0.56509200  0.17998000  0.68455400  1
  Se  Se58  1  0.43490800  0.82002000  0.68455400  1
  Se  Se59  1  0.56509200  0.32002000  0.56544600  1
  Se  Se60  1  0.43490800  0.67998000  0.56544600  1
  Se  Se61  1  0.81660050  0.56937350  0.64465350  1
  Se  Se62  1  0.81660050  0.93062650  0.60534650  1
  Se  Se63  1  0.17737700  0.42109100  0.98252700  1
  Se  Se64  1  0.07890900  0.67737700  0.51747300  1
  Se  Se65  1  0.18339950  0.06937350  0.60534650  1
  Se  Se66  1  0.92109100  0.32262300  0.51747300  1
  Se  Se67  1  0.56937350  0.31660050  0.89465350  1
  Se  Se68  1  0.43062650  0.68339950  0.89465350  1
  Se  Se69  1  0.82262300  0.57890900  0.98252700  1
  Se  Se70  1  0.82002000  0.93490800  0.93455400  1
  Se  Se71  1  0.67998000  0.93490800  0.81544600  1
  Se  Se72  1  0.06937350  0.68339950  0.85534650  1
  Se  Se73  1  0.17998000  0.06509200  0.93455400  1
  Se  Se74  1  0.07890900  0.82262300  0.73252700  1
  Se  Se75  1  0.93062650  0.31660050  0.85534650  1
  Se  Se76  1  0.92109100  0.17737700  0.73252700  1
  Se  Se77  1  0.32002000  0.06509200  0.81544600  1
  Se  Se78  1  0.32262300  0.42109100  0.76747300  1
  Se  Se79  1  0.67737700  0.57890900  0.76747300  1
