# generated using pymatgen
data_Tb2CdS4
_symmetry_space_group_name_H-M   'P 1'
_cell_length_a   8.33590400
_cell_length_b   8.33590400
_cell_length_c   8.63647400
_cell_angle_alpha   90.00000000
_cell_angle_beta   90.00000000
_cell_angle_gamma   90.00000000
_symmetry_Int_Tables_number   1
_chemical_formula_structural   Tb2CdS4
_chemical_formula_sum   'Tb8 Cd4 S16'
_cell_volume   600.12522089
_cell_formula_units_Z   4
loop_
 _symmetry_equiv_pos_site_id
 _symmetry_equiv_pos_as_xyz
  1  'x, y, z'
loop_
 _atom_site_type_symbol
 _atom_site_label
 _atom_site_symmetry_multiplicity
 _atom_site_fract_x
 _atom_site_fract_y
 _atom_site_fract_z
 _atom_site_occupancy
  Tb  Tb0  1  0.75000000  0.35957100  0.37500000  1
  Tb  Tb1  1  0.14042900  0.25000000  0.12500000  1
  Tb  Tb2  1  0.75000000  0.14042900  0.87500000  1
  Tb  Tb3  1  0.35957100  0.25000000  0.62500000  1
  Tb  Tb4  1  0.25000000  0.85957100  0.87500000  1
  Tb  Tb5  1  0.64042900  0.75000000  0.62500000  1
  Tb  Tb6  1  0.25000000  0.64042900  0.37500000  1
  Tb  Tb7  1  0.85957100  0.75000000  0.12500000  1
  Cd  Cd8  1  0.00000000  0.00000000  0.50000000  1
  Cd  Cd9  1  0.50000000  0.00000000  0.25000000  1
  Cd  Cd10  1  0.50000000  0.50000000  0.00000000  1
  Cd  Cd11  1  0.00000000  0.50000000  0.75000000  1
  S  S12  1  0.80671250  0.06757750  0.18246650  1
  S  S13  1  0.30671250  0.93242250  0.56753350  1
  S  S14  1  0.56757750  0.69328750  0.31753350  1
  S  S15  1  0.43242250  0.30671250  0.31753350  1
  S  S16  1  0.43242250  0.19328750  0.93246650  1
  S  S17  1  0.19328750  0.56757750  0.06753350  1
  S  S18  1  0.19328750  0.93242250  0.18246650  1
  S  S19  1  0.06757750  0.30671250  0.43246650  1
  S  S20  1  0.30671250  0.56757750  0.68246650  1
  S  S21  1  0.80671250  0.43242250  0.06753350  1
  S  S22  1  0.06757750  0.19328750  0.81753350  1
  S  S23  1  0.93242250  0.80671250  0.81753350  1
  S  S24  1  0.93242250  0.69328750  0.43246650  1
  S  S25  1  0.69328750  0.06757750  0.56753350  1
  S  S26  1  0.69328750  0.43242250  0.68246650  1
  S  S27  1  0.56757750  0.80671250  0.93246650  1
