# generated using pymatgen
data_Sr(AlTe2)2
_symmetry_space_group_name_H-M   'P 1'
_cell_length_a   8.43368400
_cell_length_b   8.43368400
_cell_length_c   6.73272600
_cell_angle_alpha   90.00000000
_cell_angle_beta   90.00000000
_cell_angle_gamma   90.00000000
_symmetry_Int_Tables_number   1
_chemical_formula_structural   Sr(AlTe2)2
_chemical_formula_sum   'Sr2 Al4 Te8'
_cell_volume   478.87877599
_cell_formula_units_Z   2
loop_
 _symmetry_equiv_pos_site_id
 _symmetry_equiv_pos_as_xyz
  1  'x, y, z'
loop_
 _atom_site_type_symbol
 _atom_site_label
 _atom_site_symmetry_multiplicity
 _atom_site_fract_x
 _atom_site_fract_y
 _atom_site_fract_z
 _atom_site_occupancy
  Sr  Sr0  1  0.00000000  0.00000000  0.00000000  1
  Sr  Sr1  1  0.50000000  0.50000000  0.50000000  1
  Al  Al2  1  0.50000000  0.00000000  0.00000000  1
  Al  Al3  1  0.50000000  0.00000000  0.50000000  1
  Al  Al4  1  0.00000000  0.50000000  0.50000000  1
  Al  Al5  1  0.00000000  0.50000000  0.00000000  1
  Te  Te6  1  0.67191500  0.82808500  0.25000000  1
  Te  Te7  1  0.32808500  0.82808500  0.75000000  1
  Te  Te8  1  0.67191500  0.17191500  0.75000000  1
  Te  Te9  1  0.32808500  0.17191500  0.25000000  1
  Te  Te10  1  0.17191500  0.32808500  0.75000000  1
  Te  Te11  1  0.82808500  0.32808500  0.25000000  1
  Te  Te12  1  0.17191500  0.67191500  0.25000000  1
  Te  Te13  1  0.82808500  0.67191500  0.75000000  1
