# generated using pymatgen
data_Ag3SBr
_symmetry_space_group_name_H-M   'P 1'
_cell_length_a   9.60245600
_cell_length_b   9.81120000
_cell_length_c   9.92773600
_cell_angle_alpha   90.00000000
_cell_angle_beta   90.00000000
_cell_angle_gamma   90.00000000
_symmetry_Int_Tables_number   1
_chemical_formula_structural   Ag3SBr
_chemical_formula_sum   'Ag24 S8 Br8'
_cell_volume   935.30805483
_cell_formula_units_Z   8
loop_
 _symmetry_equiv_pos_site_id
 _symmetry_equiv_pos_as_xyz
  1  'x, y, z'
loop_
 _atom_site_type_symbol
 _atom_site_label
 _atom_site_symmetry_multiplicity
 _atom_site_fract_x
 _atom_site_fract_y
 _atom_site_fract_z
 _atom_site_occupancy
  Ag  Ag0  1  0.25000000  0.75000000  0.56414700  1
  Ag  Ag1  1  0.50000000  0.81227100  0.74839900  1
  Ag  Ag2  1  0.25000000  0.25000000  0.56414700  1
  Ag  Ag3  1  0.50000000  0.18772900  0.74839900  1
  Ag  Ag4  1  0.00000000  0.00000000  0.55467000  1
  Ag  Ag5  1  0.00000000  0.00000000  0.93620900  1
  Ag  Ag6  1  0.25000000  0.25000000  0.06414700  1
  Ag  Ag7  1  0.50000000  0.31227100  0.24839900  1
  Ag  Ag8  1  0.25000000  0.75000000  0.06414700  1
  Ag  Ag9  1  0.50000000  0.68772900  0.24839900  1
  Ag  Ag10  1  0.00000000  0.50000000  0.05467000  1
  Ag  Ag11  1  0.00000000  0.50000000  0.43620900  1
  Ag  Ag12  1  0.75000000  0.75000000  0.06414700  1
  Ag  Ag13  1  0.00000000  0.81227100  0.24839900  1
  Ag  Ag14  1  0.75000000  0.25000000  0.06414700  1
  Ag  Ag15  1  0.00000000  0.18772900  0.24839900  1
  Ag  Ag16  1  0.50000000  0.00000000  0.05467000  1
  Ag  Ag17  1  0.50000000  0.00000000  0.43620900  1
  Ag  Ag18  1  0.75000000  0.25000000  0.56414700  1
  Ag  Ag19  1  0.00000000  0.31227100  0.74839900  1
  Ag  Ag20  1  0.75000000  0.75000000  0.56414700  1
  Ag  Ag21  1  0.00000000  0.68772900  0.74839900  1
  Ag  Ag22  1  0.50000000  0.50000000  0.55467000  1
  Ag  Ag23  1  0.50000000  0.50000000  0.93620900  1
  S  S24  1  0.50000000  0.75016350  0.99568250  1
  S  S25  1  0.50000000  0.24983650  0.99568250  1
  S  S26  1  0.50000000  0.25016350  0.49568250  1
  S  S27  1  0.50000000  0.74983650  0.49568250  1
  S  S28  1  0.00000000  0.75016350  0.49568250  1
  S  S29  1  0.00000000  0.24983650  0.49568250  1
  S  S30  1  0.00000000  0.25016350  0.99568250  1
  S  S31  1  0.00000000  0.74983650  0.99568250  1
  Br  Br32  1  0.75002000  0.00000000  0.75383100  1
  Br  Br33  1  0.24998000  0.00000000  0.75383100  1
  Br  Br34  1  0.75002000  0.50000000  0.25383100  1
  Br  Br35  1  0.24998000  0.50000000  0.25383100  1
  Br  Br36  1  0.25002000  0.00000000  0.25383100  1
  Br  Br37  1  0.74998000  0.00000000  0.25383100  1
  Br  Br38  1  0.25002000  0.50000000  0.75383100  1
  Br  Br39  1  0.74998000  0.50000000  0.75383100  1
