# generated using pymatgen
data_NaNbO3
_symmetry_space_group_name_H-M   'P 1'
_cell_length_a   5.59754200
_cell_length_b   5.68743200
_cell_length_c   15.68108600
_cell_angle_alpha   90.00000000
_cell_angle_beta   90.00000000
_cell_angle_gamma   90.00000000
_symmetry_Int_Tables_number   1
_chemical_formula_structural   NaNbO3
_chemical_formula_sum   'Na8 Nb8 O24'
_cell_volume   499.21740074
_cell_formula_units_Z   8
loop_
 _symmetry_equiv_pos_site_id
 _symmetry_equiv_pos_as_xyz
  1  'x, y, z'
loop_
 _atom_site_type_symbol
 _atom_site_label
 _atom_site_symmetry_multiplicity
 _atom_site_fract_x
 _atom_site_fract_y
 _atom_site_fract_z
 _atom_site_occupancy
  Na  Na0  1  0.25856500  0.25000000  0.00000000  1
  Na  Na1  1  0.74143500  0.75000000  0.50000000  1
  Na  Na2  1  0.74143500  0.75000000  0.00000000  1
  Na  Na3  1  0.25856500  0.25000000  0.50000000  1
  Na  Na4  1  0.25924900  0.20287200  0.25000000  1
  Na  Na5  1  0.25924900  0.29712800  0.75000000  1
  Na  Na6  1  0.74075100  0.70287200  0.25000000  1
  Na  Na7  1  0.74075100  0.79712800  0.75000000  1
  Nb  Nb8  1  0.24353300  0.72199600  0.12519600  1
  Nb  Nb9  1  0.24353300  0.77800400  0.87480400  1
  Nb  Nb10  1  0.75646700  0.22199600  0.37480400  1
  Nb  Nb11  1  0.75646700  0.27800400  0.62519600  1
  Nb  Nb12  1  0.75646700  0.27800400  0.87480400  1
  Nb  Nb13  1  0.75646700  0.22199600  0.12519600  1
  Nb  Nb14  1  0.24353300  0.77800400  0.62519600  1
  Nb  Nb15  1  0.24353300  0.72199600  0.37480400  1
  O  O16  1  0.04036300  0.04481700  0.39179100  1
  O  O17  1  0.04036300  0.45518300  0.60820900  1
  O  O18  1  0.95963700  0.54481700  0.10820900  1
  O  O19  1  0.95963700  0.95518300  0.89179100  1
  O  O20  1  0.95963700  0.95518300  0.60820900  1
  O  O21  1  0.95963700  0.54481700  0.39179100  1
  O  O22  1  0.04036300  0.45518300  0.89179100  1
  O  O23  1  0.04036300  0.04481700  0.10820900  1
  O  O24  1  0.45798000  0.46752900  0.35759100  1
  O  O25  1  0.45798000  0.03247100  0.64240900  1
  O  O26  1  0.54202000  0.96752900  0.14240900  1
  O  O27  1  0.54202000  0.53247100  0.85759100  1
  O  O28  1  0.54202000  0.53247100  0.64240900  1
  O  O29  1  0.54202000  0.96752900  0.35759100  1
  O  O30  1  0.45798000  0.03247100  0.85759100  1
  O  O31  1  0.45798000  0.46752900  0.14240900  1
  O  O32  1  0.68366200  0.25000000  0.00000000  1
  O  O33  1  0.31633800  0.75000000  0.50000000  1
  O  O34  1  0.31633800  0.75000000  0.00000000  1
  O  O35  1  0.68366200  0.25000000  0.50000000  1
  O  O36  1  0.18358200  0.77556100  0.25000000  1
  O  O37  1  0.18358200  0.72443900  0.75000000  1
  O  O38  1  0.81641800  0.27556100  0.25000000  1
  O  O39  1  0.81641800  0.22443900  0.75000000  1
