# generated using pymatgen
data_Zn(FeO2)2
_symmetry_space_group_name_H-M   'P 1'
_cell_length_a   6.06536150
_cell_length_b   6.06536150
_cell_length_c   14.84971800
_cell_angle_alpha   90.00000000
_cell_angle_beta   90.00000000
_cell_angle_gamma   120.00000000
_symmetry_Int_Tables_number   1
_chemical_formula_structural   Zn(FeO2)2
_chemical_formula_sum   'Zn6 Fe12 O24'
_cell_volume   473.11009925
_cell_formula_units_Z   6
loop_
 _symmetry_equiv_pos_site_id
 _symmetry_equiv_pos_as_xyz
  1  'x, y, z'
loop_
 _atom_site_type_symbol
 _atom_site_label
 _atom_site_symmetry_multiplicity
 _atom_site_fract_x
 _atom_site_fract_y
 _atom_site_fract_z
 _atom_site_occupancy
  Zn  Zn0  1  0.00000000  0.00000000  0.95464400  1
  Zn  Zn1  1  0.33333333  0.66666667  0.99815300  1
  Zn  Zn2  1  0.33333333  0.66666667  0.62459900  1
  Zn  Zn3  1  0.66666667  0.33333333  0.29239100  1
  Zn  Zn4  1  0.00000000  0.00000000  0.71019700  1
  Zn  Zn5  1  0.33333333  0.66666667  0.37506500  1
  Fe  Fe6  1  0.49798100  0.50201900  0.83356600  1
  Fe  Fe7  1  0.33368500  0.16684250  0.50067200  1
  Fe  Fe8  1  0.66666667  0.33333333  0.66778100  1
  Fe  Fe9  1  0.49798100  0.99596200  0.83356600  1
  Fe  Fe10  1  0.83315750  0.16684250  0.50067200  1
  Fe  Fe11  1  0.00403800  0.50201900  0.83356600  1
  Fe  Fe12  1  0.00000000  0.00000000  0.33462200  1
  Fe  Fe13  1  0.83315750  0.66631500  0.50067200  1
  Fe  Fe14  1  0.16564500  0.83435500  0.16691800  1
  Fe  Fe15  1  0.16564500  0.33129000  0.16691800  1
  Fe  Fe16  1  0.66871000  0.83435500  0.16691800  1
  Fe  Fe17  1  0.66666667  0.33333333  0.04294200  1
  O  O18  1  0.17761300  0.82238700  0.90897700  1
  O  O19  1  0.17761300  0.35522600  0.90897700  1
  O  O20  1  0.33333333  0.66666667  0.75893300  1
  O  O21  1  0.64477400  0.82238700  0.90897700  1
  O  O22  1  0.51385000  0.48615000  0.57947800  1
  O  O23  1  0.36340100  0.18170050  0.75357400  1
  O  O24  1  0.66666667  0.33333333  0.91194600  1
  O  O25  1  0.81829950  0.63659900  0.75357400  1
  O  O26  1  0.51385000  0.02770000  0.57947800  1
  O  O27  1  0.66666667  0.33333333  0.42685700  1
  O  O28  1  0.97230000  0.48615000  0.57947800  1
  O  O29  1  0.81829950  0.18170050  0.75357400  1
  O  O30  1  0.84757700  0.15242300  0.24680700  1
  O  O31  1  0.69408700  0.84704350  0.41988600  1
  O  O32  1  0.00000000  0.00000000  0.57328300  1
  O  O33  1  0.15295650  0.30591300  0.41988600  1
  O  O34  1  0.00000000  0.00000000  0.09299700  1
  O  O35  1  0.84757700  0.69515400  0.24680700  1
  O  O36  1  0.30484600  0.15242300  0.24680700  1
  O  O37  1  0.15295650  0.84704350  0.41988600  1
  O  O38  1  0.01285900  0.50642950  0.08925300  1
  O  O39  1  0.49357050  0.98714100  0.08925300  1
  O  O40  1  0.33333333  0.66666667  0.23815400  1
  O  O41  1  0.49357050  0.50642950  0.08925300  1
