# generated using pymatgen
data_LiNbO3
_symmetry_space_group_name_H-M   'P 1'
_cell_length_a   5.22299001
_cell_length_b   5.22299001
_cell_length_c   14.12924181
_cell_angle_alpha   90.00000000
_cell_angle_beta   90.00000000
_cell_angle_gamma   120.00000000
_symmetry_Int_Tables_number   1
_chemical_formula_structural   LiNbO3
_chemical_formula_sum   'Li6 Nb6 O18'
_cell_volume   333.80118964
_cell_formula_units_Z   6
loop_
 _symmetry_equiv_pos_site_id
 _symmetry_equiv_pos_as_xyz
  1  'x, y, z'
loop_
 _atom_site_type_symbol
 _atom_site_label
 _atom_site_symmetry_multiplicity
 _atom_site_fract_x
 _atom_site_fract_y
 _atom_site_fract_z
 _atom_site_occupancy
  Li  Li0  1  0.66666667  0.33333333  0.05050133  1
  Li  Li1  1  0.00000000  0.00000000  0.21716800  1
  Li  Li2  1  0.33333333  0.66666667  0.38383467  1
  Li  Li3  1  0.66666667  0.33333333  0.55050133  1
  Li  Li4  1  0.00000000  0.00000000  0.71716800  1
  Li  Li5  1  0.33333333  0.66666667  0.88383467  1
  Nb  Nb6  1  0.66666667  0.33333333  0.33256433  1
  Nb  Nb7  1  0.33333333  0.66666667  0.16589767  1
  Nb  Nb8  1  0.33333333  0.66666667  0.66589767  1
  Nb  Nb9  1  0.00000000  0.00000000  0.49923100  1
  Nb  Nb10  1  0.00000000  0.00000000  0.99923100  1
  Nb  Nb11  1  0.66666667  0.33333333  0.83256433  1
  O  O12  1  0.62036767  0.99005133  0.27000033  1
  O  O13  1  0.00994867  0.63031633  0.27000033  1
  O  O14  1  0.36968367  0.37963233  0.27000033  1
  O  O15  1  0.03635033  0.32338467  0.10333367  1
  O  O16  1  0.67661533  0.71296567  0.10333367  1
  O  O17  1  0.28703433  0.96364967  0.10333367  1
  O  O18  1  0.28703433  0.32338467  0.60333367  1
  O  O19  1  0.67661533  0.96364967  0.60333367  1
  O  O20  1  0.03635033  0.71296567  0.60333367  1
  O  O21  1  0.70301700  0.65671800  0.43666700  1
  O  O22  1  0.34328200  0.04629900  0.43666700  1
  O  O23  1  0.95370100  0.29698300  0.43666700  1
  O  O24  1  0.95370100  0.65671800  0.93666700  1
  O  O25  1  0.34328200  0.29698300  0.93666700  1
  O  O26  1  0.70301700  0.04629900  0.93666700  1
  O  O27  1  0.36968367  0.99005133  0.77000033  1
  O  O28  1  0.00994867  0.37963233  0.77000033  1
  O  O29  1  0.62036767  0.63031633  0.77000033  1
