# generated using pymatgen
data_Gd3GaO6
_symmetry_space_group_name_H-M   'P 1'
_cell_length_a   9.05572400
_cell_length_b   11.35649600
_cell_length_c   5.51864200
_cell_angle_alpha   90.00000000
_cell_angle_beta   90.00000000
_cell_angle_gamma   90.00000000
_symmetry_Int_Tables_number   1
_chemical_formula_structural   Gd3GaO6
_chemical_formula_sum   'Gd12 Ga4 O24'
_cell_volume   567.54428100
_cell_formula_units_Z   4
loop_
 _symmetry_equiv_pos_site_id
 _symmetry_equiv_pos_as_xyz
  1  'x, y, z'
loop_
 _atom_site_type_symbol
 _atom_site_label
 _atom_site_symmetry_multiplicity
 _atom_site_fract_x
 _atom_site_fract_y
 _atom_site_fract_z
 _atom_site_occupancy
  Gd  Gd0  1  0.50000000  0.89707800  0.07745100  1
  Gd  Gd1  1  0.50000000  0.10292200  0.57745100  1
  Gd  Gd2  1  0.19345450  0.10573450  0.03216500  1
  Gd  Gd3  1  0.80654550  0.89426550  0.53216500  1
  Gd  Gd4  1  0.80654550  0.10573450  0.03216500  1
  Gd  Gd5  1  0.19345450  0.89426550  0.53216500  1
  Gd  Gd6  1  0.00000000  0.39707800  0.07745100  1
  Gd  Gd7  1  0.00000000  0.60292200  0.57745100  1
  Gd  Gd8  1  0.69345450  0.60573450  0.03216500  1
  Gd  Gd9  1  0.30654550  0.39426550  0.53216500  1
  Gd  Gd10  1  0.30654550  0.60573450  0.03216500  1
  Gd  Gd11  1  0.69345450  0.39426550  0.53216500  1
  Ga  Ga12  1  0.50000000  0.69251900  0.49973800  1
  Ga  Ga13  1  0.50000000  0.30748100  0.99973800  1
  Ga  Ga14  1  0.00000000  0.19251900  0.49973800  1
  Ga  Ga15  1  0.00000000  0.80748100  0.99973800  1
  O  O16  1  0.50000000  0.71499000  0.83339200  1
  O  O17  1  0.50000000  0.28501000  0.33339200  1
  O  O18  1  0.50000000  0.54021600  0.36211100  1
  O  O19  1  0.50000000  0.45978400  0.86211100  1
  O  O20  1  0.34013700  0.01518200  0.30318700  1
  O  O21  1  0.65986300  0.98481800  0.80318700  1
  O  O22  1  0.65986300  0.01518200  0.30318700  1
  O  O23  1  0.34013700  0.98481800  0.80318700  1
  O  O24  1  0.65660500  0.23700500  0.82540800  1
  O  O25  1  0.34339500  0.76299500  0.32540800  1
  O  O26  1  0.34339500  0.23700500  0.82540800  1
  O  O27  1  0.65660500  0.76299500  0.32540800  1
  O  O28  1  0.00000000  0.21499000  0.83339200  1
  O  O29  1  0.00000000  0.78501000  0.33339200  1
  O  O30  1  0.00000000  0.04021600  0.36211100  1
  O  O31  1  0.00000000  0.95978400  0.86211100  1
  O  O32  1  0.84013700  0.51518200  0.30318700  1
  O  O33  1  0.15986300  0.48481800  0.80318700  1
  O  O34  1  0.15986300  0.51518200  0.30318700  1
  O  O35  1  0.84013700  0.48481800  0.80318700  1
  O  O36  1  0.15660500  0.73700500  0.82540800  1
  O  O37  1  0.84339500  0.26299500  0.32540800  1
  O  O38  1  0.84339500  0.73700500  0.82540800  1
  O  O39  1  0.15660500  0.26299500  0.32540800  1
