# generated using pymatgen
data_Rb4Br2O
_symmetry_space_group_name_H-M   'P 1'
_cell_length_a   5.53562800
_cell_length_b   5.53562800
_cell_length_c   17.53678800
_cell_angle_alpha   90.00000000
_cell_angle_beta   90.00000000
_cell_angle_gamma   90.00000000
_symmetry_Int_Tables_number   1
_chemical_formula_structural   Rb4Br2O
_chemical_formula_sum   'Rb8 Br4 O2'
_cell_volume   537.38290491
_cell_formula_units_Z   2
loop_
 _symmetry_equiv_pos_site_id
 _symmetry_equiv_pos_as_xyz
  1  'x, y, z'
loop_
 _atom_site_type_symbol
 _atom_site_label
 _atom_site_symmetry_multiplicity
 _atom_site_fract_x
 _atom_site_fract_y
 _atom_site_fract_z
 _atom_site_occupancy
  Rb  Rb0  1  0.50000000  0.50000000  0.34515400  1
  Rb  Rb1  1  0.00000000  0.00000000  0.15484600  1
  Rb  Rb2  1  0.00000000  0.50000000  0.00000000  1
  Rb  Rb3  1  0.50000000  0.00000000  0.00000000  1
  Rb  Rb4  1  0.00000000  0.00000000  0.84515400  1
  Rb  Rb5  1  0.50000000  0.50000000  0.65484600  1
  Rb  Rb6  1  0.50000000  0.00000000  0.50000000  1
  Rb  Rb7  1  0.00000000  0.50000000  0.50000000  1
  Br  Br8  1  0.50000000  0.50000000  0.14329500  1
  Br  Br9  1  0.00000000  0.00000000  0.35670500  1
  Br  Br10  1  0.00000000  0.00000000  0.64329500  1
  Br  Br11  1  0.50000000  0.50000000  0.85670500  1
  O  O12  1  0.00000000  0.00000000  0.00000000  1
  O  O13  1  0.50000000  0.50000000  0.50000000  1
