# generated using pymatgen
data_Li2HN
_symmetry_space_group_name_H-M   'P 1'
_cell_length_a   3.45514200
_cell_length_b   3.54639000
_cell_length_c   5.41475000
_cell_angle_alpha   90.00000000
_cell_angle_beta   90.00000000
_cell_angle_gamma   90.00000000
_symmetry_Int_Tables_number   1
_chemical_formula_structural   Li2HN
_chemical_formula_sum   'Li4 H2 N2'
_cell_volume   66.34845350
_cell_formula_units_Z   2
loop_
 _symmetry_equiv_pos_site_id
 _symmetry_equiv_pos_as_xyz
  1  'x, y, z'
loop_
 _atom_site_type_symbol
 _atom_site_label
 _atom_site_symmetry_multiplicity
 _atom_site_fract_x
 _atom_site_fract_y
 _atom_site_fract_z
 _atom_site_occupancy
  Li  Li0  1  0.52203800  0.00000000  0.28387500  1
  Li  Li1  1  0.02203800  0.50000000  0.21612500  1
  Li  Li2  1  0.02203800  0.50000000  0.78387500  1
  Li  Li3  1  0.52203800  0.00000000  0.71612500  1
  H  H4  1  0.23748900  0.00000000  0.00000000  1
  H  H5  1  0.73748900  0.50000000  0.50000000  1
  N  N6  1  0.93843500  0.00000000  0.00000000  1
  N  N7  1  0.43843500  0.50000000  0.50000000  1
