# generated using pymatgen
data_NbSbO4
_symmetry_space_group_name_H-M   'P 1'
_cell_length_a   5.07846500
_cell_length_b   5.69168100
_cell_length_c   11.99438500
_cell_angle_alpha   90.00000000
_cell_angle_beta   90.00000000
_cell_angle_gamma   90.00000000
_symmetry_Int_Tables_number   1
_chemical_formula_structural   NbSbO4
_chemical_formula_sum   'Nb4 Sb4 O16'
_cell_volume   346.69773141
_cell_formula_units_Z   4
loop_
 _symmetry_equiv_pos_site_id
 _symmetry_equiv_pos_as_xyz
  1  'x, y, z'
loop_
 _atom_site_type_symbol
 _atom_site_label
 _atom_site_symmetry_multiplicity
 _atom_site_fract_x
 _atom_site_fract_y
 _atom_site_fract_z
 _atom_site_occupancy
  Nb  Nb0  1  0.75000000  0.13486500  0.25000000  1
  Nb  Nb1  1  0.75000000  0.36513500  0.75000000  1
  Nb  Nb2  1  0.25000000  0.86513500  0.75000000  1
  Nb  Nb3  1  0.25000000  0.63486500  0.25000000  1
  Sb  Sb4  1  0.81041900  0.75000000  0.00000000  1
  Sb  Sb5  1  0.68958100  0.75000000  0.50000000  1
  Sb  Sb6  1  0.18958100  0.25000000  0.00000000  1
  Sb  Sb7  1  0.31041900  0.25000000  0.50000000  1
  O  O8  1  0.50805800  0.84268100  0.19853800  1
  O  O9  1  0.50805800  0.65731900  0.80146200  1
  O  O10  1  0.99194200  0.84268100  0.30146200  1
  O  O11  1  0.99194200  0.65731900  0.69853800  1
  O  O12  1  0.49194200  0.15731900  0.80146200  1
  O  O13  1  0.49194200  0.34268100  0.19853800  1
  O  O14  1  0.00805800  0.15731900  0.69853800  1
  O  O15  1  0.00805800  0.34268100  0.30146200  1
  O  O16  1  0.08409500  0.57656700  0.09462300  1
  O  O17  1  0.08409500  0.92343300  0.90537700  1
  O  O18  1  0.41590500  0.57656700  0.40537700  1
  O  O19  1  0.41590500  0.92343300  0.59462300  1
  O  O20  1  0.91590500  0.42343300  0.90537700  1
  O  O21  1  0.91590500  0.07656700  0.09462300  1
  O  O22  1  0.58409500  0.42343300  0.59462300  1
  O  O23  1  0.58409500  0.07656700  0.40537700  1
