# generated using pymatgen
data_GaBH6
_symmetry_space_group_name_H-M   'P 1'
_cell_length_a   13.94206800
_cell_length_b   9.40806800
_cell_length_c   10.37134883
_cell_angle_alpha   90.00000000
_cell_angle_beta   127.18539275
_cell_angle_gamma   90.00000000
_symmetry_Int_Tables_number   1
_chemical_formula_structural   GaBH6
_chemical_formula_sum   'Ga12 B12 H72'
_cell_volume   1083.79963001
_cell_formula_units_Z   12
loop_
 _symmetry_equiv_pos_site_id
 _symmetry_equiv_pos_as_xyz
  1  'x, y, z'
loop_
 _atom_site_type_symbol
 _atom_site_label
 _atom_site_symmetry_multiplicity
 _atom_site_fract_x
 _atom_site_fract_y
 _atom_site_fract_z
 _atom_site_occupancy
  Ga  Ga0  1  0.50000000  0.82222300  0.75000000  1
  Ga  Ga1  1  0.00000000  0.67777700  0.25000000  1
  Ga  Ga2  1  0.30967600  0.61014100  0.20946800  1
  Ga  Ga3  1  0.69032400  0.61014100  0.29053200  1
  Ga  Ga4  1  0.19032400  0.88985900  0.79053200  1
  Ga  Ga5  1  0.80967600  0.88985900  0.70946800  1
  Ga  Ga6  1  0.00000000  0.32222300  0.75000000  1
  Ga  Ga7  1  0.50000000  0.17777700  0.25000000  1
  Ga  Ga8  1  0.80967600  0.11014100  0.20946800  1
  Ga  Ga9  1  0.19032400  0.11014100  0.29053200  1
  Ga  Ga10  1  0.69032400  0.38985900  0.79053200  1
  Ga  Ga11  1  0.30967600  0.38985900  0.70946800  1
  B  B12  1  0.50000000  0.65798900  0.25000000  1
  B  B13  1  0.00000000  0.84201100  0.75000000  1
  B  B14  1  0.15372400  0.43763200  0.01069700  1
  B  B15  1  0.34627600  0.93763200  0.48930300  1
  B  B16  1  0.34627600  0.06236800  0.98930300  1
  B  B17  1  0.15372400  0.56236800  0.51069700  1
  B  B18  1  0.00000000  0.15798900  0.25000000  1
  B  B19  1  0.50000000  0.34201100  0.75000000  1
  B  B20  1  0.65372400  0.93763200  0.01069700  1
  B  B21  1  0.84627600  0.43763200  0.48930300  1
  B  B22  1  0.84627600  0.56236800  0.98930300  1
  B  B23  1  0.65372400  0.06236800  0.51069700  1
  H  H24  1  0.41608100  0.57392900  0.15624300  1
  H  H25  1  0.08391900  0.07392900  0.34375700  1
  H  H26  1  0.08391900  0.92607100  0.84375700  1
  H  H27  1  0.41608100  0.42607100  0.65624300  1
  H  H28  1  0.48916750  0.73089350  0.33722600  1
  H  H29  1  0.01083250  0.23089350  0.16277400  1
  H  H30  1  0.01083250  0.76910650  0.66277400  1
  H  H31  1  0.48916750  0.26910650  0.83722600  1
  H  H32  1  0.57570300  0.98764400  0.87249500  1
  H  H33  1  0.42429700  0.98764400  0.62750500  1
  H  H34  1  0.92429700  0.51235600  0.12750500  1
  H  H35  1  0.07570300  0.51235600  0.37249500  1
  H  H36  1  0.85877700  0.97581600  0.86397800  1
  H  H37  1  0.14122300  0.97581600  0.63602200  1
  H  H38  1  0.64122300  0.52418400  0.13602200  1
  H  H39  1  0.35877700  0.52418400  0.36397800  1
  H  H40  1  0.74284650  0.75103150  0.62544800  1
  H  H41  1  0.25715350  0.75103150  0.87455200  1
  H  H42  1  0.75715350  0.74896850  0.37455200  1
  H  H43  1  0.24284650  0.74896850  0.12544800  1
  H  H44  1  0.92070000  0.73520300  0.29551700  1
  H  H45  1  0.07930000  0.73520300  0.20448300  1
  H  H46  1  0.57930000  0.76479700  0.70448300  1
  H  H47  1  0.42070000  0.76479700  0.79551700  1
  H  H48  1  0.16275950  0.69099050  0.52209700  1
  H  H49  1  0.33724050  0.19099050  0.97790300  1
  H  H50  1  0.33724050  0.80900950  0.47790300  1
  H  H51  1  0.16275950  0.30900950  0.02209700  1
  H  H52  1  0.13009150  0.51312050  0.59657400  1
  H  H53  1  0.36990850  0.01312050  0.90342600  1
  H  H54  1  0.36990850  0.98687950  0.40342600  1
  H  H55  1  0.13009150  0.48687950  0.09657400  1
  H  H56  1  0.24815200  0.52038500  0.53418000  1
  H  H57  1  0.25184800  0.02038500  0.96582000  1
  H  H58  1  0.25184800  0.97961500  0.46582000  1
  H  H59  1  0.24815200  0.47961500  0.03418000  1
  H  H60  1  0.91608100  0.07392900  0.15624300  1
  H  H61  1  0.58391900  0.57392900  0.34375700  1
  H  H62  1  0.58391900  0.42607100  0.84375700  1
  H  H63  1  0.91608100  0.92607100  0.65624300  1
  H  H64  1  0.98916750  0.23089350  0.33722600  1
  H  H65  1  0.51083250  0.73089350  0.16277400  1
  H  H66  1  0.51083250  0.26910650  0.66277400  1
  H  H67  1  0.98916750  0.76910650  0.83722600  1
  H  H68  1  0.07570300  0.48764400  0.87249500  1
  H  H69  1  0.92429700  0.48764400  0.62750500  1
  H  H70  1  0.42429700  0.01235600  0.12750500  1
  H  H71  1  0.57570300  0.01235600  0.37249500  1
  H  H72  1  0.35877700  0.47581600  0.86397800  1
  H  H73  1  0.64122300  0.47581600  0.63602200  1
  H  H74  1  0.14122300  0.02418400  0.13602200  1
  H  H75  1  0.85877700  0.02418400  0.36397800  1
  H  H76  1  0.24284650  0.25103150  0.62544800  1
  H  H77  1  0.75715350  0.25103150  0.87455200  1
  H  H78  1  0.25715350  0.24896850  0.37455200  1
  H  H79  1  0.74284650  0.24896850  0.12544800  1
  H  H80  1  0.42070000  0.23520300  0.29551700  1
  H  H81  1  0.57930000  0.23520300  0.20448300  1
  H  H82  1  0.07930000  0.26479700  0.70448300  1
  H  H83  1  0.92070000  0.26479700  0.79551700  1
  H  H84  1  0.66275950  0.19099050  0.52209700  1
  H  H85  1  0.83724050  0.69099050  0.97790300  1
  H  H86  1  0.83724050  0.30900950  0.47790300  1
  H  H87  1  0.66275950  0.80900950  0.02209700  1
  H  H88  1  0.63009150  0.01312050  0.59657400  1
  H  H89  1  0.86990850  0.51312050  0.90342600  1
  H  H90  1  0.86990850  0.48687950  0.40342600  1
  H  H91  1  0.63009150  0.98687950  0.09657400  1
  H  H92  1  0.74815200  0.02038500  0.53418000  1
  H  H93  1  0.75184800  0.52038500  0.96582000  1
  H  H94  1  0.75184800  0.47961500  0.46582000  1
  H  H95  1  0.74815200  0.97961500  0.03418000  1
