# generated using pymatgen
data_AgBiI4
_symmetry_space_group_name_H-M   'P 1'
_cell_length_a   8.80477600
_cell_length_b   8.92827200
_cell_length_c   12.87306000
_cell_angle_alpha   90.00000000
_cell_angle_beta   90.00000000
_cell_angle_gamma   90.00000000
_symmetry_Int_Tables_number   1
_chemical_formula_structural   AgBiI4
_chemical_formula_sum   'Ag4 Bi4 I16'
_cell_volume   1011.96971979
_cell_formula_units_Z   4
loop_
 _symmetry_equiv_pos_site_id
 _symmetry_equiv_pos_as_xyz
  1  'x, y, z'
loop_
 _atom_site_type_symbol
 _atom_site_label
 _atom_site_symmetry_multiplicity
 _atom_site_fract_x
 _atom_site_fract_y
 _atom_site_fract_z
 _atom_site_occupancy
  Ag  Ag0  1  0.25000000  0.75000000  0.75000000  1
  Ag  Ag1  1  0.75000000  0.75000000  0.75000000  1
  Ag  Ag2  1  0.75000000  0.25000000  0.25000000  1
  Ag  Ag3  1  0.25000000  0.25000000  0.25000000  1
  Bi  Bi4  1  0.00000000  0.00000000  0.00000000  1
  Bi  Bi5  1  0.00000000  0.50000000  0.00000000  1
  Bi  Bi6  1  0.50000000  0.50000000  0.50000000  1
  Bi  Bi7  1  0.50000000  0.00000000  0.50000000  1
  I  I8  1  0.50000000  0.98337800  0.74082400  1
  I  I9  1  0.50000000  0.51662200  0.74082400  1
  I  I10  1  0.25027200  0.25000000  0.99524000  1
  I  I11  1  0.74972800  0.25000000  0.99524000  1
  I  I12  1  0.75027200  0.25000000  0.50476000  1
  I  I13  1  0.00000000  0.98337800  0.75917600  1
  I  I14  1  0.24972800  0.25000000  0.50476000  1
  I  I15  1  0.00000000  0.51662200  0.75917600  1
  I  I16  1  0.00000000  0.48337800  0.24082400  1
  I  I17  1  0.00000000  0.01662200  0.24082400  1
  I  I18  1  0.75027200  0.75000000  0.49524000  1
  I  I19  1  0.24972800  0.75000000  0.49524000  1
  I  I20  1  0.25027200  0.75000000  0.00476000  1
  I  I21  1  0.50000000  0.48337800  0.25917600  1
  I  I22  1  0.74972800  0.75000000  0.00476000  1
  I  I23  1  0.50000000  0.01662200  0.25917600  1
