# generated using pymatgen
data_H4IN
_symmetry_space_group_name_H-M   'P 1'
_cell_length_a   5.04781600
_cell_length_b   5.28870600
_cell_length_c   7.30845000
_cell_angle_alpha   90.00000000
_cell_angle_beta   90.00000000
_cell_angle_gamma   90.00000000
_symmetry_Int_Tables_number   1
_chemical_formula_structural   H4IN
_chemical_formula_sum   'H8 I2 N2'
_cell_volume   195.10941250
_cell_formula_units_Z   2
loop_
 _symmetry_equiv_pos_site_id
 _symmetry_equiv_pos_as_xyz
  1  'x, y, z'
loop_
 _atom_site_type_symbol
 _atom_site_label
 _atom_site_symmetry_multiplicity
 _atom_site_fract_x
 _atom_site_fract_y
 _atom_site_fract_z
 _atom_site_occupancy
  H  H0  1  0.36989900  0.33976800  0.50000000  1
  H  H1  1  0.36989900  0.66023200  0.50000000  1
  H  H2  1  0.10594200  0.00000000  0.88328300  1
  H  H3  1  0.10594200  0.00000000  0.11671700  1
  H  H4  1  0.86989900  0.83976800  0.00000000  1
  H  H5  1  0.86989900  0.16023200  0.00000000  1
  H  H6  1  0.60594200  0.50000000  0.38328300  1
  H  H7  1  0.60594200  0.50000000  0.61671700  1
  I  I8  1  0.00841500  0.00000000  0.50000000  1
  I  I9  1  0.50841500  0.50000000  0.00000000  1
  N  N10  1  0.99090200  0.00000000  0.00000000  1
  N  N11  1  0.49090200  0.50000000  0.50000000  1
