# generated using pymatgen
data_SbIF10
_symmetry_space_group_name_H-M   'P 1'
_cell_length_a   8.38622200
_cell_length_b   8.45058000
_cell_length_c   21.34646000
_cell_angle_alpha   90.00000000
_cell_angle_beta   90.00000000
_cell_angle_gamma   90.00000000
_symmetry_Int_Tables_number   1
_chemical_formula_structural   SbIF10
_chemical_formula_sum   'Sb8 I8 F80'
_cell_volume   1512.79031777
_cell_formula_units_Z   8
loop_
 _symmetry_equiv_pos_site_id
 _symmetry_equiv_pos_as_xyz
  1  'x, y, z'
loop_
 _atom_site_type_symbol
 _atom_site_label
 _atom_site_symmetry_multiplicity
 _atom_site_fract_x
 _atom_site_fract_y
 _atom_site_fract_z
 _atom_site_occupancy
  Sb  Sb0  1  0.00000000  0.75000000  0.91399800  1
  Sb  Sb1  1  0.00000000  0.25000000  0.58600200  1
  Sb  Sb2  1  0.50000000  0.75000000  0.58600200  1
  Sb  Sb3  1  0.50000000  0.25000000  0.91399800  1
  Sb  Sb4  1  0.50000000  0.25000000  0.41399800  1
  Sb  Sb5  1  0.50000000  0.75000000  0.08600200  1
  Sb  Sb6  1  0.00000000  0.25000000  0.08600200  1
  Sb  Sb7  1  0.00000000  0.75000000  0.41399800  1
  I  I8  1  0.50000000  0.75000000  0.85047300  1
  I  I9  1  0.50000000  0.25000000  0.64952700  1
  I  I10  1  0.00000000  0.75000000  0.64952700  1
  I  I11  1  0.00000000  0.25000000  0.85047300  1
  I  I12  1  0.00000000  0.25000000  0.35047300  1
  I  I13  1  0.00000000  0.75000000  0.14952700  1
  I  I14  1  0.50000000  0.25000000  0.14952700  1
  I  I15  1  0.50000000  0.75000000  0.35047300  1
  F  F16  1  0.04355100  0.02507700  0.58502300  1
  F  F17  1  0.04355100  0.97492300  0.91497700  1
  F  F18  1  0.95644900  0.52507700  0.91497700  1
  F  F19  1  0.95644900  0.47492300  0.58502300  1
  F  F20  1  0.45644900  0.47492300  0.91497700  1
  F  F21  1  0.45644900  0.52507700  0.58502300  1
  F  F22  1  0.54355100  0.97492300  0.58502300  1
  F  F23  1  0.54355100  0.02507700  0.91497700  1
  F  F24  1  0.87857100  0.36804700  0.79534300  1
  F  F25  1  0.87857100  0.63195300  0.70465700  1
  F  F26  1  0.12142900  0.86804700  0.70465700  1
  F  F27  1  0.12142900  0.13195300  0.79534300  1
  F  F28  1  0.62142900  0.13195300  0.70465700  1
  F  F29  1  0.62142900  0.86804700  0.79534300  1
  F  F30  1  0.37857100  0.63195300  0.79534300  1
  F  F31  1  0.37857100  0.36804700  0.70465700  1
  F  F32  1  0.84701800  0.09495700  0.82747400  1
  F  F33  1  0.84701800  0.90504300  0.67252600  1
  F  F34  1  0.15298200  0.59495700  0.67252600  1
  F  F35  1  0.15298200  0.40504300  0.82747400  1
  F  F36  1  0.65298200  0.40504300  0.67252600  1
  F  F37  1  0.65298200  0.59495700  0.82747400  1
  F  F38  1  0.34701800  0.90504300  0.82747400  1
  F  F39  1  0.34701800  0.09495700  0.67252600  1
  F  F40  1  0.00000000  0.75000000  0.50302000  1
  F  F41  1  0.00000000  0.25000000  0.99698000  1
  F  F42  1  0.50000000  0.75000000  0.99698000  1
  F  F43  1  0.50000000  0.25000000  0.50302000  1
  F  F44  1  0.50000000  0.25000000  0.82514800  1
  F  F45  1  0.50000000  0.75000000  0.67485200  1
  F  F46  1  0.00000000  0.25000000  0.67485200  1
  F  F47  1  0.00000000  0.75000000  0.82514800  1
  F  F48  1  0.72709800  0.29293800  0.91461800  1
  F  F49  1  0.72709800  0.70706200  0.58538200  1
  F  F50  1  0.27290200  0.79293800  0.58538200  1
  F  F51  1  0.27290200  0.20706200  0.91461800  1
  F  F52  1  0.77290200  0.20706200  0.58538200  1
  F  F53  1  0.77290200  0.79293800  0.91461800  1
  F  F54  1  0.22709800  0.70706200  0.91461800  1
  F  F55  1  0.22709800  0.29293800  0.58538200  1
  F  F56  1  0.54355100  0.52507700  0.08502300  1
  F  F57  1  0.54355100  0.47492300  0.41497700  1
  F  F58  1  0.45644900  0.02507700  0.41497700  1
  F  F59  1  0.45644900  0.97492300  0.08502300  1
  F  F60  1  0.95644900  0.97492300  0.41497700  1
  F  F61  1  0.95644900  0.02507700  0.08502300  1
  F  F62  1  0.04355100  0.47492300  0.08502300  1
  F  F63  1  0.04355100  0.52507700  0.41497700  1
  F  F64  1  0.37857100  0.86804700  0.29534300  1
  F  F65  1  0.37857100  0.13195300  0.20465700  1
  F  F66  1  0.62142900  0.36804700  0.20465700  1
  F  F67  1  0.62142900  0.63195300  0.29534300  1
  F  F68  1  0.12142900  0.63195300  0.20465700  1
  F  F69  1  0.12142900  0.36804700  0.29534300  1
  F  F70  1  0.87857100  0.13195300  0.29534300  1
  F  F71  1  0.87857100  0.86804700  0.20465700  1
  F  F72  1  0.34701800  0.59495700  0.32747400  1
  F  F73  1  0.34701800  0.40504300  0.17252600  1
  F  F74  1  0.65298200  0.09495700  0.17252600  1
  F  F75  1  0.65298200  0.90504300  0.32747400  1
  F  F76  1  0.15298200  0.90504300  0.17252600  1
  F  F77  1  0.15298200  0.09495700  0.32747400  1
  F  F78  1  0.84701800  0.40504300  0.32747400  1
  F  F79  1  0.84701800  0.59495700  0.17252600  1
  F  F80  1  0.50000000  0.25000000  0.00302000  1
  F  F81  1  0.50000000  0.75000000  0.49698000  1
  F  F82  1  0.00000000  0.25000000  0.49698000  1
  F  F83  1  0.00000000  0.75000000  0.00302000  1
  F  F84  1  0.00000000  0.75000000  0.32514800  1
  F  F85  1  0.00000000  0.25000000  0.17485200  1
  F  F86  1  0.50000000  0.75000000  0.17485200  1
  F  F87  1  0.50000000  0.25000000  0.32514800  1
  F  F88  1  0.22709800  0.79293800  0.41461800  1
  F  F89  1  0.22709800  0.20706200  0.08538200  1
  F  F90  1  0.77290200  0.29293800  0.08538200  1
  F  F91  1  0.77290200  0.70706200  0.41461800  1
  F  F92  1  0.27290200  0.70706200  0.08538200  1
  F  F93  1  0.27290200  0.29293800  0.41461800  1
  F  F94  1  0.72709800  0.20706200  0.41461800  1
  F  F95  1  0.72709800  0.79293800  0.08538200  1
