# generated using pymatgen
data_H18SO12
_symmetry_space_group_name_H-M   'P 1'
_cell_length_a   10.52253800
_cell_length_b   10.52073000
_cell_length_c   11.99662520
_cell_angle_alpha   90.00000000
_cell_angle_beta   115.97169507
_cell_angle_gamma   90.00000000
_symmetry_Int_Tables_number   1
_chemical_formula_structural   H18SO12
_chemical_formula_sum   'H72 S4 O48'
_cell_volume   1193.96125022
_cell_formula_units_Z   4
loop_
 _symmetry_equiv_pos_site_id
 _symmetry_equiv_pos_as_xyz
  1  'x, y, z'
loop_
 _atom_site_type_symbol
 _atom_site_label
 _atom_site_symmetry_multiplicity
 _atom_site_fract_x
 _atom_site_fract_y
 _atom_site_fract_z
 _atom_site_occupancy
  H  H0  1  0.57907950  0.73581450  0.38726700  1
  H  H1  1  0.57907950  0.26418550  0.88726700  1
  H  H2  1  0.55258050  0.60575450  0.44663400  1
  H  H3  1  0.55258050  0.39424550  0.94663400  1
  H  H4  1  0.41716200  0.26038200  0.11257900  1
  H  H5  1  0.41716200  0.73961800  0.61257900  1
  H  H6  1  0.25747000  0.20437600  0.05320400  1
  H  H7  1  0.25747000  0.79562400  0.55320400  1
  H  H8  1  0.22859950  0.12520650  0.45808200  1
  H  H9  1  0.22859950  0.87479350  0.95808200  1
  H  H10  1  0.39390950  0.14366950  0.44658500  1
  H  H11  1  0.39390950  0.85633050  0.94658500  1
  H  H12  1  0.30727700  0.01369400  0.38793900  1
  H  H13  1  0.30727700  0.98630600  0.88793900  1
  H  H14  1  0.69500400  0.98827900  0.11234200  1
  H  H15  1  0.69500400  0.01172100  0.61234200  1
  H  H16  1  0.79567350  0.04576650  0.05367000  1
  H  H17  1  0.79567350  0.95423350  0.55367000  1
  H  H18  1  0.77133200  0.87490300  0.04197200  1
  H  H19  1  0.77133200  0.12509700  0.54197200  1
  H  H20  1  0.41334350  0.86162150  0.26244000  1
  H  H21  1  0.41334350  0.13837850  0.76244000  1
  H  H22  1  0.47182650  0.76362350  0.19367000  1
  H  H23  1  0.47182650  0.23637650  0.69367000  1
  H  H24  1  0.54168200  0.24995600  0.30632900  1
  H  H25  1  0.54168200  0.75004400  0.80632900  1
  H  H26  1  0.60644650  0.05881550  0.74594200  1
  H  H27  1  0.60644650  0.94118450  0.24594200  1
  H  H28  1  0.76402600  0.00272800  0.80686100  1
  H  H29  1  0.76402600  0.99727200  0.30686100  1
  H  H30  1  0.21893400  0.01438600  0.69323000  1
  H  H31  1  0.21893400  0.98561400  0.19323000  1
  H  H32  1  0.19324400  0.14156800  0.75409500  1
  H  H33  1  0.19324400  0.85843200  0.25409500  1
  H  H34  1  0.60540700  0.84287700  0.73762800  1
  H  H35  1  0.60540700  0.15712300  0.23762800  1
  H  H36  1  0.07907950  0.23581450  0.38726700  1
  H  H37  1  0.07907950  0.76418550  0.88726700  1
  H  H38  1  0.05258050  0.10575450  0.44663400  1
  H  H39  1  0.05258050  0.89424550  0.94663400  1
  H  H40  1  0.91716200  0.76038200  0.11257900  1
  H  H41  1  0.91716200  0.23961800  0.61257900  1
  H  H42  1  0.75747000  0.70437600  0.05320400  1
  H  H43  1  0.75747000  0.29562400  0.55320400  1
  H  H44  1  0.72859950  0.62520650  0.45808200  1
  H  H45  1  0.72859950  0.37479350  0.95808200  1
  H  H46  1  0.89390950  0.64366950  0.44658500  1
  H  H47  1  0.89390950  0.35633050  0.94658500  1
  H  H48  1  0.80727700  0.51369400  0.38793900  1
  H  H49  1  0.80727700  0.48630600  0.88793900  1
  H  H50  1  0.19500400  0.48827900  0.11234200  1
  H  H51  1  0.19500400  0.51172100  0.61234200  1
  H  H52  1  0.29567350  0.54576650  0.05367000  1
  H  H53  1  0.29567350  0.45423350  0.55367000  1
  H  H54  1  0.27133200  0.37490300  0.04197200  1
  H  H55  1  0.27133200  0.62509700  0.54197200  1
  H  H56  1  0.91334350  0.36162150  0.26244000  1
  H  H57  1  0.91334350  0.63837850  0.76244000  1
  H  H58  1  0.97182650  0.26362350  0.19367000  1
  H  H59  1  0.97182650  0.73637650  0.69367000  1
  H  H60  1  0.04168200  0.74995600  0.30632900  1
  H  H61  1  0.04168200  0.25004400  0.80632900  1
  H  H62  1  0.10644650  0.55881550  0.74594200  1
  H  H63  1  0.10644650  0.44118450  0.24594200  1
  H  H64  1  0.26402600  0.50272800  0.80686100  1
  H  H65  1  0.26402600  0.49727200  0.30686100  1
  H  H66  1  0.71893400  0.51438600  0.69323000  1
  H  H67  1  0.71893400  0.48561400  0.19323000  1
  H  H68  1  0.69324400  0.64156800  0.75409500  1
  H  H69  1  0.69324400  0.35843200  0.25409500  1
  H  H70  1  0.10540700  0.34287700  0.73762800  1
  H  H71  1  0.10540700  0.65712300  0.23762800  1
  S  S72  1  0.49983000  0.37483600  0.49997900  1
  S  S73  1  0.49983000  0.62516400  0.99997900  1
  S  S74  1  0.99983000  0.87483600  0.49997900  1
  S  S75  1  0.99983000  0.12516400  0.99997900  1
  O  O76  1  0.62472300  0.67395600  0.45904800  1
  O  O77  1  0.62472300  0.32604400  0.95904800  1
  O  O78  1  0.31953650  0.27022950  0.04079000  1
  O  O79  1  0.31953650  0.72977050  0.54079000  1
  O  O80  1  0.33409250  0.07581350  0.45938400  1
  O  O81  1  0.33409250  0.92418650  0.95938400  1
  O  O82  1  0.72149950  0.97947450  0.04089100  1
  O  O83  1  0.72149950  0.02052550  0.54089100  1
  O  O84  1  0.50214050  0.82400550  0.26474500  1
  O  O85  1  0.50214050  0.17599450  0.76474500  1
  O  O86  1  0.56662600  0.24477200  0.23529600  1
  O  O87  1  0.56662600  0.75522800  0.73529600  1
  O  O88  1  0.26466300  0.92616900  0.26453100  1
  O  O89  1  0.26466300  0.07383100  0.76453100  1
  O  O90  1  0.66899250  0.00736150  0.23550000  1
  O  O91  1  0.66899250  0.99263850  0.73550000  1
  O  O92  1  0.93809250  0.98922250  0.42077100  1
  O  O93  1  0.93809250  0.01077750  0.92077100  1
  O  O94  1  0.15377800  0.89711100  0.57906800  1
  O  O95  1  0.15377800  0.10288900  0.07906800  1
  O  O96  1  0.48244250  0.26031450  0.42091500  1
  O  O97  1  0.48244250  0.73968550  0.92091500  1
  O  O98  1  0.42497600  0.35280700  0.57921400  1
  O  O99  1  0.42497600  0.64719300  0.07921400  1
  O  O100  1  0.12472300  0.17395600  0.45904800  1
  O  O101  1  0.12472300  0.82604400  0.95904800  1
  O  O102  1  0.81953650  0.77022950  0.04079000  1
  O  O103  1  0.81953650  0.22977050  0.54079000  1
  O  O104  1  0.83409250  0.57581350  0.45938400  1
  O  O105  1  0.83409250  0.42418650  0.95938400  1
  O  O106  1  0.22149950  0.47947450  0.04089100  1
  O  O107  1  0.22149950  0.52052550  0.54089100  1
  O  O108  1  0.00214050  0.32400550  0.26474500  1
  O  O109  1  0.00214050  0.67599450  0.76474500  1
  O  O110  1  0.06662600  0.74477200  0.23529600  1
  O  O111  1  0.06662600  0.25522800  0.73529600  1
  O  O112  1  0.76466300  0.42616900  0.26453100  1
  O  O113  1  0.76466300  0.57383100  0.76453100  1
  O  O114  1  0.16899250  0.50736150  0.23550000  1
  O  O115  1  0.16899250  0.49263850  0.73550000  1
  O  O116  1  0.43809250  0.48922250  0.42077100  1
  O  O117  1  0.43809250  0.51077750  0.92077100  1
  O  O118  1  0.65377800  0.39711100  0.57906800  1
  O  O119  1  0.65377800  0.60288900  0.07906800  1
  O  O120  1  0.98244250  0.76031450  0.42091500  1
  O  O121  1  0.98244250  0.23968550  0.92091500  1
  O  O122  1  0.92497600  0.85280700  0.57921400  1
  O  O123  1  0.92497600  0.14719300  0.07921400  1
