# generated using pymatgen
data_Li2S
_symmetry_space_group_name_H-M   'P 1'
_cell_length_a   3.99635651
_cell_length_b   3.99635651
_cell_length_c   110.25330726
_cell_angle_alpha   90.00000000
_cell_angle_beta   90.00000000
_cell_angle_gamma   120.00000000
_symmetry_Int_Tables_number   1
_chemical_formula_structural   Li2S
_chemical_formula_sum   'Li66 S33'
_cell_volume   1524.93280241
_cell_formula_units_Z   33
loop_
 _symmetry_equiv_pos_site_id
 _symmetry_equiv_pos_as_xyz
  1  'x, y, z'
loop_
 _atom_site_type_symbol
 _atom_site_label
 _atom_site_symmetry_multiplicity
 _atom_site_fract_x
 _atom_site_fract_y
 _atom_site_fract_z
 _atom_site_occupancy
  Li  Li0  1  0.00000000  0.00000000  0.32071707  1
  Li  Li1  1  0.66666667  0.33333333  0.29005438  1
  Li  Li2  1  0.66666667  0.33333333  0.31095046  1
  Li  Li3  1  0.33333333  0.66666667  0.28094200  1
  Li  Li4  1  0.33333333  0.66666667  0.26076114  1
  Li  Li5  1  0.33333333  0.66666667  0.23390136  1
  Li  Li6  1  0.00000000  0.00000000  0.24945876  1
  Li  Li7  1  0.00000000  0.00000000  0.20436494  1
  Li  Li8  1  0.66666667  0.33333333  0.17423694  1
  Li  Li9  1  0.66666667  0.33333333  0.21955181  1
  Li  Li10  1  0.33333333  0.66666667  0.18939420  1
  Li  Li11  1  0.33333333  0.66666667  0.14396953  1
  Li  Li12  1  0.00000000  0.00000000  0.15923167  1
  Li  Li13  1  0.00000000  0.00000000  0.11367064  1
  Li  Li14  1  0.66666667  0.33333333  0.12895034  1
  Li  Li15  1  0.66666667  0.33333333  0.08335794  1
  Li  Li16  1  0.33333333  0.66666667  0.09864835  1
  Li  Li17  1  0.33333333  0.66666667  0.05298251  1
  Li  Li18  1  0.00000000  0.00000000  0.06833019  1
  Li  Li19  1  0.00000000  0.00000000  0.02192943  1
  Li  Li20  1  0.66666667  0.33333333  0.03783866  1
  Li  Li21  1  0.33333333  0.66666667  0.00816155  1
  Li  Li22  1  0.66666667  0.33333333  0.65405040  1
  Li  Li23  1  0.33333333  0.66666667  0.62338771  1
  Li  Li24  1  0.33333333  0.66666667  0.64428379  1
  Li  Li25  1  0.00000000  0.00000000  0.61427533  1
  Li  Li26  1  0.00000000  0.00000000  0.59409447  1
  Li  Li27  1  0.00000000  0.00000000  0.56723470  1
  Li  Li28  1  0.66666667  0.33333333  0.58279209  1
  Li  Li29  1  0.66666667  0.33333333  0.53769827  1
  Li  Li30  1  0.33333333  0.66666667  0.50757027  1
  Li  Li31  1  0.33333333  0.66666667  0.55288515  1
  Li  Li32  1  0.00000000  0.00000000  0.52272754  1
  Li  Li33  1  0.00000000  0.00000000  0.47730286  1
  Li  Li34  1  0.66666667  0.33333333  0.49256500  1
  Li  Li35  1  0.66666667  0.33333333  0.44700398  1
  Li  Li36  1  0.33333333  0.66666667  0.46228367  1
  Li  Li37  1  0.33333333  0.66666667  0.41669127  1
  Li  Li38  1  0.00000000  0.00000000  0.43198169  1
  Li  Li39  1  0.00000000  0.00000000  0.38631584  1
  Li  Li40  1  0.66666667  0.33333333  0.40166353  1
  Li  Li41  1  0.66666667  0.33333333  0.35526276  1
  Li  Li42  1  0.33333333  0.66666667  0.37117199  1
  Li  Li43  1  0.00000000  0.00000000  0.34149489  1
  Li  Li44  1  0.33333333  0.66666667  0.98738373  1
  Li  Li45  1  0.00000000  0.00000000  0.95672104  1
  Li  Li46  1  0.00000000  0.00000000  0.97761712  1
  Li  Li47  1  0.66666667  0.33333333  0.94760866  1
  Li  Li48  1  0.66666667  0.33333333  0.92742780  1
  Li  Li49  1  0.66666667  0.33333333  0.90056803  1
  Li  Li50  1  0.33333333  0.66666667  0.91612542  1
  Li  Li51  1  0.33333333  0.66666667  0.87103160  1
  Li  Li52  1  0.00000000  0.00000000  0.84090361  1
  Li  Li53  1  0.00000000  0.00000000  0.88621848  1
  Li  Li54  1  0.66666667  0.33333333  0.85606087  1
  Li  Li55  1  0.66666667  0.33333333  0.81063620  1
  Li  Li56  1  0.33333333  0.66666667  0.82589833  1
  Li  Li57  1  0.33333333  0.66666667  0.78033731  1
  Li  Li58  1  0.00000000  0.00000000  0.79561701  1
  Li  Li59  1  0.00000000  0.00000000  0.75002461  1
  Li  Li60  1  0.66666667  0.33333333  0.76531502  1
  Li  Li61  1  0.66666667  0.33333333  0.71964917  1
  Li  Li62  1  0.33333333  0.66666667  0.73499686  1
  Li  Li63  1  0.33333333  0.66666667  0.68859610  1
  Li  Li64  1  0.00000000  0.00000000  0.70450532  1
  Li  Li65  1  0.66666667  0.33333333  0.67482822  1
  S  S66  1  0.66666667  0.33333333  0.33232095  1
  S  S67  1  0.33333333  0.66666667  0.30199884  1
  S  S68  1  0.00000000  0.00000000  0.27163199  1
  S  S69  1  0.33333333  0.66666667  0.21203502  1
  S  S70  1  0.66666667  0.33333333  0.24220768  1
  S  S71  1  0.00000000  0.00000000  0.18203653  1
  S  S72  1  0.33333333  0.66666667  0.12152890  1
  S  S73  1  0.00000000  0.00000000  0.09122579  1
  S  S74  1  0.66666667  0.33333333  0.15182138  1
  S  S75  1  0.66666667  0.33333333  0.06087706  1
  S  S76  1  0.33333333  0.66666667  0.03041445  1
  S  S77  1  0.33333333  0.66666667  0.66565429  1
  S  S78  1  0.00000000  0.00000000  0.63533217  1
  S  S79  1  0.66666667  0.33333333  0.60496533  1
  S  S80  1  0.00000000  0.00000000  0.54536836  1
  S  S81  1  0.33333333  0.66666667  0.57554101  1
  S  S82  1  0.66666667  0.33333333  0.51536986  1
  S  S83  1  0.00000000  0.00000000  0.45486223  1
  S  S84  1  0.66666667  0.33333333  0.42455912  1
  S  S85  1  0.33333333  0.66666667  0.48515472  1
  S  S86  1  0.33333333  0.66666667  0.39421040  1
  S  S87  1  0.00000000  0.00000000  0.36374779  1
  S  S88  1  0.00000000  0.00000000  0.99898762  1
  S  S89  1  0.66666667  0.33333333  0.96866550  1
  S  S90  1  0.33333333  0.66666667  0.93829866  1
  S  S91  1  0.66666667  0.33333333  0.87870169  1
  S  S92  1  0.00000000  0.00000000  0.90887435  1
  S  S93  1  0.33333333  0.66666667  0.84870320  1
  S  S94  1  0.66666667  0.33333333  0.78819556  1
  S  S95  1  0.33333333  0.66666667  0.75789246  1
  S  S96  1  0.00000000  0.00000000  0.81848805  1
  S  S97  1  0.00000000  0.00000000  0.72754373  1
  S  S98  1  0.66666667  0.33333333  0.69708112  1
