# generated using pymatgen
data_Y7ReO14
_symmetry_space_group_name_H-M   'P 1'
_cell_length_a   7.57337900
_cell_length_b   7.63039800
_cell_length_c   10.67491300
_cell_angle_alpha   90.00000000
_cell_angle_beta   90.00000000
_cell_angle_gamma   90.00000000
_symmetry_Int_Tables_number   1
_chemical_formula_structural   Y7ReO14
_chemical_formula_sum   'Y14 Re2 O28'
_cell_volume   616.88076198
_cell_formula_units_Z   2
loop_
 _symmetry_equiv_pos_site_id
 _symmetry_equiv_pos_as_xyz
  1  'x, y, z'
loop_
 _atom_site_type_symbol
 _atom_site_label
 _atom_site_symmetry_multiplicity
 _atom_site_fract_x
 _atom_site_fract_y
 _atom_site_fract_z
 _atom_site_occupancy
  Y  Y0  1  0.00000000  0.00000000  0.00000000  1
  Y  Y1  1  0.50000000  0.50000000  0.50000000  1
  Y  Y2  1  0.50000000  0.00000000  0.00000000  1
  Y  Y3  1  0.73289400  0.25853500  0.23538300  1
  Y  Y4  1  0.00000000  0.50000000  0.50000000  1
  Y  Y5  1  0.23289400  0.24146500  0.73538300  1
  Y  Y6  1  0.26710600  0.25853500  0.23538300  1
  Y  Y7  1  0.26710600  0.74146500  0.76461700  1
  Y  Y8  1  0.50000000  0.00000000  0.50000000  1
  Y  Y9  1  0.76710600  0.75853500  0.26461700  1
  Y  Y10  1  0.73289400  0.74146500  0.76461700  1
  Y  Y11  1  0.76710600  0.24146500  0.73538300  1
  Y  Y12  1  0.00000000  0.50000000  0.00000000  1
  Y  Y13  1  0.23289400  0.75853500  0.26461700  1
  Re  Re14  1  0.50000000  0.50000000  0.00000000  1
  Re  Re15  1  0.00000000  0.00000000  0.50000000  1
  O  O16  1  0.50000000  0.23182100  0.36267200  1
  O  O17  1  0.76983500  0.51084900  0.63459300  1
  O  O18  1  0.00000000  0.26817900  0.86267200  1
  O  O19  1  0.00000000  0.22520500  0.58126500  1
  O  O20  1  0.00000000  0.72607600  0.86565900  1
  O  O21  1  0.23016500  0.51084900  0.63459300  1
  O  O22  1  0.26983500  0.98915100  0.13459300  1
  O  O23  1  0.26983500  0.01084900  0.86540700  1
  O  O24  1  0.32062600  0.56327200  0.11205400  1
  O  O25  1  0.32062600  0.43672800  0.88794600  1
  O  O26  1  0.50000000  0.72520500  0.91873500  1
  O  O27  1  0.50000000  0.22607600  0.63434100  1
  O  O28  1  0.50000000  0.77392400  0.36565900  1
  O  O29  1  0.50000000  0.27479500  0.08126500  1
  O  O30  1  0.67937400  0.43672800  0.88794600  1
  O  O31  1  0.67937400  0.56327200  0.11205400  1
  O  O32  1  0.73016500  0.98915100  0.13459300  1
  O  O33  1  0.73016500  0.01084900  0.86540700  1
  O  O34  1  0.76983500  0.48915100  0.36540700  1
  O  O35  1  0.82062600  0.93672800  0.61205400  1
  O  O36  1  0.82062600  0.06327200  0.38794600  1
  O  O37  1  0.00000000  0.27392400  0.13434100  1
  O  O38  1  0.00000000  0.73182100  0.13732800  1
  O  O39  1  0.00000000  0.77479500  0.41873500  1
  O  O40  1  0.17937400  0.06327200  0.38794600  1
  O  O41  1  0.17937400  0.93672800  0.61205400  1
  O  O42  1  0.23016500  0.48915100  0.36540700  1
  O  O43  1  0.50000000  0.76817900  0.63732800  1
