# generated using pymatgen
data_LiCrP2O7
_symmetry_space_group_name_H-M   'P 1'
_cell_length_a   8.60003711
_cell_length_b   13.38512722
_cell_length_c   10.48992003
_cell_angle_alpha   90.00000000
_cell_angle_beta   93.20224004
_cell_angle_gamma   90.00000000
_symmetry_Int_Tables_number   1
_chemical_formula_structural   LiCrP2O7
_chemical_formula_sum   'Li8 Cr8 P16 O56'
_cell_volume   1205.63642382
_cell_formula_units_Z   8
loop_
 _symmetry_equiv_pos_site_id
 _symmetry_equiv_pos_as_xyz
  1  'x, y, z'
loop_
 _atom_site_type_symbol
 _atom_site_label
 _atom_site_symmetry_multiplicity
 _atom_site_fract_x
 _atom_site_fract_y
 _atom_site_fract_z
 _atom_site_occupancy
  Li  Li0  1  0.50021637  0.22167271  0.99931651  1
  Li  Li1  1  0.49978363  0.77832729  0.00068349  1
  Li  Li2  1  0.50021637  0.77832729  0.49931651  1
  Li  Li3  1  0.49978363  0.22167271  0.50068349  1
  Li  Li4  1  0.00021637  0.72167271  0.99931651  1
  Li  Li5  1  0.99978363  0.27832729  0.00068349  1
  Li  Li6  1  0.00021637  0.27832729  0.49931651  1
  Li  Li7  1  0.99978363  0.72167271  0.50068349  1
  Cr  Cr8  1  0.32662412  0.00023147  0.90695824  1
  Cr  Cr9  1  0.32662412  0.99976853  0.40695824  1
  Cr  Cr10  1  0.67337588  0.00023147  0.59304176  1
  Cr  Cr11  1  0.67337588  0.99976853  0.09304176  1
  Cr  Cr12  1  0.82662412  0.50023147  0.90695824  1
  Cr  Cr13  1  0.82662412  0.49976853  0.40695824  1
  Cr  Cr14  1  0.17337588  0.50023147  0.59304176  1
  Cr  Cr15  1  0.17337588  0.49976853  0.09304176  1
  P  P16  1  0.21854140  0.10866470  0.14205313  1
  P  P17  1  0.78145860  0.89133530  0.85794687  1
  P  P18  1  0.21261116  0.10573482  0.64109171  1
  P  P19  1  0.21261116  0.89426518  0.14109171  1
  P  P20  1  0.78145860  0.10866470  0.35794687  1
  P  P21  1  0.78738884  0.10573482  0.85890829  1
  P  P22  1  0.78738884  0.89426518  0.35890829  1
  P  P23  1  0.21854140  0.89133530  0.64205313  1
  P  P24  1  0.71854140  0.60866470  0.14205313  1
  P  P25  1  0.28145860  0.39133530  0.85794687  1
  P  P26  1  0.71261116  0.60573481  0.64109171  1
  P  P27  1  0.71261116  0.39426518  0.14109171  1
  P  P28  1  0.28145860  0.60866470  0.35794687  1
  P  P29  1  0.28738884  0.60573481  0.85890829  1
  P  P30  1  0.28738884  0.39426518  0.35890829  1
  P  P31  1  0.71854140  0.39133530  0.64205313  1
  O  O32  1  0.65132308  0.10206057  0.45898596  1
  O  O33  1  0.59953944  0.68770177  0.61840527  1
  O  O34  1  0.39024547  0.69310684  0.37934000  1
  O  O35  1  0.40046056  0.68770177  0.88159473  1
  O  O36  1  0.59953944  0.31229823  0.11840527  1
  O  O37  1  0.60975453  0.30689316  0.62066000  1
  O  O38  1  0.40046056  0.31229823  0.38159473  1
  O  O39  1  0.39024547  0.30689316  0.87934000  1
  O  O40  1  0.70221912  0.09989660  0.22288904  1
  O  O41  1  0.70901514  0.09875408  0.72323538  1
  O  O42  1  0.65632931  0.10216080  0.95925366  1
  O  O43  1  0.70901514  0.90124592  0.22323538  1
  O  O44  1  0.87553108  0.00246636  0.38128707  1
  O  O45  1  0.87553108  0.99753364  0.88128707  1
  O  O46  1  0.34867692  0.10206057  0.04101404  1
  O  O47  1  0.29778088  0.90010340  0.77711096  1
  O  O48  1  0.29778088  0.09989660  0.27711096  1
  O  O49  1  0.29098486  0.09875408  0.77676462  1
  O  O50  1  0.60975453  0.69310684  0.12066000  1
  O  O51  1  0.70221912  0.90010340  0.72288904  1
  O  O52  1  0.65632931  0.89783920  0.45925366  1
  O  O53  1  0.65132308  0.89793943  0.95898596  1
  O  O54  1  0.12446892  0.00246636  0.11871293  1
  O  O55  1  0.12446892  0.99753364  0.61871293  1
  O  O56  1  0.34867692  0.89793943  0.54101404  1
  O  O57  1  0.34367069  0.89783920  0.04074634  1
  O  O58  1  0.29098486  0.90124592  0.27676462  1
  O  O59  1  0.34367069  0.10216080  0.54074634  1
  O  O60  1  0.15132308  0.60206057  0.45898596  1
  O  O61  1  0.09953944  0.18770177  0.61840527  1
  O  O62  1  0.89024547  0.19310684  0.37934000  1
  O  O63  1  0.90046056  0.18770177  0.88159473  1
  O  O64  1  0.09953944  0.81229823  0.11840527  1
  O  O65  1  0.10975453  0.80689316  0.62066000  1
  O  O66  1  0.90046056  0.81229823  0.38159473  1
  O  O67  1  0.89024547  0.80689316  0.87934000  1
  O  O68  1  0.20221912  0.59989660  0.22288904  1
  O  O69  1  0.20901514  0.59875408  0.72323538  1
  O  O70  1  0.15632931  0.60216081  0.95925366  1
  O  O71  1  0.20901514  0.40124592  0.22323538  1
  O  O72  1  0.37553108  0.50246637  0.38128707  1
  O  O73  1  0.37553108  0.49753364  0.88128707  1
  O  O74  1  0.84867692  0.60206057  0.04101404  1
  O  O75  1  0.79778088  0.40010340  0.77711096  1
  O  O76  1  0.79778088  0.59989660  0.27711096  1
  O  O77  1  0.79098486  0.59875408  0.77676462  1
  O  O78  1  0.10975453  0.19310684  0.12066000  1
  O  O79  1  0.20221912  0.40010340  0.72288904  1
  O  O80  1  0.15632931  0.39783920  0.45925366  1
  O  O81  1  0.15132308  0.39793943  0.95898596  1
  O  O82  1  0.62446892  0.50246637  0.11871293  1
  O  O83  1  0.62446892  0.49753364  0.61871293  1
  O  O84  1  0.84867692  0.39793943  0.54101404  1
  O  O85  1  0.84367069  0.39783920  0.04074634  1
  O  O86  1  0.79098486  0.40124592  0.27676462  1
  O  O87  1  0.84367069  0.60216081  0.54074634  1
