# generated using pymatgen
data_Ba2CuF6
_symmetry_space_group_name_H-M   'P 1'
_cell_length_a   5.93630800
_cell_length_b   16.01979200
_cell_length_c   6.06865500
_cell_angle_alpha   90.00000000
_cell_angle_beta   90.00000000
_cell_angle_gamma   90.00000000
_symmetry_Int_Tables_number   1
_chemical_formula_structural   Ba2CuF6
_chemical_formula_sum   'Ba8 Cu4 F24'
_cell_volume   577.11949843
_cell_formula_units_Z   4
loop_
 _symmetry_equiv_pos_site_id
 _symmetry_equiv_pos_as_xyz
  1  'x, y, z'
loop_
 _atom_site_type_symbol
 _atom_site_label
 _atom_site_symmetry_multiplicity
 _atom_site_fract_x
 _atom_site_fract_y
 _atom_site_fract_z
 _atom_site_occupancy
  Ba  Ba0  1  0.00000000  0.65111000  0.50000000  1
  Ba  Ba1  1  0.00000000  0.84889000  0.00000000  1
  Ba  Ba2  1  0.50000000  0.84889000  0.50000000  1
  Ba  Ba3  1  0.50000000  0.65111000  0.00000000  1
  Ba  Ba4  1  0.50000000  0.15111000  0.50000000  1
  Ba  Ba5  1  0.50000000  0.34889000  0.00000000  1
  Ba  Ba6  1  0.00000000  0.34889000  0.50000000  1
  Ba  Ba7  1  0.00000000  0.15111000  0.00000000  1
  Cu  Cu8  1  0.00000000  0.00000000  0.50000000  1
  Cu  Cu9  1  0.50000000  0.00000000  0.00000000  1
  Cu  Cu10  1  0.50000000  0.50000000  0.50000000  1
  Cu  Cu11  1  0.00000000  0.50000000  0.00000000  1
  F  F12  1  0.00000000  0.88138900  0.50000000  1
  F  F13  1  0.00000000  0.61861100  0.00000000  1
  F  F14  1  0.50000000  0.61861100  0.50000000  1
  F  F15  1  0.50000000  0.88138900  0.00000000  1
  F  F16  1  0.28890500  0.00000000  0.34283000  1
  F  F17  1  0.21109500  0.00000000  0.84283000  1
  F  F18  1  0.75221400  0.75000000  0.75000000  1
  F  F19  1  0.24778600  0.75000000  0.25000000  1
  F  F20  1  0.74778600  0.75000000  0.25000000  1
  F  F21  1  0.25221400  0.75000000  0.75000000  1
  F  F22  1  0.71109500  0.00000000  0.65717000  1
  F  F23  1  0.78890500  0.00000000  0.15717000  1
  F  F24  1  0.50000000  0.38138900  0.50000000  1
  F  F25  1  0.50000000  0.11861100  0.00000000  1
  F  F26  1  0.00000000  0.11861100  0.50000000  1
  F  F27  1  0.00000000  0.38138900  0.00000000  1
  F  F28  1  0.78890500  0.50000000  0.34283000  1
  F  F29  1  0.71109500  0.50000000  0.84283000  1
  F  F30  1  0.25221400  0.25000000  0.75000000  1
  F  F31  1  0.74778600  0.25000000  0.25000000  1
  F  F32  1  0.24778600  0.25000000  0.25000000  1
  F  F33  1  0.75221400  0.25000000  0.75000000  1
  F  F34  1  0.21109500  0.50000000  0.65717000  1
  F  F35  1  0.28890500  0.50000000  0.15717000  1
