# generated using pymatgen
data_TiZn2O4
_symmetry_space_group_name_H-M   'P 1'
_cell_length_a   5.97185400
_cell_length_b   6.02377800
_cell_length_c   8.74092200
_cell_angle_alpha   90.00000000
_cell_angle_beta   90.00000000
_cell_angle_gamma   90.00000000
_symmetry_Int_Tables_number   1
_chemical_formula_structural   TiZn2O4
_chemical_formula_sum   'Ti4 Zn8 O16'
_cell_volume   314.43826001
_cell_formula_units_Z   4
loop_
 _symmetry_equiv_pos_site_id
 _symmetry_equiv_pos_as_xyz
  1  'x, y, z'
loop_
 _atom_site_type_symbol
 _atom_site_label
 _atom_site_symmetry_multiplicity
 _atom_site_fract_x
 _atom_site_fract_y
 _atom_site_fract_z
 _atom_site_occupancy
  Ti  Ti0  1  0.50000000  0.00000000  0.00000000  1
  Ti  Ti1  1  0.50000000  0.50000000  0.00000000  1
  Ti  Ti2  1  0.00000000  0.50000000  0.50000000  1
  Ti  Ti3  1  0.00000000  0.00000000  0.50000000  1
  Zn  Zn4  1  0.50000000  0.75000000  0.63895500  1
  Zn  Zn5  1  0.75000000  0.25000000  0.75000000  1
  Zn  Zn6  1  0.25000000  0.25000000  0.75000000  1
  Zn  Zn7  1  0.00000000  0.75000000  0.86104500  1
  Zn  Zn8  1  0.00000000  0.25000000  0.13895500  1
  Zn  Zn9  1  0.25000000  0.75000000  0.25000000  1
  Zn  Zn10  1  0.75000000  0.75000000  0.25000000  1
  Zn  Zn11  1  0.50000000  0.25000000  0.36104500  1
  O  O12  1  0.50000000  0.01368400  0.77527700  1
  O  O13  1  0.50000000  0.48631600  0.77527700  1
  O  O14  1  0.77696400  0.75000000  0.50409000  1
  O  O15  1  0.22303600  0.75000000  0.50409000  1
  O  O16  1  0.27696400  0.75000000  0.99591000  1
  O  O17  1  0.72303600  0.75000000  0.99591000  1
  O  O18  1  0.00000000  0.01368400  0.72472300  1
  O  O19  1  0.00000000  0.48631600  0.72472300  1
  O  O20  1  0.00000000  0.51368400  0.27527700  1
  O  O21  1  0.00000000  0.98631600  0.27527700  1
  O  O22  1  0.27696400  0.25000000  0.00409000  1
  O  O23  1  0.72303600  0.25000000  0.00409000  1
  O  O24  1  0.77696400  0.25000000  0.49591000  1
  O  O25  1  0.22303600  0.25000000  0.49591000  1
  O  O26  1  0.50000000  0.51368400  0.22472300  1
  O  O27  1  0.50000000  0.98631600  0.22472300  1
