# generated using pymatgen
data_Nd2Se3
_symmetry_space_group_name_H-M   'P 1'
_cell_length_a   8.94854800
_cell_length_b   8.94854800
_cell_length_c   26.81066600
_cell_angle_alpha   90.00000000
_cell_angle_beta   90.00000000
_cell_angle_gamma   90.00000000
_symmetry_Int_Tables_number   1
_chemical_formula_structural   Nd2Se3
_chemical_formula_sum   'Nd32 Se48'
_cell_volume   2146.90459913
_cell_formula_units_Z   16
loop_
 _symmetry_equiv_pos_site_id
 _symmetry_equiv_pos_as_xyz
  1  'x, y, z'
loop_
 _atom_site_type_symbol
 _atom_site_label
 _atom_site_symmetry_multiplicity
 _atom_site_fract_x
 _atom_site_fract_y
 _atom_site_fract_z
 _atom_site_occupancy
  Nd  Nd0  1  0.24250550  0.13413750  0.21013850  1
  Nd  Nd1  1  0.75749450  0.86586250  0.21013850  1
  Nd  Nd2  1  0.50000000  0.50000000  0.16668300  1
  Nd  Nd3  1  0.88032900  0.25000000  0.12500000  1
  Nd  Nd4  1  0.50000000  0.00000000  0.08331700  1
  Nd  Nd5  1  0.75749450  0.63413750  0.03986150  1
  Nd  Nd6  1  0.11967100  0.75000000  0.12500000  1
  Nd  Nd7  1  0.24250550  0.36586250  0.03986150  1
  Nd  Nd8  1  0.86586250  0.25749450  0.46013850  1
  Nd  Nd9  1  0.50000000  0.00000000  0.41668300  1
  Nd  Nd10  1  0.75000000  0.61967100  0.37500000  1
  Nd  Nd11  1  0.25000000  0.38032900  0.37500000  1
  Nd  Nd12  1  0.13413750  0.74250550  0.46013850  1
  Nd  Nd13  1  0.00000000  0.00000000  0.33331700  1
  Nd  Nd14  1  0.36586250  0.74250550  0.28986150  1
  Nd  Nd15  1  0.63413750  0.25749450  0.28986150  1
  Nd  Nd16  1  0.74250550  0.63413750  0.71013850  1
  Nd  Nd17  1  0.25749450  0.36586250  0.71013850  1
  Nd  Nd18  1  0.00000000  0.00000000  0.66668300  1
  Nd  Nd19  1  0.38032900  0.75000000  0.62500000  1
  Nd  Nd20  1  0.00000000  0.50000000  0.58331700  1
  Nd  Nd21  1  0.25749450  0.13413750  0.53986150  1
  Nd  Nd22  1  0.61967100  0.25000000  0.62500000  1
  Nd  Nd23  1  0.74250550  0.86586250  0.53986150  1
  Nd  Nd24  1  0.36586250  0.75749450  0.96013850  1
  Nd  Nd25  1  0.00000000  0.50000000  0.91668300  1
  Nd  Nd26  1  0.25000000  0.11967100  0.87500000  1
  Nd  Nd27  1  0.75000000  0.88032900  0.87500000  1
  Nd  Nd28  1  0.63413750  0.24250550  0.96013850  1
  Nd  Nd29  1  0.50000000  0.50000000  0.83331700  1
  Nd  Nd30  1  0.86586250  0.24250550  0.78986150  1
  Nd  Nd31  1  0.13413750  0.75749450  0.78986150  1
  Se  Se32  1  0.17971350  0.42643150  0.14636950  1
  Se  Se33  1  0.57244650  0.17464150  0.18298950  1
  Se  Se34  1  0.57244650  0.32535850  0.06701050  1
  Se  Se35  1  0.42755350  0.82535850  0.18298950  1
  Se  Se36  1  0.42755350  0.67464150  0.06701050  1
  Se  Se37  1  0.17971350  0.07356850  0.10363050  1
  Se  Se38  1  0.82028650  0.57356850  0.14636950  1
  Se  Se39  1  0.82028650  0.92643150  0.10363050  1
  Se  Se40  1  0.17189200  0.41956500  0.48391700  1
  Se  Se41  1  0.08043500  0.67189200  0.01608300  1
  Se  Se42  1  0.57356850  0.32028650  0.39636950  1
  Se  Se43  1  0.91956500  0.32810800  0.01608300  1
  Se  Se44  1  0.42643150  0.67971350  0.39636950  1
  Se  Se45  1  0.82810800  0.58043500  0.48391700  1
  Se  Se46  1  0.17464150  0.07244650  0.43298950  1
  Se  Se47  1  0.82535850  0.92755350  0.43298950  1
  Se  Se48  1  0.67464150  0.92755350  0.31701050  1
  Se  Se49  1  0.07356850  0.67971350  0.35363050  1
  Se  Se50  1  0.08043500  0.82810800  0.23391700  1
  Se  Se51  1  0.92643150  0.32028650  0.35363050  1
  Se  Se52  1  0.91956500  0.17189200  0.23391700  1
  Se  Se53  1  0.67189200  0.58043500  0.26608300  1
  Se  Se54  1  0.32535850  0.07244650  0.31701050  1
  Se  Se55  1  0.32810800  0.41956500  0.26608300  1
  Se  Se56  1  0.67971350  0.92643150  0.64636950  1
  Se  Se57  1  0.07244650  0.67464150  0.68298950  1
  Se  Se58  1  0.07244650  0.82535850  0.56701050  1
  Se  Se59  1  0.92755350  0.32535850  0.68298950  1
  Se  Se60  1  0.92755350  0.17464150  0.56701050  1
  Se  Se61  1  0.67971350  0.57356850  0.60363050  1
  Se  Se62  1  0.32028650  0.07356850  0.64636950  1
  Se  Se63  1  0.32028650  0.42643150  0.60363050  1
  Se  Se64  1  0.67189200  0.91956500  0.98391700  1
  Se  Se65  1  0.58043500  0.17189200  0.51608300  1
  Se  Se66  1  0.07356850  0.82028650  0.89636950  1
  Se  Se67  1  0.41956500  0.82810800  0.51608300  1
  Se  Se68  1  0.92643150  0.17971350  0.89636950  1
  Se  Se69  1  0.32810800  0.08043500  0.98391700  1
  Se  Se70  1  0.67464150  0.57244650  0.93298950  1
  Se  Se71  1  0.32535850  0.42755350  0.93298950  1
  Se  Se72  1  0.17464150  0.42755350  0.81701050  1
  Se  Se73  1  0.57356850  0.17971350  0.85363050  1
  Se  Se74  1  0.58043500  0.32810800  0.73391700  1
  Se  Se75  1  0.42643150  0.82028650  0.85363050  1
  Se  Se76  1  0.41956500  0.67189200  0.73391700  1
  Se  Se77  1  0.17189200  0.08043500  0.76608300  1
  Se  Se78  1  0.82535850  0.57244650  0.81701050  1
  Se  Se79  1  0.82810800  0.91956500  0.76608300  1
