# generated using pymatgen
data_Pr5AgSe8
_symmetry_space_group_name_H-M   'P 1'
_cell_length_a   8.95648400
_cell_length_b   8.95648400
_cell_length_c   9.09417800
_cell_angle_alpha   90.00000000
_cell_angle_beta   90.00000000
_cell_angle_gamma   90.00000000
_symmetry_Int_Tables_number   1
_chemical_formula_structural   Pr5AgSe8
_chemical_formula_sum   'Pr10 Ag2 Se16'
_cell_volume   729.52227862
_cell_formula_units_Z   2
loop_
 _symmetry_equiv_pos_site_id
 _symmetry_equiv_pos_as_xyz
  1  'x, y, z'
loop_
 _atom_site_type_symbol
 _atom_site_label
 _atom_site_symmetry_multiplicity
 _atom_site_fract_x
 _atom_site_fract_y
 _atom_site_fract_z
 _atom_site_occupancy
  Pr  Pr0  1  0.63120800  0.24781300  0.13036100  1
  Pr  Pr1  1  0.25218700  0.13120800  0.36963900  1
  Pr  Pr2  1  0.86879200  0.25218700  0.63036100  1
  Pr  Pr3  1  0.24781300  0.36879200  0.86963900  1
  Pr  Pr4  1  0.00000000  0.50000000  0.25000000  1
  Pr  Pr5  1  0.13120800  0.74781300  0.63036100  1
  Pr  Pr6  1  0.75218700  0.63120800  0.86963900  1
  Pr  Pr7  1  0.36879200  0.75218700  0.13036100  1
  Pr  Pr8  1  0.74781300  0.86879200  0.36963900  1
  Pr  Pr9  1  0.50000000  0.00000000  0.75000000  1
  Ag  Ag10  1  0.00000000  0.00000000  0.00000000  1
  Ag  Ag11  1  0.50000000  0.50000000  0.50000000  1
  Se  Se12  1  0.42985100  0.81834300  0.45371200  1
  Se  Se13  1  0.18165700  0.42985100  0.54628800  1
  Se  Se14  1  0.31866550  0.42362850  0.18605150  1
  Se  Se15  1  0.92362850  0.18133450  0.31394850  1
  Se  Se16  1  0.57637150  0.31866550  0.81394850  1
  Se  Se17  1  0.31834300  0.07014900  0.04628800  1
  Se  Se18  1  0.07014900  0.68165700  0.95371200  1
  Se  Se19  1  0.18133450  0.07637150  0.68605150  1
  Se  Se20  1  0.92985100  0.31834300  0.95371200  1
  Se  Se21  1  0.68165700  0.92985100  0.04628800  1
  Se  Se22  1  0.81866550  0.92362850  0.68605150  1
  Se  Se23  1  0.42362850  0.68133450  0.81394850  1
  Se  Se24  1  0.07637150  0.81866550  0.31394850  1
  Se  Se25  1  0.81834300  0.57014900  0.54628800  1
  Se  Se26  1  0.57014900  0.18165700  0.45371200  1
  Se  Se27  1  0.68133450  0.57637150  0.18605150  1
