# generated using pymatgen
data_Cs2PdCl4
_symmetry_space_group_name_H-M   'P 1'
_cell_length_a   10.79568000
_cell_length_b   10.80083400
_cell_length_c   9.48393600
_cell_angle_alpha   90.00000000
_cell_angle_beta   90.00000000
_cell_angle_gamma   90.00000000
_symmetry_Int_Tables_number   1
_chemical_formula_structural   Cs2PdCl4
_chemical_formula_sum   'Cs8 Pd4 Cl16'
_cell_volume   1105.84920206
_cell_formula_units_Z   4
loop_
 _symmetry_equiv_pos_site_id
 _symmetry_equiv_pos_as_xyz
  1  'x, y, z'
loop_
 _atom_site_type_symbol
 _atom_site_label
 _atom_site_symmetry_multiplicity
 _atom_site_fract_x
 _atom_site_fract_y
 _atom_site_fract_z
 _atom_site_occupancy
  Cs  Cs0  1  0.25135700  0.24544200  0.75000000  1
  Cs  Cs1  1  0.74864300  0.75455800  0.25000000  1
  Cs  Cs2  1  0.25135700  0.75455800  0.75000000  1
  Cs  Cs3  1  0.74864300  0.24544200  0.25000000  1
  Cs  Cs4  1  0.75135700  0.74544200  0.75000000  1
  Cs  Cs5  1  0.24864300  0.25455800  0.25000000  1
  Cs  Cs6  1  0.75135700  0.25455800  0.75000000  1
  Cs  Cs7  1  0.24864300  0.74544200  0.25000000  1
  Pd  Pd8  1  0.00000000  0.00000000  0.50000000  1
  Pd  Pd9  1  0.00000000  0.00000000  0.00000000  1
  Pd  Pd10  1  0.50000000  0.50000000  0.50000000  1
  Pd  Pd11  1  0.50000000  0.50000000  0.00000000  1
  Cl  Cl12  1  0.78367700  0.00000000  0.99372600  1
  Cl  Cl13  1  0.21632300  0.00000000  0.49372600  1
  Cl  Cl14  1  0.78367700  0.00000000  0.50627400  1
  Cl  Cl15  1  0.21632300  0.00000000  0.00627400  1
  Cl  Cl16  1  0.50000000  0.28371900  0.50000000  1
  Cl  Cl17  1  0.50000000  0.71628100  0.00000000  1
  Cl  Cl18  1  0.50000000  0.28371900  0.00000000  1
  Cl  Cl19  1  0.50000000  0.71628100  0.50000000  1
  Cl  Cl20  1  0.28367700  0.50000000  0.99372600  1
  Cl  Cl21  1  0.71632300  0.50000000  0.49372600  1
  Cl  Cl22  1  0.28367700  0.50000000  0.50627400  1
  Cl  Cl23  1  0.71632300  0.50000000  0.00627400  1
  Cl  Cl24  1  0.00000000  0.78371900  0.50000000  1
  Cl  Cl25  1  0.00000000  0.21628100  0.00000000  1
  Cl  Cl26  1  0.00000000  0.78371900  0.00000000  1
  Cl  Cl27  1  0.00000000  0.21628100  0.50000000  1
