# generated using pymatgen
data_BaPdCl4
_symmetry_space_group_name_H-M   'P 1'
_cell_length_a   7.00128800
_cell_length_b   7.75587700
_cell_length_c   12.68317300
_cell_angle_alpha   90.00000000
_cell_angle_beta   90.00000000
_cell_angle_gamma   90.00000000
_symmetry_Int_Tables_number   1
_chemical_formula_structural   BaPdCl4
_chemical_formula_sum   'Ba4 Pd4 Cl16'
_cell_volume   688.71060774
_cell_formula_units_Z   4
loop_
 _symmetry_equiv_pos_site_id
 _symmetry_equiv_pos_as_xyz
  1  'x, y, z'
loop_
 _atom_site_type_symbol
 _atom_site_label
 _atom_site_symmetry_multiplicity
 _atom_site_fract_x
 _atom_site_fract_y
 _atom_site_fract_z
 _atom_site_occupancy
  Ba  Ba0  1  0.50000000  0.75000000  0.85252300  1
  Ba  Ba1  1  0.00000000  0.25000000  0.64747700  1
  Ba  Ba2  1  0.50000000  0.25000000  0.14747700  1
  Ba  Ba3  1  0.00000000  0.75000000  0.35252300  1
  Pd  Pd4  1  0.00000000  0.50000000  0.00000000  1
  Pd  Pd5  1  0.50000000  0.50000000  0.50000000  1
  Pd  Pd6  1  0.50000000  0.00000000  0.50000000  1
  Pd  Pd7  1  0.00000000  0.00000000  0.00000000  1
  Cl  Cl8  1  0.88842300  0.47149900  0.17254100  1
  Cl  Cl9  1  0.38842300  0.52850100  0.32745900  1
  Cl  Cl10  1  0.61157700  0.97149900  0.32745900  1
  Cl  Cl11  1  0.11157700  0.02850100  0.17254100  1
  Cl  Cl12  1  0.11157700  0.52850100  0.82745900  1
  Cl  Cl13  1  0.61157700  0.47149900  0.67254100  1
  Cl  Cl14  1  0.38842300  0.02850100  0.67254100  1
  Cl  Cl15  1  0.88842300  0.97149900  0.82745900  1
  Cl  Cl16  1  0.79403700  0.90424800  0.56284000  1
  Cl  Cl17  1  0.29403700  0.09575200  0.93716000  1
  Cl  Cl18  1  0.70596300  0.40424800  0.93716000  1
  Cl  Cl19  1  0.20596300  0.59575200  0.56284000  1
  Cl  Cl20  1  0.20596300  0.09575200  0.43716000  1
  Cl  Cl21  1  0.70596300  0.90424800  0.06284000  1
  Cl  Cl22  1  0.29403700  0.59575200  0.06284000  1
  Cl  Cl23  1  0.79403700  0.40424800  0.43716000  1
