# generated using pymatgen
data_YOF
_symmetry_space_group_name_H-M   'P 1'
_cell_length_a   3.83576639
_cell_length_b   3.83576639
_cell_length_c   19.16325707
_cell_angle_alpha   90.00000000
_cell_angle_beta   90.00000000
_cell_angle_gamma   120.00000000
_symmetry_Int_Tables_number   1
_chemical_formula_structural   YOF
_chemical_formula_sum   'Y6 O6 F6'
_cell_volume   244.17672051
_cell_formula_units_Z   6
loop_
 _symmetry_equiv_pos_site_id
 _symmetry_equiv_pos_as_xyz
  1  'x, y, z'
loop_
 _atom_site_type_symbol
 _atom_site_label
 _atom_site_symmetry_multiplicity
 _atom_site_fract_x
 _atom_site_fract_y
 _atom_site_fract_z
 _atom_site_occupancy
  Y  Y0  1  0.00000000  0.00000000  0.25903500  1
  Y  Y1  1  0.66666667  0.33333333  0.07429833  1
  Y  Y2  1  0.66666667  0.33333333  0.59236833  1
  Y  Y3  1  0.33333333  0.66666667  0.40763167  1
  Y  Y4  1  0.33333333  0.66666667  0.92570167  1
  Y  Y5  1  0.00000000  0.00000000  0.74096500  1
  O  O6  1  0.33333333  0.66666667  0.04501167  1
  O  O7  1  0.33333333  0.66666667  0.28832167  1
  O  O8  1  0.00000000  0.00000000  0.37834500  1
  O  O9  1  0.00000000  0.00000000  0.62165500  1
  O  O10  1  0.66666667  0.33333333  0.71167833  1
  O  O11  1  0.66666667  0.33333333  0.95498833  1
  F  F12  1  0.66666667  0.33333333  0.20326433  1
  F  F13  1  0.00000000  0.00000000  0.13006900  1
  F  F14  1  0.33333333  0.66666667  0.53659767  1
  F  F15  1  0.66666667  0.33333333  0.46340233  1
  F  F16  1  0.00000000  0.00000000  0.86993100  1
  F  F17  1  0.33333333  0.66666667  0.79673567  1
