# generated using pymatgen
data_Zn(FeO2)2
_symmetry_space_group_name_H-M   'P 1'
_cell_length_a   6.06594075
_cell_length_b   6.06594075
_cell_length_c   14.85353300
_cell_angle_alpha   90.00000000
_cell_angle_beta   90.00000000
_cell_angle_gamma   120.00000000
_symmetry_Int_Tables_number   1
_chemical_formula_structural   Zn(FeO2)2
_chemical_formula_sum   'Zn6 Fe12 O24'
_cell_volume   473.32203665
_cell_formula_units_Z   6
loop_
 _symmetry_equiv_pos_site_id
 _symmetry_equiv_pos_as_xyz
  1  'x, y, z'
loop_
 _atom_site_type_symbol
 _atom_site_label
 _atom_site_symmetry_multiplicity
 _atom_site_fract_x
 _atom_site_fract_y
 _atom_site_fract_z
 _atom_site_occupancy
  Zn  Zn0  1  0.00000000  0.00000000  0.95566600  1
  Zn  Zn1  1  0.33333333  0.66666667  0.62143400  1
  Zn  Zn2  1  0.66666667  0.33333333  0.66526300  1
  Zn  Zn3  1  0.66666667  0.33333333  0.29196700  1
  Zn  Zn4  1  0.33333333  0.66666667  0.99923900  1
  Zn  Zn5  1  0.33333333  0.66666667  0.37701000  1
  Fe  Fe6  1  0.49720300  0.50279700  0.83381200  1
  Fe  Fe7  1  0.49720300  0.99440600  0.83381200  1
  Fe  Fe8  1  0.83131600  0.16868400  0.50082500  1
  Fe  Fe9  1  0.00559400  0.50279700  0.83381200  1
  Fe  Fe10  1  0.83131600  0.66263200  0.50082500  1
  Fe  Fe11  1  0.00000000  0.00000000  0.33560800  1
  Fe  Fe12  1  0.00000000  0.00000000  0.71162900  1
  Fe  Fe13  1  0.16555000  0.83445000  0.16753800  1
  Fe  Fe14  1  0.33736800  0.16868400  0.50082500  1
  Fe  Fe15  1  0.16555000  0.33110000  0.16753800  1
  Fe  Fe16  1  0.66890000  0.83445000  0.16753800  1
  Fe  Fe17  1  0.66666667  0.33333333  0.04291600  1
  O  O18  1  0.17808800  0.82191200  0.90944100  1
  O  O19  1  0.33333333  0.66666667  0.75839000  1
  O  O20  1  0.17808800  0.35617600  0.90944100  1
  O  O21  1  0.64382400  0.82191200  0.90944100  1
  O  O22  1  0.51087700  0.48912300  0.57524300  1
  O  O23  1  0.34894000  0.17447000  0.75582800  1
  O  O24  1  0.66666667  0.33333333  0.42539700  1
  O  O25  1  0.82553000  0.65106000  0.75582800  1
  O  O26  1  0.66666667  0.33333333  0.91056500  1
  O  O27  1  0.51087700  0.02175400  0.57524300  1
  O  O28  1  0.97824600  0.48912300  0.57524300  1
  O  O29  1  0.82553000  0.17447000  0.75582800  1
  O  O30  1  0.84758500  0.15241500  0.24635000  1
  O  O31  1  0.69650000  0.84825000  0.41998600  1
  O  O32  1  0.15175000  0.30350000  0.41998600  1
  O  O33  1  0.00000000  0.00000000  0.09283200  1
  O  O34  1  0.00000000  0.00000000  0.57923200  1
  O  O35  1  0.84758500  0.69517000  0.24635000  1
  O  O36  1  0.30483000  0.15241500  0.24635000  1
  O  O37  1  0.15175000  0.84825000  0.41998600  1
  O  O38  1  0.01240700  0.50620350  0.08903400  1
  O  O39  1  0.49379650  0.98759300  0.08903400  1
  O  O40  1  0.33333333  0.66666667  0.23850000  1
  O  O41  1  0.49379650  0.50620350  0.08903400  1
