# generated using pymatgen
data_BPO4
_symmetry_space_group_name_H-M   'P 1'
_cell_length_a   4.44199400
_cell_length_b   4.44199400
_cell_length_c   6.70984000
_cell_angle_alpha   90.00000000
_cell_angle_beta   90.00000000
_cell_angle_gamma   90.00000000
_symmetry_Int_Tables_number   1
_chemical_formula_structural   BPO4
_chemical_formula_sum   'B2 P2 O8'
_cell_volume   132.39393776
_cell_formula_units_Z   2
loop_
 _symmetry_equiv_pos_site_id
 _symmetry_equiv_pos_as_xyz
  1  'x, y, z'
loop_
 _atom_site_type_symbol
 _atom_site_label
 _atom_site_symmetry_multiplicity
 _atom_site_fract_x
 _atom_site_fract_y
 _atom_site_fract_z
 _atom_site_occupancy
  B  B0  1  0.50000000  0.00000000  0.25000000  1
  B  B1  1  0.00000000  0.50000000  0.75000000  1
  P  P2  1  0.00000000  0.00000000  0.00000000  1
  P  P3  1  0.50000000  0.50000000  0.50000000  1
  O  O4  1  0.25843050  0.13048150  0.12687550  1
  O  O5  1  0.63048150  0.24156950  0.37312450  1
  O  O6  1  0.74156950  0.86951850  0.12687550  1
  O  O7  1  0.36951850  0.75843050  0.37312450  1
  O  O8  1  0.75843050  0.63048150  0.62687550  1
  O  O9  1  0.13048150  0.74156950  0.87312450  1
  O  O10  1  0.24156950  0.36951850  0.62687550  1
  O  O11  1  0.86951850  0.25843050  0.87312450  1
