# generated using pymatgen
data_Nd4Se3N2
_symmetry_space_group_name_H-M   'P 1'
_cell_length_a   13.17946400
_cell_length_b   10.22888000
_cell_length_c   6.49910548
_cell_angle_alpha   90.00000000
_cell_angle_beta   90.20222946
_cell_angle_gamma   90.00000000
_symmetry_Int_Tables_number   1
_chemical_formula_structural   Nd4Se3N2
_chemical_formula_sum   'Nd16 Se12 N8'
_cell_volume   876.14646375
_cell_formula_units_Z   4
loop_
 _symmetry_equiv_pos_site_id
 _symmetry_equiv_pos_as_xyz
  1  'x, y, z'
loop_
 _atom_site_type_symbol
 _atom_site_label
 _atom_site_symmetry_multiplicity
 _atom_site_fract_x
 _atom_site_fract_y
 _atom_site_fract_z
 _atom_site_occupancy
  Nd  Nd0  1  0.83489100  0.92049800  0.57216400  1
  Nd  Nd1  1  0.16510900  0.92049800  0.92783600  1
  Nd  Nd2  1  0.16510900  0.07950200  0.42783600  1
  Nd  Nd3  1  0.83489100  0.07950200  0.07216400  1
  Nd  Nd4  1  0.37325150  0.81616950  0.52988400  1
  Nd  Nd5  1  0.62674850  0.81616950  0.97011600  1
  Nd  Nd6  1  0.62674850  0.18383050  0.47011600  1
  Nd  Nd7  1  0.37325150  0.18383050  0.02988400  1
  Nd  Nd8  1  0.33489100  0.42049800  0.57216400  1
  Nd  Nd9  1  0.66510900  0.42049800  0.92783600  1
  Nd  Nd10  1  0.66510900  0.57950200  0.42783600  1
  Nd  Nd11  1  0.33489100  0.57950200  0.07216400  1
  Nd  Nd12  1  0.87325150  0.31616950  0.52988400  1
  Nd  Nd13  1  0.12674850  0.31616950  0.97011600  1
  Nd  Nd14  1  0.12674850  0.68383050  0.47011600  1
  Nd  Nd15  1  0.87325150  0.68383050  0.02988400  1
  Se  Se16  1  0.38477950  0.86875150  0.03531800  1
  Se  Se17  1  0.50000000  0.40337200  0.25000000  1
  Se  Se18  1  0.61522050  0.86875150  0.46468200  1
  Se  Se19  1  0.61522050  0.13124850  0.96468200  1
  Se  Se20  1  0.50000000  0.59662800  0.75000000  1
  Se  Se21  1  0.38477950  0.13124850  0.53531800  1
  Se  Se22  1  0.88477950  0.36875150  0.03531800  1
  Se  Se23  1  0.00000000  0.90337200  0.25000000  1
  Se  Se24  1  0.11522050  0.36875150  0.46468200  1
  Se  Se25  1  0.11522050  0.63124850  0.96468200  1
  Se  Se26  1  0.00000000  0.09662800  0.75000000  1
  Se  Se27  1  0.88477950  0.63124850  0.53531800  1
  N  N28  1  0.79437200  0.12379600  0.41476700  1
  N  N29  1  0.79437200  0.87620400  0.91476700  1
  N  N30  1  0.20562800  0.87620400  0.58523300  1
  N  N31  1  0.20562800  0.12379600  0.08523300  1
  N  N32  1  0.29437200  0.62379600  0.41476700  1
  N  N33  1  0.29437200  0.37620400  0.91476700  1
  N  N34  1  0.70562800  0.37620400  0.58523300  1
  N  N35  1  0.70562800  0.62379600  0.08523300  1
