# generated using pymatgen
data_LiMn(PO3)4
_symmetry_space_group_name_H-M   'P 1'
_cell_length_a   7.27137800
_cell_length_b   9.30121900
_cell_length_c   7.56878237
_cell_angle_alpha   90.00000000
_cell_angle_beta   109.27710623
_cell_angle_gamma   90.00000000
_symmetry_Int_Tables_number   1
_chemical_formula_structural   LiMn(PO3)4
_chemical_formula_sum   'Li2 Mn2 P8 O24'
_cell_volume   483.19646890
_cell_formula_units_Z   2
loop_
 _symmetry_equiv_pos_site_id
 _symmetry_equiv_pos_as_xyz
  1  'x, y, z'
loop_
 _atom_site_type_symbol
 _atom_site_label
 _atom_site_symmetry_multiplicity
 _atom_site_fract_x
 _atom_site_fract_y
 _atom_site_fract_z
 _atom_site_occupancy
  Li  Li0  1  0.62567700  0.33793500  0.41663700  1
  Li  Li1  1  0.37432300  0.83793500  0.58336300  1
  Mn  Mn2  1  0.24572200  0.49823300  0.24614100  1
  Mn  Mn3  1  0.75427800  0.99823300  0.75385900  1
  P  P4  1  0.90509400  0.20611500  0.12373200  1
  P  P5  1  0.39594700  0.29376100  0.63128600  1
  P  P6  1  0.60405300  0.79376100  0.36871400  1
  P  P7  1  0.04813200  0.08944700  0.51892600  1
  P  P8  1  0.09490600  0.70611500  0.87626800  1
  P  P9  1  0.55843300  0.41545800  0.01922100  1
  P  P10  1  0.44156700  0.91545800  0.98077900  1
  P  P11  1  0.95186800  0.58944700  0.48107400  1
  O  O12  1  0.44500900  0.40157300  0.15779800  1
  O  O13  1  0.59889900  0.87180200  0.18135800  1
  O  O14  1  0.89982200  0.08723200  0.98638200  1
  O  O15  1  0.10017800  0.58723200  0.01361800  1
  O  O16  1  0.33589300  0.04879000  0.98878100  1
  O  O17  1  0.16078900  0.95649100  0.51903100  1
  O  O18  1  0.44313400  0.68797700  0.34659000  1
  O  O19  1  0.90477300  0.12737200  0.31285900  1
  O  O20  1  0.93633500  0.81375600  0.83786600  1
  O  O21  1  0.83921100  0.45649100  0.48096900  1
  O  O22  1  0.09522700  0.62737200  0.68714100  1
  O  O23  1  0.66410700  0.54879000  0.01121900  1
  O  O24  1  0.08225400  0.60005700  0.36268900  1
  O  O25  1  0.60097400  0.90847200  0.51276400  1
  O  O26  1  0.91774600  0.10005700  0.63731100  1
  O  O27  1  0.39902600  0.40847200  0.48723600  1
  O  O28  1  0.30938700  0.77203400  0.93643800  1
  O  O29  1  0.81724500  0.73020400  0.43200200  1
  O  O30  1  0.55499100  0.90157300  0.84220200  1
  O  O31  1  0.06366500  0.31375600  0.16213400  1
  O  O32  1  0.18275500  0.23020400  0.56799800  1
  O  O33  1  0.69061300  0.27203400  0.06356200  1
  O  O34  1  0.55686600  0.18797700  0.65341000  1
  O  O35  1  0.40110100  0.37180200  0.81864200  1
