# generated using pymatgen
data_LaGaO3
_symmetry_space_group_name_H-M   'P 1'
_cell_length_a   5.59482389
_cell_length_b   5.59482389
_cell_length_c   13.46038349
_cell_angle_alpha   90.00000000
_cell_angle_beta   90.00000000
_cell_angle_gamma   120.00000000
_symmetry_Int_Tables_number   1
_chemical_formula_structural   LaGaO3
_chemical_formula_sum   'La6 Ga6 O18'
_cell_volume   364.88911326
_cell_formula_units_Z   6
loop_
 _symmetry_equiv_pos_site_id
 _symmetry_equiv_pos_as_xyz
  1  'x, y, z'
loop_
 _atom_site_type_symbol
 _atom_site_label
 _atom_site_symmetry_multiplicity
 _atom_site_fract_x
 _atom_site_fract_y
 _atom_site_fract_z
 _atom_site_occupancy
  La  La0  1  0.33333333  0.66666667  0.91666667  1
  La  La1  1  0.33333333  0.66666667  0.41666667  1
  La  La2  1  0.00000000  0.00000000  0.25000000  1
  La  La3  1  0.00000000  0.00000000  0.75000000  1
  La  La4  1  0.66666667  0.33333333  0.58333333  1
  La  La5  1  0.66666667  0.33333333  0.08333333  1
  Ga  Ga6  1  0.00000000  0.00000000  0.00000000  1
  Ga  Ga7  1  0.33333333  0.66666667  0.16666667  1
  Ga  Ga8  1  0.66666667  0.33333333  0.33333333  1
  Ga  Ga9  1  0.00000000  0.00000000  0.50000000  1
  Ga  Ga10  1  0.33333333  0.66666667  0.66666667  1
  Ga  Ga11  1  0.66666667  0.33333333  0.83333333  1
  O  O12  1  0.66666667  0.76418633  0.08333333  1
  O  O13  1  0.23581367  0.90248033  0.08333333  1
  O  O14  1  0.09751967  0.33333333  0.08333333  1
  O  O15  1  0.00000000  0.56914700  0.25000000  1
  O  O16  1  0.56914700  0.00000000  0.25000000  1
  O  O17  1  0.43085300  0.43085300  0.25000000  1
  O  O18  1  0.33333333  0.09751967  0.41666667  1
  O  O19  1  0.90248033  0.23581367  0.41666667  1
  O  O20  1  0.76418633  0.66666667  0.41666667  1
  O  O21  1  0.66666667  0.90248033  0.58333333  1
  O  O22  1  0.23581367  0.33333333  0.58333333  1
  O  O23  1  0.09751967  0.76418633  0.58333333  1
  O  O24  1  0.00000000  0.43085300  0.75000000  1
  O  O25  1  0.56914700  0.56914700  0.75000000  1
  O  O26  1  0.43085300  0.00000000  0.75000000  1
  O  O27  1  0.33333333  0.23581367  0.91666667  1
  O  O28  1  0.90248033  0.66666667  0.91666667  1
  O  O29  1  0.76418633  0.09751967  0.91666667  1
