# generated using pymatgen
data_KRb2ZrOF5
_symmetry_space_group_name_H-M   'P 1'
_cell_length_a   6.56986000
_cell_length_b   6.56986000
_cell_length_c   9.38240600
_cell_angle_alpha   90.00000000
_cell_angle_beta   90.00000000
_cell_angle_gamma   90.00000000
_symmetry_Int_Tables_number   1
_chemical_formula_structural   KRb2ZrOF5
_chemical_formula_sum   'K2 Rb4 Zr2 O2 F10'
_cell_volume   404.97335706
_cell_formula_units_Z   2
loop_
 _symmetry_equiv_pos_site_id
 _symmetry_equiv_pos_as_xyz
  1  'x, y, z'
loop_
 _atom_site_type_symbol
 _atom_site_label
 _atom_site_symmetry_multiplicity
 _atom_site_fract_x
 _atom_site_fract_y
 _atom_site_fract_z
 _atom_site_occupancy
  K  K0  1  0.00000000  0.00000000  0.49824500  1
  K  K1  1  0.50000000  0.50000000  0.99824500  1
  Rb  Rb2  1  0.00000000  0.50000000  0.25339100  1
  Rb  Rb3  1  0.50000000  0.00000000  0.25339100  1
  Rb  Rb4  1  0.50000000  0.00000000  0.75339100  1
  Rb  Rb5  1  0.00000000  0.50000000  0.75339100  1
  Zr  Zr6  1  0.00000000  0.00000000  0.01845300  1
  Zr  Zr7  1  0.50000000  0.50000000  0.51845300  1
  O  O8  1  0.00000000  0.00000000  0.21958100  1
  O  O9  1  0.50000000  0.50000000  0.71958100  1
  F  F10  1  0.27585500  0.72414500  0.49445900  1
  F  F11  1  0.72414500  0.72414500  0.49445900  1
  F  F12  1  0.27585500  0.27585500  0.49445900  1
  F  F13  1  0.72414500  0.27585500  0.49445900  1
  F  F14  1  0.50000000  0.50000000  0.27910300  1
  F  F15  1  0.77585500  0.22414500  0.99445900  1
  F  F16  1  0.22414500  0.22414500  0.99445900  1
  F  F17  1  0.77585500  0.77585500  0.99445900  1
  F  F18  1  0.22414500  0.77585500  0.99445900  1
  F  F19  1  0.00000000  0.00000000  0.77910300  1
