# generated using pymatgen
data_Ba(CuTe)2
_symmetry_space_group_name_H-M   'P 1'
_cell_length_a   4.46979400
_cell_length_b   10.13981300
_cell_length_c   11.55934500
_cell_angle_alpha   90.00000000
_cell_angle_beta   90.00000000
_cell_angle_gamma   90.00000000
_symmetry_Int_Tables_number   1
_chemical_formula_structural   Ba(CuTe)2
_chemical_formula_sum   'Ba4 Cu8 Te8'
_cell_volume   523.90275208
_cell_formula_units_Z   4
loop_
 _symmetry_equiv_pos_site_id
 _symmetry_equiv_pos_as_xyz
  1  'x, y, z'
loop_
 _atom_site_type_symbol
 _atom_site_label
 _atom_site_symmetry_multiplicity
 _atom_site_fract_x
 _atom_site_fract_y
 _atom_site_fract_z
 _atom_site_occupancy
  Ba  Ba0  1  0.75000000  0.75780000  0.17814800  1
  Ba  Ba1  1  0.25000000  0.24220000  0.82185200  1
  Ba  Ba2  1  0.75000000  0.25780000  0.32185200  1
  Ba  Ba3  1  0.25000000  0.74220000  0.67814800  1
  Cu  Cu4  1  0.25000000  0.07457500  0.54417200  1
  Cu  Cu5  1  0.75000000  0.92542500  0.45582800  1
  Cu  Cu6  1  0.75000000  0.42542500  0.04417200  1
  Cu  Cu7  1  0.25000000  0.57457500  0.95582800  1
  Cu  Cu8  1  0.75000000  0.94362300  0.88717000  1
  Cu  Cu9  1  0.25000000  0.05637700  0.11283000  1
  Cu  Cu10  1  0.75000000  0.44362300  0.61283000  1
  Cu  Cu11  1  0.25000000  0.55637700  0.38717000  1
  Te  Te12  1  0.25000000  0.83956000  0.96229100  1
  Te  Te13  1  0.75000000  0.16044000  0.03770900  1
  Te  Te14  1  0.75000000  0.66044000  0.46229100  1
  Te  Te15  1  0.25000000  0.33956000  0.53770900  1
  Te  Te16  1  0.75000000  0.52317400  0.83025400  1
  Te  Te17  1  0.25000000  0.47682600  0.16974600  1
  Te  Te18  1  0.75000000  0.02317400  0.66974600  1
  Te  Te19  1  0.25000000  0.97682600  0.33025400  1
