# generated using pymatgen
data_Na4Ge9O20
_symmetry_space_group_name_H-M   'P 1'
_cell_length_a   15.24871000
_cell_length_b   15.24871000
_cell_length_c   7.51088200
_cell_angle_alpha   90.00000000
_cell_angle_beta   90.00000000
_cell_angle_gamma   90.00000000
_symmetry_Int_Tables_number   1
_chemical_formula_structural   Na4Ge9O20
_chemical_formula_sum   'Na16 Ge36 O80'
_cell_volume   1746.45399197
_cell_formula_units_Z   4
loop_
 _symmetry_equiv_pos_site_id
 _symmetry_equiv_pos_as_xyz
  1  'x, y, z'
loop_
 _atom_site_type_symbol
 _atom_site_label
 _atom_site_symmetry_multiplicity
 _atom_site_fract_x
 _atom_site_fract_y
 _atom_site_fract_z
 _atom_site_occupancy
  Na  Na0  1  0.58658100  0.19444800  0.20523700  1
  Na  Na1  1  0.19444800  0.91341900  0.95523700  1
  Na  Na2  1  0.80555200  0.08658100  0.95523700  1
  Na  Na3  1  0.41341900  0.80555200  0.20523700  1
  Na  Na4  1  0.41341900  0.30555200  0.54476300  1
  Na  Na5  1  0.30555200  0.08658100  0.29476300  1
  Na  Na6  1  0.69444800  0.91341900  0.29476300  1
  Na  Na7  1  0.58658100  0.69444800  0.54476300  1
  Na  Na8  1  0.08658100  0.69444800  0.70523700  1
  Na  Na9  1  0.69444800  0.41341900  0.45523700  1
  Na  Na10  1  0.30555200  0.58658100  0.45523700  1
  Na  Na11  1  0.91341900  0.30555200  0.70523700  1
  Na  Na12  1  0.91341900  0.80555200  0.04476300  1
  Na  Na13  1  0.80555200  0.58658100  0.79476300  1
  Na  Na14  1  0.19444800  0.41341900  0.79476300  1
  Na  Na15  1  0.08658100  0.19444800  0.04476300  1
  Ge  Ge16  1  0.63720750  0.70301550  0.07525750  1
  Ge  Ge17  1  0.70301550  0.86279250  0.82525750  1
  Ge  Ge18  1  0.29698450  0.13720750  0.82525750  1
  Ge  Ge19  1  0.36279250  0.29698450  0.07525750  1
  Ge  Ge20  1  0.36279250  0.79698450  0.67474250  1
  Ge  Ge21  1  0.79698450  0.13720750  0.42474250  1
  Ge  Ge22  1  0.20301550  0.86279250  0.42474250  1
  Ge  Ge23  1  0.63720750  0.20301550  0.67474250  1
  Ge  Ge24  1  0.00000000  0.00000000  0.00000000  1
  Ge  Ge25  1  0.50000000  0.00000000  0.25000000  1
  Ge  Ge26  1  0.59536600  0.03161800  0.88427900  1
  Ge  Ge27  1  0.53161800  0.40463400  0.13427900  1
  Ge  Ge28  1  0.46838200  0.59536600  0.13427900  1
  Ge  Ge29  1  0.40463400  0.96838200  0.88427900  1
  Ge  Ge30  1  0.90463400  0.96838200  0.36572100  1
  Ge  Ge31  1  0.46838200  0.09536600  0.61572100  1
  Ge  Ge32  1  0.53161800  0.90463400  0.61572100  1
  Ge  Ge33  1  0.09536600  0.03161800  0.36572100  1
  Ge  Ge34  1  0.13720750  0.20301550  0.57525750  1
  Ge  Ge35  1  0.20301550  0.36279250  0.32525750  1
  Ge  Ge36  1  0.79698450  0.63720750  0.32525750  1
  Ge  Ge37  1  0.86279250  0.79698450  0.57525750  1
  Ge  Ge38  1  0.86279250  0.29698450  0.17474250  1
  Ge  Ge39  1  0.29698450  0.63720750  0.92474250  1
  Ge  Ge40  1  0.70301550  0.36279250  0.92474250  1
  Ge  Ge41  1  0.13720750  0.70301550  0.17474250  1
  Ge  Ge42  1  0.50000000  0.50000000  0.50000000  1
  Ge  Ge43  1  0.00000000  0.50000000  0.75000000  1
  Ge  Ge44  1  0.09536600  0.53161800  0.38427900  1
  Ge  Ge45  1  0.03161800  0.90463400  0.63427900  1
  Ge  Ge46  1  0.96838200  0.09536600  0.63427900  1
  Ge  Ge47  1  0.90463400  0.46838200  0.38427900  1
  Ge  Ge48  1  0.40463400  0.46838200  0.86572100  1
  Ge  Ge49  1  0.96838200  0.59536600  0.11572100  1
  Ge  Ge50  1  0.03161800  0.40463400  0.11572100  1
  Ge  Ge51  1  0.59536600  0.53161800  0.86572100  1
  O  O52  1  0.15509650  0.14112650  0.37911950  1
  O  O53  1  0.64112650  0.84490350  0.62911950  1
  O  O54  1  0.35887350  0.15509650  0.62911950  1
  O  O55  1  0.84490350  0.85887350  0.37911950  1
  O  O56  1  0.34490350  0.85887350  0.87088050  1
  O  O57  1  0.35887350  0.65509650  0.12088050  1
  O  O58  1  0.64112650  0.34490350  0.12088050  1
  O  O59  1  0.65509650  0.14112650  0.87088050  1
  O  O60  1  0.52571550  0.70463750  0.13440850  1
  O  O61  1  0.70463750  0.97428450  0.88440850  1
  O  O62  1  0.29536250  0.02571550  0.88440850  1
  O  O63  1  0.47428450  0.29536250  0.13440850  1
  O  O64  1  0.47428450  0.79536250  0.61559150  1
  O  O65  1  0.79536250  0.02571550  0.36559150  1
  O  O66  1  0.20463750  0.97428450  0.36559150  1
  O  O67  1  0.52571550  0.20463750  0.61559150  1
  O  O68  1  0.18926650  0.17760150  0.78375150  1
  O  O69  1  0.67760150  0.81073350  0.03375150  1
  O  O70  1  0.32239850  0.18926650  0.03375150  1
  O  O71  1  0.81073350  0.82239850  0.78375150  1
  O  O72  1  0.31073350  0.82239850  0.46624850  1
  O  O73  1  0.32239850  0.68926650  0.71624850  1
  O  O74  1  0.67760150  0.31073350  0.71624850  1
  O  O75  1  0.68926650  0.17760150  0.46624850  1
  O  O76  1  0.08040600  0.02757500  0.62199500  1
  O  O77  1  0.52757500  0.91959400  0.87199500  1
  O  O78  1  0.59263000  0.03869000  0.13123600  1
  O  O79  1  0.53869000  0.40737000  0.38123600  1
  O  O80  1  0.46131000  0.59263000  0.38123600  1
  O  O81  1  0.40737000  0.96131000  0.13123600  1
  O  O82  1  0.90737000  0.96131000  0.11876400  1
  O  O83  1  0.46131000  0.09263000  0.36876400  1
  O  O84  1  0.53869000  0.90737000  0.36876400  1
  O  O85  1  0.09263000  0.03869000  0.11876400  1
  O  O86  1  0.58040600  0.02757500  0.62800500  1
  O  O87  1  0.52757500  0.41959400  0.87800500  1
  O  O88  1  0.47242500  0.58040600  0.87800500  1
  O  O89  1  0.41959400  0.97242500  0.62800500  1
  O  O90  1  0.91959400  0.97242500  0.62199500  1
  O  O91  1  0.47242500  0.08040600  0.87199500  1
  O  O92  1  0.65509650  0.64112650  0.87911950  1
  O  O93  1  0.14112650  0.34490350  0.12911950  1
  O  O94  1  0.85887350  0.65509650  0.12911950  1
  O  O95  1  0.34490350  0.35887350  0.87911950  1
  O  O96  1  0.84490350  0.35887350  0.37088050  1
  O  O97  1  0.85887350  0.15509650  0.62088050  1
  O  O98  1  0.14112650  0.84490350  0.62088050  1
  O  O99  1  0.15509650  0.64112650  0.37088050  1
  O  O100  1  0.02571550  0.20463750  0.63440850  1
  O  O101  1  0.20463750  0.47428450  0.38440850  1
  O  O102  1  0.79536250  0.52571550  0.38440850  1
  O  O103  1  0.97428450  0.79536250  0.63440850  1
  O  O104  1  0.97428450  0.29536250  0.11559150  1
  O  O105  1  0.29536250  0.52571550  0.86559150  1
  O  O106  1  0.70463750  0.47428450  0.86559150  1
  O  O107  1  0.02571550  0.70463750  0.11559150  1
  O  O108  1  0.68926650  0.67760150  0.28375150  1
  O  O109  1  0.17760150  0.31073350  0.53375150  1
  O  O110  1  0.82239850  0.68926650  0.53375150  1
  O  O111  1  0.31073350  0.32239850  0.28375150  1
  O  O112  1  0.81073350  0.32239850  0.96624850  1
  O  O113  1  0.82239850  0.18926650  0.21624850  1
  O  O114  1  0.17760150  0.81073350  0.21624850  1
  O  O115  1  0.18926650  0.67760150  0.96624850  1
  O  O116  1  0.58040600  0.52757500  0.12199500  1
  O  O117  1  0.02757500  0.41959400  0.37199500  1
  O  O118  1  0.09263000  0.53869000  0.63123600  1
  O  O119  1  0.03869000  0.90737000  0.88123600  1
  O  O120  1  0.96131000  0.09263000  0.88123600  1
  O  O121  1  0.90737000  0.46131000  0.63123600  1
  O  O122  1  0.40737000  0.46131000  0.61876400  1
  O  O123  1  0.96131000  0.59263000  0.86876400  1
  O  O124  1  0.03869000  0.40737000  0.86876400  1
  O  O125  1  0.59263000  0.53869000  0.61876400  1
  O  O126  1  0.08040600  0.52757500  0.12800500  1
  O  O127  1  0.02757500  0.91959400  0.37800500  1
  O  O128  1  0.97242500  0.08040600  0.37800500  1
  O  O129  1  0.91959400  0.47242500  0.12800500  1
  O  O130  1  0.41959400  0.47242500  0.12199500  1
  O  O131  1  0.97242500  0.58040600  0.37199500  1
