# generated using pymatgen
data_Ca(PrTe2)2
_symmetry_space_group_name_H-M   'P 1'
_cell_length_a   9.58271600
_cell_length_b   9.58271600
_cell_length_c   9.67722000
_cell_angle_alpha   90.00000000
_cell_angle_beta   90.00000000
_cell_angle_gamma   90.00000000
_symmetry_Int_Tables_number   1
_chemical_formula_structural   Ca(PrTe2)2
_chemical_formula_sum   'Ca4 Pr8 Te16'
_cell_volume   888.64407359
_cell_formula_units_Z   4
loop_
 _symmetry_equiv_pos_site_id
 _symmetry_equiv_pos_as_xyz
  1  'x, y, z'
loop_
 _atom_site_type_symbol
 _atom_site_label
 _atom_site_symmetry_multiplicity
 _atom_site_fract_x
 _atom_site_fract_y
 _atom_site_fract_z
 _atom_site_occupancy
  Ca  Ca0  1  0.00000000  0.50000000  0.25000000  1
  Ca  Ca1  1  0.00000000  0.00000000  0.00000000  1
  Ca  Ca2  1  0.50000000  0.00000000  0.75000000  1
  Ca  Ca3  1  0.50000000  0.50000000  0.50000000  1
  Pr  Pr4  1  0.25000000  0.62573400  0.87500000  1
  Pr  Pr5  1  0.12573400  0.25000000  0.62500000  1
  Pr  Pr6  1  0.25000000  0.87426600  0.37500000  1
  Pr  Pr7  1  0.37426600  0.25000000  0.12500000  1
  Pr  Pr8  1  0.75000000  0.12573400  0.37500000  1
  Pr  Pr9  1  0.62573400  0.75000000  0.12500000  1
  Pr  Pr10  1  0.75000000  0.37426600  0.87500000  1
  Pr  Pr11  1  0.87426600  0.75000000  0.62500000  1
  Te  Te12  1  0.82325100  0.42455000  0.55163300  1
  Te  Te13  1  0.07545000  0.17674900  0.30163300  1
  Te  Te14  1  0.42455000  0.17674900  0.44836700  1
  Te  Te15  1  0.42455000  0.32325100  0.80163300  1
  Te  Te16  1  0.32325100  0.57545000  0.19836700  1
  Te  Te17  1  0.17674900  0.92455000  0.69836700  1
  Te  Te18  1  0.07545000  0.32325100  0.94836700  1
  Te  Te19  1  0.67674900  0.07545000  0.05163300  1
  Te  Te20  1  0.32325100  0.92455000  0.05163300  1
  Te  Te21  1  0.57545000  0.67674900  0.80163300  1
  Te  Te22  1  0.92455000  0.67674900  0.94836700  1
  Te  Te23  1  0.92455000  0.82325100  0.30163300  1
  Te  Te24  1  0.82325100  0.07545000  0.69836700  1
  Te  Te25  1  0.67674900  0.42455000  0.19836700  1
  Te  Te26  1  0.57545000  0.82325100  0.44836700  1
  Te  Te27  1  0.17674900  0.57545000  0.55163300  1
