# generated using pymatgen
data_Zn2GeSe4
_symmetry_space_group_name_H-M   'P 1'
_cell_length_a   5.77476400
_cell_length_b   5.77476400
_cell_length_c   10.74221200
_cell_angle_alpha   90.00000000
_cell_angle_beta   90.00000000
_cell_angle_gamma   90.00000000
_symmetry_Int_Tables_number   1
_chemical_formula_structural   Zn2GeSe4
_chemical_formula_sum   'Zn4 Ge2 Se8'
_cell_volume   358.23020356
_cell_formula_units_Z   2
loop_
 _symmetry_equiv_pos_site_id
 _symmetry_equiv_pos_as_xyz
  1  'x, y, z'
loop_
 _atom_site_type_symbol
 _atom_site_label
 _atom_site_symmetry_multiplicity
 _atom_site_fract_x
 _atom_site_fract_y
 _atom_site_fract_z
 _atom_site_occupancy
  Zn  Zn0  1  0.00000000  0.50000000  0.25000000  1
  Zn  Zn1  1  0.50000000  0.00000000  0.25000000  1
  Zn  Zn2  1  0.50000000  0.00000000  0.75000000  1
  Zn  Zn3  1  0.00000000  0.50000000  0.75000000  1
  Ge  Ge4  1  0.50000000  0.50000000  0.00000000  1
  Ge  Ge5  1  0.00000000  0.00000000  0.50000000  1
  Se  Se6  1  0.75189000  0.24811000  0.11671300  1
  Se  Se7  1  0.25189000  0.25189000  0.38328700  1
  Se  Se8  1  0.24811000  0.75189000  0.11671300  1
  Se  Se9  1  0.74811000  0.74811000  0.38328700  1
  Se  Se10  1  0.25189000  0.74811000  0.61671300  1
  Se  Se11  1  0.75189000  0.75189000  0.88328700  1
  Se  Se12  1  0.74811000  0.25189000  0.61671300  1
  Se  Se13  1  0.24811000  0.24811000  0.88328700  1
