# generated using pymatgen
data_NaTi2BiO6
_symmetry_space_group_name_H-M   'P 1'
_cell_length_a   5.51382061
_cell_length_b   5.51382061
_cell_length_c   13.84007500
_cell_angle_alpha   90.00000000
_cell_angle_beta   90.00000000
_cell_angle_gamma   120.00000000
_symmetry_Int_Tables_number   1
_chemical_formula_structural   NaTi2BiO6
_chemical_formula_sum   'Na3 Ti6 Bi3 O18'
_cell_volume   364.39662086
_cell_formula_units_Z   3
loop_
 _symmetry_equiv_pos_site_id
 _symmetry_equiv_pos_as_xyz
  1  'x, y, z'
loop_
 _atom_site_type_symbol
 _atom_site_label
 _atom_site_symmetry_multiplicity
 _atom_site_fract_x
 _atom_site_fract_y
 _atom_site_fract_z
 _atom_site_occupancy
  Na  Na0  1  0.00000000  0.00000000  0.27225500  1
  Na  Na1  1  0.66666667  0.33333333  0.60558833  1
  Na  Na2  1  0.33333333  0.66666667  0.93892167  1
  Ti  Ti3  1  0.00000000  0.00000000  0.01760000  1
  Ti  Ti4  1  0.33333333  0.66666667  0.17940367  1
  Ti  Ti5  1  0.66666667  0.33333333  0.35093333  1
  Ti  Ti6  1  0.00000000  0.00000000  0.51273700  1
  Ti  Ti7  1  0.33333333  0.66666667  0.68426667  1
  Ti  Ti8  1  0.66666667  0.33333333  0.84607033  1
  Bi  Bi9  1  0.66666667  0.33333333  0.12035533  1
  Bi  Bi10  1  0.33333333  0.66666667  0.45368867  1
  Bi  Bi11  1  0.00000000  0.00000000  0.78702200  1
  O  O12  1  0.10312300  0.76940400  0.08211300  1
  O  O13  1  0.23059600  0.33371900  0.08211300  1
  O  O14  1  0.66628100  0.89687700  0.08211300  1
  O  O15  1  0.99034333  0.43638667  0.24328267  1
  O  O16  1  0.44604333  0.00965667  0.24328267  1
  O  O17  1  0.56361333  0.55395667  0.24328267  1
  O  O18  1  0.76978967  0.10273733  0.41544633  1
  O  O19  1  0.89726267  0.66705233  0.41544633  1
  O  O20  1  0.33294767  0.23021033  0.41544633  1
  O  O21  1  0.65701000  0.76972000  0.57661600  1
  O  O22  1  0.11271000  0.34299000  0.57661600  1
  O  O23  1  0.23028000  0.88729000  0.57661600  1
  O  O24  1  0.43645633  0.43607067  0.74877967  1
  O  O25  1  0.56392933  0.00038567  0.74877967  1
  O  O26  1  0.99961433  0.56354367  0.74877967  1
  O  O27  1  0.32367667  0.10305333  0.90994933  1
  O  O28  1  0.77937667  0.67632333  0.90994933  1
  O  O29  1  0.89694667  0.22062333  0.90994933  1
