# generated using pymatgen
data_Na2CO3
_symmetry_space_group_name_H-M   'P 1'
_cell_length_a   8.96838600
_cell_length_b   5.32718200
_cell_length_c   6.16542940
_cell_angle_alpha   90.00000000
_cell_angle_beta   101.67261483
_cell_angle_gamma   90.00000000
_symmetry_Int_Tables_number   1
_chemical_formula_structural   Na2CO3
_chemical_formula_sum   'Na8 C4 O12'
_cell_volume   288.46930790
_cell_formula_units_Z   4
loop_
 _symmetry_equiv_pos_site_id
 _symmetry_equiv_pos_as_xyz
  1  'x, y, z'
loop_
 _atom_site_type_symbol
 _atom_site_label
 _atom_site_symmetry_multiplicity
 _atom_site_fract_x
 _atom_site_fract_y
 _atom_site_fract_z
 _atom_site_occupancy
  Na  Na0  1  0.67144200  0.00000000  0.75530900  1
  Na  Na1  1  0.32855800  0.00000000  0.24469100  1
  Na  Na2  1  0.00000000  0.00000000  0.00000000  1
  Na  Na3  1  0.00000000  0.00000000  0.50000000  1
  Na  Na4  1  0.17144200  0.50000000  0.75530900  1
  Na  Na5  1  0.82855800  0.50000000  0.24469100  1
  Na  Na6  1  0.50000000  0.50000000  0.00000000  1
  Na  Na7  1  0.50000000  0.50000000  0.50000000  1
  C  C8  1  0.33656800  0.00000000  0.75185900  1
  C  C9  1  0.66343200  0.00000000  0.24814100  1
  C  C10  1  0.83656800  0.50000000  0.75185900  1
  C  C11  1  0.16343200  0.50000000  0.24814100  1
  O  O12  1  0.20965700  0.00000000  0.82368200  1
  O  O13  1  0.59986450  0.21118550  0.28387000  1
  O  O14  1  0.40013550  0.21118550  0.71613000  1
  O  O15  1  0.59986450  0.78881450  0.28387000  1
  O  O16  1  0.40013550  0.78881450  0.71613000  1
  O  O17  1  0.79034300  0.00000000  0.17631800  1
  O  O18  1  0.70965700  0.50000000  0.82368200  1
  O  O19  1  0.09986450  0.71118550  0.28387000  1
  O  O20  1  0.90013550  0.71118550  0.71613000  1
  O  O21  1  0.09986450  0.28881450  0.28387000  1
  O  O22  1  0.90013550  0.28881450  0.71613000  1
  O  O23  1  0.29034300  0.50000000  0.17631800  1
