# generated using pymatgen
data_Ba6Mg11F34
_symmetry_space_group_name_H-M   'P 1'
_cell_length_a   7.63137600
_cell_length_b   10.05841605
_cell_length_c   10.19167825
_cell_angle_alpha   81.70740341
_cell_angle_beta   72.48428867
_cell_angle_gamma   71.87365815
_symmetry_Int_Tables_number   1
_chemical_formula_structural   Ba6Mg11F34
_chemical_formula_sum   'Ba6 Mg11 F34'
_cell_volume   707.90721262
_cell_formula_units_Z   1
loop_
 _symmetry_equiv_pos_site_id
 _symmetry_equiv_pos_as_xyz
  1  'x, y, z'
loop_
 _atom_site_type_symbol
 _atom_site_label
 _atom_site_symmetry_multiplicity
 _atom_site_fract_x
 _atom_site_fract_y
 _atom_site_fract_z
 _atom_site_occupancy
  Ba  Ba0  1  0.66818000  0.65755600  0.96861700  1
  Ba  Ba1  1  0.33182000  0.34244400  0.03138300  1
  Ba  Ba2  1  0.63711200  0.90646800  0.26854200  1
  Ba  Ba3  1  0.36288800  0.09353200  0.73145800  1
  Ba  Ba4  1  0.21597700  0.63699100  0.34291900  1
  Ba  Ba5  1  0.78402300  0.36300900  0.65708100  1
  Mg  Mg6  1  0.18881100  0.00485400  0.18513500  1
  Mg  Mg7  1  0.81118900  0.99514600  0.81486500  1
  Mg  Mg8  1  0.10634500  0.74944400  0.00967000  1
  Mg  Mg9  1  0.89365500  0.25055600  0.99033000  1
  Mg  Mg10  1  0.30395800  0.75180000  0.69910300  1
  Mg  Mg11  1  0.69604200  0.24820000  0.30089700  1
  Mg  Mg12  1  0.73242600  0.74374000  0.60766500  1
  Mg  Mg13  1  0.26757400  0.25626000  0.39233500  1
  Mg  Mg14  1  0.81870000  0.51310300  0.29118200  1
  Mg  Mg15  1  0.18130000  0.48689700  0.70881800  1
  Mg  Mg16  1  0.00000000  0.00000000  0.50000000  1
  F  F17  1  0.30203700  0.61989800  0.57652200  1
  F  F18  1  0.69796300  0.38010200  0.42347800  1
  F  F19  1  0.47959700  0.86114300  0.57326700  1
  F  F20  1  0.52040300  0.13885700  0.42673300  1
  F  F21  1  0.76146100  0.10189800  0.63388900  1
  F  F22  1  0.23853900  0.89810200  0.36611100  1
  F  F23  1  0.68056600  0.86396200  0.76529200  1
  F  F24  1  0.31943400  0.13603800  0.23470800  1
  F  F25  1  0.94270700  0.13660500  0.83116800  1
  F  F26  1  0.05729300  0.86339500  0.16883200  1
  F  F27  1  0.94706300  0.63007800  0.13823700  1
  F  F28  1  0.05293700  0.36992200  0.86176300  1
  F  F29  1  0.55796800  0.63160500  0.72797400  1
  F  F30  1  0.44203200  0.36839500  0.27202600  1
  F  F31  1  0.88614000  0.85361900  0.47614600  1
  F  F32  1  0.11386000  0.14638100  0.52385400  1
  F  F33  1  0.84218800  0.37330400  0.15203600  1
  F  F34  1  0.58195700  0.64034000  0.25424400  1
  F  F35  1  0.41804300  0.35966000  0.74575600  1
  F  F36  1  0.44326900  0.88352900  0.09873100  1
  F  F37  1  0.55673100  0.11647100  0.90126900  1
  F  F38  1  0.07588400  0.40399100  0.31434900  1
  F  F39  1  0.92411600  0.59600900  0.68565100  1
  F  F40  1  0.06242700  0.89417200  0.67358800  1
  F  F41  1  0.93757300  0.10582800  0.32641200  1
  F  F42  1  0.85831300  0.86282800  0.97279400  1
  F  F43  1  0.14168700  0.13717200  0.02720600  1
  F  F44  1  0.32672500  0.61210100  0.06641200  1
  F  F45  1  0.67327500  0.38789900  0.93358800  1
  F  F46  1  0.19777400  0.37112900  0.55835300  1
  F  F47  1  0.80222600  0.62887100  0.44164700  1
  F  F48  1  0.73478100  0.14797700  0.13525600  1
  F  F49  1  0.26521900  0.85202300  0.86474400  1
  F  F50  1  0.15781200  0.62669600  0.84796400  1
