# generated using pymatgen
data_LiHoSe2
_symmetry_space_group_name_H-M   'P 1'
_cell_length_a   5.67164800
_cell_length_b   5.67164800
_cell_length_c   11.54150600
_cell_angle_alpha   90.00000000
_cell_angle_beta   90.00000000
_cell_angle_gamma   90.00000000
_symmetry_Int_Tables_number   1
_chemical_formula_structural   LiHoSe2
_chemical_formula_sum   'Li4 Ho4 Se8'
_cell_volume   371.26244495
_cell_formula_units_Z   4
loop_
 _symmetry_equiv_pos_site_id
 _symmetry_equiv_pos_as_xyz
  1  'x, y, z'
loop_
 _atom_site_type_symbol
 _atom_site_label
 _atom_site_symmetry_multiplicity
 _atom_site_fract_x
 _atom_site_fract_y
 _atom_site_fract_z
 _atom_site_occupancy
  Li  Li0  1  0.00000000  0.00000000  0.00000000  1
  Li  Li1  1  0.00000000  0.50000000  0.25000000  1
  Li  Li2  1  0.50000000  0.50000000  0.50000000  1
  Li  Li3  1  0.50000000  0.00000000  0.75000000  1
  Ho  Ho4  1  0.50000000  0.00000000  0.25000000  1
  Ho  Ho5  1  0.50000000  0.50000000  0.00000000  1
  Ho  Ho6  1  0.00000000  0.50000000  0.75000000  1
  Ho  Ho7  1  0.00000000  0.00000000  0.50000000  1
  Se  Se8  1  0.50000000  0.50000000  0.24641400  1
  Se  Se9  1  0.00000000  0.00000000  0.25358600  1
  Se  Se10  1  0.50000000  0.00000000  0.00358600  1
  Se  Se11  1  0.50000000  0.00000000  0.49641400  1
  Se  Se12  1  0.00000000  0.00000000  0.74641400  1
  Se  Se13  1  0.50000000  0.50000000  0.75358600  1
  Se  Se14  1  0.00000000  0.50000000  0.50358600  1
  Se  Se15  1  0.00000000  0.50000000  0.99641400  1
