# generated using pymatgen
data_Li2CdCl4
_symmetry_space_group_name_H-M   'P 1'
_cell_length_a   7.58329200
_cell_length_b   7.76592400
_cell_length_c   10.59649400
_cell_angle_alpha   90.00000000
_cell_angle_beta   90.00000000
_cell_angle_gamma   90.00000000
_symmetry_Int_Tables_number   1
_chemical_formula_structural   Li2CdCl4
_chemical_formula_sum   'Li8 Cd4 Cl16'
_cell_volume   624.04098223
_cell_formula_units_Z   4
loop_
 _symmetry_equiv_pos_site_id
 _symmetry_equiv_pos_as_xyz
  1  'x, y, z'
loop_
 _atom_site_type_symbol
 _atom_site_label
 _atom_site_symmetry_multiplicity
 _atom_site_fract_x
 _atom_site_fract_y
 _atom_site_fract_z
 _atom_site_occupancy
  Li  Li0  1  0.50000000  0.75000000  0.63682000  1
  Li  Li1  1  0.75000000  0.75000000  0.25000000  1
  Li  Li2  1  0.25000000  0.75000000  0.25000000  1
  Li  Li3  1  0.50000000  0.25000000  0.36318000  1
  Li  Li4  1  0.00000000  0.25000000  0.13682000  1
  Li  Li5  1  0.25000000  0.25000000  0.75000000  1
  Li  Li6  1  0.75000000  0.25000000  0.75000000  1
  Li  Li7  1  0.00000000  0.75000000  0.86318000  1
  Cd  Cd8  1  0.50000000  0.00000000  0.00000000  1
  Cd  Cd9  1  0.00000000  0.00000000  0.50000000  1
  Cd  Cd10  1  0.00000000  0.50000000  0.50000000  1
  Cd  Cd11  1  0.50000000  0.50000000  0.00000000  1
  Cl  Cl12  1  0.50000000  0.01657800  0.75398200  1
  Cl  Cl13  1  0.75469900  0.75000000  0.49383700  1
  Cl  Cl14  1  0.00000000  0.98342200  0.25398200  1
  Cl  Cl15  1  0.24530100  0.75000000  0.49383700  1
  Cl  Cl16  1  0.75469900  0.25000000  0.50616300  1
  Cl  Cl17  1  0.00000000  0.01657800  0.74601800  1
  Cl  Cl18  1  0.24530100  0.25000000  0.50616300  1
  Cl  Cl19  1  0.50000000  0.98342200  0.24601800  1
  Cl  Cl20  1  0.00000000  0.51657800  0.25398200  1
  Cl  Cl21  1  0.25469900  0.25000000  0.99383700  1
  Cl  Cl22  1  0.50000000  0.48342200  0.75398200  1
  Cl  Cl23  1  0.74530100  0.25000000  0.99383700  1
  Cl  Cl24  1  0.25469900  0.75000000  0.00616300  1
  Cl  Cl25  1  0.50000000  0.51657800  0.24601800  1
  Cl  Cl26  1  0.74530100  0.75000000  0.00616300  1
  Cl  Cl27  1  0.00000000  0.48342200  0.74601800  1
