# generated using pymatgen
data_Al5BO9
_symmetry_space_group_name_H-M   'P 1'
_cell_length_a   5.73087800
_cell_length_b   15.15697000
_cell_length_c   7.76573800
_cell_angle_alpha   90.00000000
_cell_angle_beta   90.00000000
_cell_angle_gamma   90.00000000
_symmetry_Int_Tables_number   1
_chemical_formula_structural   Al5BO9
_chemical_formula_sum   'Al20 B4 O36'
_cell_volume   674.55332677
_cell_formula_units_Z   4
loop_
 _symmetry_equiv_pos_site_id
 _symmetry_equiv_pos_as_xyz
  1  'x, y, z'
loop_
 _atom_site_type_symbol
 _atom_site_label
 _atom_site_symmetry_multiplicity
 _atom_site_fract_x
 _atom_site_fract_y
 _atom_site_fract_z
 _atom_site_occupancy
  Al  Al0  1  0.25202900  0.88410300  0.49978000  1
  Al  Al1  1  0.00000000  0.70340600  0.33366600  1
  Al  Al2  1  0.50000000  0.79659400  0.83366600  1
  Al  Al3  1  0.50000000  0.94354300  0.18318500  1
  Al  Al4  1  0.00000000  0.55645700  0.68318500  1
  Al  Al5  1  0.50000000  0.75538500  0.18493000  1
  Al  Al6  1  0.00000000  0.74461500  0.68493000  1
  Al  Al7  1  0.75202900  0.61589700  0.99978000  1
  Al  Al8  1  0.74797100  0.88410300  0.49978000  1
  Al  Al9  1  0.24797100  0.61589700  0.99978000  1
  Al  Al10  1  0.75202900  0.38410300  0.49978000  1
  Al  Al11  1  0.50000000  0.20340600  0.33366600  1
  Al  Al12  1  0.00000000  0.29659400  0.83366600  1
  Al  Al13  1  0.00000000  0.44354300  0.18318500  1
  Al  Al14  1  0.50000000  0.05645700  0.68318500  1
  Al  Al15  1  0.00000000  0.25538500  0.18493000  1
  Al  Al16  1  0.50000000  0.24461500  0.68493000  1
  Al  Al17  1  0.25202900  0.11589700  0.99978000  1
  Al  Al18  1  0.24797100  0.38410300  0.49978000  1
  Al  Al19  1  0.74797100  0.11589700  0.99978000  1
  B  B20  1  0.50000000  0.51564400  0.72082200  1
  B  B21  1  0.00000000  0.98435600  0.22082200  1
  B  B22  1  0.00000000  0.01564400  0.72082200  1
  B  B23  1  0.50000000  0.48435600  0.22082200  1
  O  O24  1  0.00000000  0.80894000  0.43588100  1
  O  O25  1  0.50000000  0.54638700  0.09306600  1
  O  O26  1  0.00000000  0.95361300  0.59306600  1
  O  O27  1  0.00000000  0.54535600  0.07178000  1
  O  O28  1  0.50000000  0.95464400  0.57178000  1
  O  O29  1  0.50000000  0.83069100  0.36819500  1
  O  O30  1  0.00000000  0.66930900  0.86819500  1
  O  O31  1  0.79012000  0.95189900  0.28483600  1
  O  O32  1  0.50000000  0.69106000  0.93588100  1
  O  O33  1  0.50000000  0.85171900  0.03723900  1
  O  O34  1  0.29012000  0.54810100  0.78483600  1
  O  O35  1  0.20988000  0.95189900  0.28483600  1
  O  O36  1  0.70988000  0.54810100  0.78483600  1
  O  O37  1  0.25727400  0.80974700  0.70040100  1
  O  O38  1  0.75727400  0.69025300  0.20040100  1
  O  O39  1  0.24272600  0.69025300  0.20040100  1
  O  O40  1  0.74272600  0.80974700  0.70040100  1
  O  O41  1  0.00000000  0.64828100  0.53723900  1
  O  O42  1  0.50000000  0.30894000  0.43588100  1
  O  O43  1  0.00000000  0.04638700  0.09306600  1
  O  O44  1  0.50000000  0.45361300  0.59306600  1
  O  O45  1  0.50000000  0.04535600  0.07178000  1
  O  O46  1  0.00000000  0.45464400  0.57178000  1
  O  O47  1  0.00000000  0.33069100  0.36819500  1
  O  O48  1  0.50000000  0.16930900  0.86819500  1
  O  O49  1  0.29012000  0.45189900  0.28483600  1
  O  O50  1  0.00000000  0.19106000  0.93588100  1
  O  O51  1  0.00000000  0.35171900  0.03723900  1
  O  O52  1  0.79012000  0.04810100  0.78483600  1
  O  O53  1  0.70988000  0.45189900  0.28483600  1
  O  O54  1  0.20988000  0.04810100  0.78483600  1
  O  O55  1  0.75727400  0.30974700  0.70040100  1
  O  O56  1  0.25727400  0.19025300  0.20040100  1
  O  O57  1  0.74272600  0.19025300  0.20040100  1
  O  O58  1  0.24272600  0.30974700  0.70040100  1
  O  O59  1  0.50000000  0.14828100  0.53723900  1
