# generated using pymatgen
data_Zr4N2O5
_symmetry_space_group_name_H-M   'P 1'
_cell_length_a   8.87455500
_cell_length_b   8.89683578
_cell_length_c   8.90605565
_cell_angle_alpha   109.33436377
_cell_angle_beta   109.54704027
_cell_angle_gamma   109.25406201
_symmetry_Int_Tables_number   1
_chemical_formula_structural   Zr4N2O5
_chemical_formula_sum   'Zr16 N8 O20'
_cell_volume   543.15721561
_cell_formula_units_Z   4
loop_
 _symmetry_equiv_pos_site_id
 _symmetry_equiv_pos_as_xyz
  1  'x, y, z'
loop_
 _atom_site_type_symbol
 _atom_site_label
 _atom_site_symmetry_multiplicity
 _atom_site_fract_x
 _atom_site_fract_y
 _atom_site_fract_z
 _atom_site_occupancy
  Zr  Zr0  1  0.52446900  0.79424600  0.79429100  1
  Zr  Zr1  1  0.25709300  0.50733500  0.29833200  1
  Zr  Zr2  1  0.54278900  0.50187900  0.03536100  1
  Zr  Zr3  1  0.74182000  0.74043200  0.52482700  1
  Zr  Zr4  1  0.28843500  0.04733600  0.79736600  1
  Zr  Zr5  1  0.99919400  0.00520300  0.99960100  1
  Zr  Zr6  1  0.77447100  0.25965600  0.98711500  1
  Zr  Zr7  1  0.01272100  0.73152700  0.21990000  1
  Zr  Zr8  1  0.22531300  0.21654500  0.49853600  1
  Zr  Zr9  1  0.75757800  0.95798300  0.24898400  1
  Zr  Zr10  1  0.49255000  0.98676400  0.49376200  1
  Zr  Zr11  1  0.99280000  0.20685300  0.72231800  1
  Zr  Zr12  1  0.28529600  0.78606200  0.02376500  1
  Zr  Zr13  1  0.79498300  0.49723800  0.75393300  1
  Zr  Zr14  1  0.49936000  0.26790900  0.28536100  1
  Zr  Zr15  1  0.03568100  0.49397100  0.54296700  1
  N  N16  1  0.99970500  0.96866800  0.73920400  1
  N  N17  1  0.28777900  0.28303700  0.78503800  1
  N  N18  1  0.26611900  0.73229900  0.23553700  1
  N  N19  1  0.75478400  0.50073700  0.98110600  1
  N  N20  1  0.50112400  0.71956800  0.00293200  1
  N  N21  1  0.97933700  0.22721100  0.48021500  1
  N  N22  1  0.78253500  0.49731900  0.49906700  1
  N  N23  1  0.77158800  0.03371800  0.03229200  1
  O  O24  1  0.25079500  0.76961200  0.74772300  1
  O  O25  1  0.27520800  0.02791500  0.02814400  1
  O  O26  1  0.79852000  0.73727000  0.29894800  1
  O  O27  1  0.56034800  0.26378400  0.06301700  1
  O  O28  1  0.00461500  0.49907800  0.28866700  1
  O  O29  1  0.50113500  0.75794100  0.52970900  1
  O  O30  1  0.22724200  0.96408700  0.50464500  1
  O  O31  1  0.72890500  0.96434900  0.48546700  1
  O  O32  1  0.47656900  0.49896000  0.24874300  1
  O  O33  1  0.51750600  0.02902000  0.76287900  1
  O  O34  1  0.00204900  0.97068800  0.24092600  1
  O  O35  1  0.04281400  0.28682900  0.00961900  1
  O  O36  1  0.01999000  0.75934200  0.98711200  1
  O  O37  1  0.76575100  0.23771800  0.73446200  1
  O  O38  1  0.50018000  0.26566000  0.53403700  1
  O  O39  1  0.72291100  0.71748000  0.76160200  1
  O  O40  1  0.05892100  0.50326100  0.79748400  1
  O  O41  1  0.53921500  0.03920700  0.27135900  1
  O  O42  1  0.29477400  0.49994200  0.55381400  1
  O  O43  1  0.23962900  0.24436400  0.26443100  1
