# generated using pymatgen
data_NaBO2
_symmetry_space_group_name_H-M   'P 1'
_cell_length_a   11.99482368
_cell_length_b   11.99482368
_cell_length_c   6.57460765
_cell_angle_alpha   90.00000000
_cell_angle_beta   90.00000000
_cell_angle_gamma   120.00000000
_symmetry_Int_Tables_number   1
_chemical_formula_structural   NaBO2
_chemical_formula_sum   'Na18 B18 O36'
_cell_volume   819.19672794
_cell_formula_units_Z   18
loop_
 _symmetry_equiv_pos_site_id
 _symmetry_equiv_pos_as_xyz
  1  'x, y, z'
loop_
 _atom_site_type_symbol
 _atom_site_label
 _atom_site_symmetry_multiplicity
 _atom_site_fract_x
 _atom_site_fract_y
 _atom_site_fract_z
 _atom_site_occupancy
  Na  Na0  1  0.33333333  0.10342817  0.91666667  1
  Na  Na1  1  0.22990517  0.89657183  0.58333333  1
  Na  Na2  1  0.43676150  0.00000000  0.25000000  1
  Na  Na3  1  0.33333333  0.22990517  0.41666667  1
  Na  Na4  1  0.43676150  0.43676150  0.75000000  1
  Na  Na5  1  0.22990517  0.33333333  0.08333333  1
  Na  Na6  1  0.00000000  0.43676150  0.25000000  1
  Na  Na7  1  0.89657183  0.22990517  0.91666667  1
  Na  Na8  1  0.10342817  0.33333333  0.58333333  1
  Na  Na9  1  0.00000000  0.56323850  0.75000000  1
  Na  Na10  1  0.10342817  0.77009483  0.08333333  1
  Na  Na11  1  0.89657183  0.66666667  0.41666667  1
  Na  Na12  1  0.66666667  0.77009483  0.58333333  1
  Na  Na13  1  0.56323850  0.56323850  0.25000000  1
  Na  Na14  1  0.77009483  0.66666667  0.91666667  1
  Na  Na15  1  0.66666667  0.89657183  0.08333333  1
  Na  Na16  1  0.77009483  0.10342817  0.41666667  1
  Na  Na17  1  0.56323850  0.00000000  0.75000000  1
  B  B18  1  0.33333333  0.54576517  0.41666667  1
  B  B19  1  0.33333333  0.78756817  0.91666667  1
  B  B20  1  0.54576517  0.21243183  0.58333333  1
  B  B21  1  0.12090150  0.00000000  0.25000000  1
  B  B22  1  0.12090150  0.12090150  0.75000000  1
  B  B23  1  0.54576517  0.33333333  0.08333333  1
  B  B24  1  0.00000000  0.87909850  0.75000000  1
  B  B25  1  0.00000000  0.12090150  0.25000000  1
  B  B26  1  0.21243183  0.54576517  0.91666667  1
  B  B27  1  0.78756817  0.33333333  0.58333333  1
  B  B28  1  0.78756817  0.45423483  0.08333333  1
  B  B29  1  0.21243183  0.66666667  0.41666667  1
  B  B30  1  0.66666667  0.21243183  0.08333333  1
  B  B31  1  0.66666667  0.45423483  0.58333333  1
  B  B32  1  0.87909850  0.87909850  0.25000000  1
  B  B33  1  0.45423483  0.66666667  0.91666667  1
  B  B34  1  0.45423483  0.78756817  0.41666667  1
  B  B35  1  0.87909850  0.00000000  0.75000000  1
  O  O36  1  0.11624350  0.00000000  0.75000000  1
  O  O37  1  0.55042317  0.21708983  0.08333333  1
  O  O38  1  0.33333333  0.55042317  0.91666667  1
  O  O39  1  0.33333333  0.78291017  0.41666667  1
  O  O40  1  0.55042317  0.33333333  0.58333333  1
  O  O41  1  0.11624350  0.11624350  0.25000000  1
  O  O42  1  0.43588817  0.33333333  0.08333333  1
  O  O43  1  0.23077850  0.23077850  0.75000000  1
  O  O44  1  0.33333333  0.43588817  0.41666667  1
  O  O45  1  0.23077850  0.00000000  0.25000000  1
  O  O46  1  0.43588817  0.10255483  0.58333333  1
  O  O47  1  0.33333333  0.89744517  0.91666667  1
  O  O48  1  0.78291017  0.33333333  0.08333333  1
  O  O49  1  0.21708983  0.55042317  0.41666667  1
  O  O50  1  0.00000000  0.88375650  0.25000000  1
  O  O51  1  0.00000000  0.11624350  0.75000000  1
  O  O52  1  0.21708983  0.66666667  0.91666667  1
  O  O53  1  0.78291017  0.44957683  0.58333333  1
  O  O54  1  0.10255483  0.66666667  0.41666667  1
  O  O55  1  0.89744517  0.56411183  0.08333333  1
  O  O56  1  0.00000000  0.76922150  0.75000000  1
  O  O57  1  0.89744517  0.33333333  0.58333333  1
  O  O58  1  0.10255483  0.43588817  0.91666667  1
  O  O59  1  0.00000000  0.23077850  0.25000000  1
  O  O60  1  0.44957683  0.66666667  0.41666667  1
  O  O61  1  0.88375650  0.88375650  0.75000000  1
  O  O62  1  0.66666667  0.21708983  0.58333333  1
  O  O63  1  0.66666667  0.44957683  0.08333333  1
  O  O64  1  0.88375650  0.00000000  0.25000000  1
  O  O65  1  0.44957683  0.78291017  0.91666667  1
  O  O66  1  0.76922150  0.00000000  0.75000000  1
  O  O67  1  0.56411183  0.89744517  0.41666667  1
  O  O68  1  0.66666667  0.10255483  0.08333333  1
  O  O69  1  0.56411183  0.66666667  0.91666667  1
  O  O70  1  0.76922150  0.76922150  0.25000000  1
  O  O71  1  0.66666667  0.56411183  0.58333333  1
