# generated using pymatgen
data_Na2Ta4O11
_symmetry_space_group_name_H-M   'P 1'
_cell_length_a   6.27397563
_cell_length_b   6.27397563
_cell_length_c   37.05313910
_cell_angle_alpha   90.00000000
_cell_angle_beta   90.00000000
_cell_angle_gamma   120.00000000
_symmetry_Int_Tables_number   1
_chemical_formula_structural   Na2Ta4O11
_chemical_formula_sum   'Na12 Ta24 O66'
_cell_volume   1263.11034764
_cell_formula_units_Z   6
loop_
 _symmetry_equiv_pos_site_id
 _symmetry_equiv_pos_as_xyz
  1  'x, y, z'
loop_
 _atom_site_type_symbol
 _atom_site_label
 _atom_site_symmetry_multiplicity
 _atom_site_fract_x
 _atom_site_fract_y
 _atom_site_fract_z
 _atom_site_occupancy
  Na  Na0  1  0.00000000  0.00000000  0.16545900  1
  Na  Na1  1  0.33333333  0.66666667  0.00120767  1
  Na  Na2  1  0.66666667  0.33333333  0.16787433  1
  Na  Na3  1  0.33333333  0.66666667  0.33212567  1
  Na  Na4  1  0.66666667  0.33333333  0.49879233  1
  Na  Na5  1  0.00000000  0.00000000  0.33454100  1
  Na  Na6  1  0.33333333  0.66666667  0.50120767  1
  Na  Na7  1  0.00000000  0.00000000  0.66545900  1
  Na  Na8  1  0.33333333  0.66666667  0.83212567  1
  Na  Na9  1  0.66666667  0.33333333  0.66787433  1
  Na  Na10  1  0.00000000  0.00000000  0.83454100  1
  Na  Na11  1  0.66666667  0.33333333  0.99879233  1
  Ta  Ta12  1  0.36267100  0.36267100  0.25000000  1
  Ta  Ta13  1  0.63732900  0.00000000  0.25000000  1
  Ta  Ta14  1  0.33333333  0.66666667  0.16666667  1
  Ta  Ta15  1  0.00000000  0.00000000  0.00000000  1
  Ta  Ta16  1  0.00000000  0.63732900  0.25000000  1
  Ta  Ta17  1  0.02933767  0.33333333  0.08333333  1
  Ta  Ta18  1  0.30399567  0.97066233  0.08333333  1
  Ta  Ta19  1  0.66666667  0.69600433  0.08333333  1
  Ta  Ta20  1  0.02933767  0.69600433  0.58333333  1
  Ta  Ta21  1  0.30399567  0.33333333  0.58333333  1
  Ta  Ta22  1  1.00000000  0.00000000  0.50000000  1
  Ta  Ta23  1  0.66666667  0.33333333  0.33333333  1
  Ta  Ta24  1  0.66666667  0.97066233  0.58333333  1
  Ta  Ta25  1  0.69600433  0.66666667  0.41666667  1
  Ta  Ta26  1  0.97066233  0.30399567  0.41666667  1
  Ta  Ta27  1  0.33333333  0.02933767  0.41666667  1
  Ta  Ta28  1  0.69600433  0.02933767  0.91666667  1
  Ta  Ta29  1  0.97066233  0.66666667  0.91666667  1
  Ta  Ta30  1  0.66666667  0.33333333  0.83333333  1
  Ta  Ta31  1  0.33333333  0.66666667  0.66666667  1
  Ta  Ta32  1  0.33333333  0.30399567  0.91666667  1
  Ta  Ta33  1  0.36267100  0.00000000  0.75000000  1
  Ta  Ta34  1  0.63732900  0.63732900  0.75000000  1
  Ta  Ta35  1  0.00000000  0.36267100  0.75000000  1
  O  O36  1  0.30195033  0.91178867  0.13589367  1
  O  O37  1  0.08821133  0.39016167  0.13589367  1
  O  O38  1  0.60983833  0.69804967  0.13589367  1
  O  O39  1  0.03138300  0.27650500  0.03077300  1
  O  O40  1  0.72349500  0.75487800  0.03077300  1
  O  O41  1  0.24512200  0.96861700  0.03077300  1
  O  O42  1  0.36471633  0.42154467  0.19743967  1
  O  O43  1  0.57845533  0.94317167  0.19743967  1
  O  O44  1  0.05682833  0.63528367  0.19743967  1
  O  O45  1  0.63528367  0.05682833  0.30256033  1
  O  O46  1  0.94317167  0.57845533  0.30256033  1
  O  O47  1  0.42154467  0.36471633  0.30256033  1
  O  O48  1  0.24720600  0.00000000  0.25000000  1
  O  O49  1  0.75279400  0.75279400  0.25000000  1
  O  O50  1  0.00000000  0.24720600  0.25000000  1
  O  O51  1  0.41946067  0.33333333  0.08333333  1
  O  O52  1  0.91387267  0.58053933  0.08333333  1
  O  O53  1  0.66666667  0.08612733  0.08333333  1
  O  O54  1  0.00000000  0.00000000  0.09393000  1
  O  O55  1  0.33333333  0.66666667  0.07273667  1
  O  O56  1  0.66666667  0.33333333  0.23940333  1
  O  O57  1  0.33333333  0.66666667  0.26059667  1
  O  O58  1  0.96861700  0.24512200  0.46922700  1
  O  O59  1  0.75487800  0.72349500  0.46922700  1
  O  O60  1  0.27650500  0.03138300  0.46922700  1
  O  O61  1  0.69804967  0.60983833  0.36410633  1
  O  O62  1  0.39016167  0.08821133  0.36410633  1
  O  O63  1  0.91178867  0.30195033  0.36410633  1
  O  O64  1  0.03138300  0.75487800  0.53077300  1
  O  O65  1  0.24512200  0.27650500  0.53077300  1
  O  O66  1  0.72349500  0.96861700  0.53077300  1
  O  O67  1  0.30195033  0.39016167  0.63589367  1
  O  O68  1  0.60983833  0.91178867  0.63589367  1
  O  O69  1  0.08821133  0.69804967  0.63589367  1
  O  O70  1  0.91387267  0.33333333  0.58333333  1
  O  O71  1  0.41946067  0.08612733  0.58333333  1
  O  O72  1  0.66666667  0.58053933  0.58333333  1
  O  O73  1  0.08612733  0.66666667  0.41666667  1
  O  O74  1  0.58053933  0.91387267  0.41666667  1
  O  O75  1  0.33333333  0.41946067  0.41666667  1
  O  O76  1  0.66666667  0.33333333  0.42726333  1
  O  O77  1  0.00000000  0.00000000  0.40607000  1
  O  O78  1  0.33333333  0.66666667  0.57273667  1
  O  O79  1  0.00000000  0.00000000  0.59393000  1
  O  O80  1  0.63528367  0.57845533  0.80256033  1
  O  O81  1  0.42154467  0.05682833  0.80256033  1
  O  O82  1  0.94317167  0.36471633  0.80256033  1
  O  O83  1  0.36471633  0.94317167  0.69743967  1
  O  O84  1  0.05682833  0.42154467  0.69743967  1
  O  O85  1  0.57845533  0.63528367  0.69743967  1
  O  O86  1  0.69804967  0.08821133  0.86410633  1
  O  O87  1  0.91178867  0.60983833  0.86410633  1
  O  O88  1  0.39016167  0.30195033  0.86410633  1
  O  O89  1  0.96861700  0.72349500  0.96922700  1
  O  O90  1  0.27650500  0.24512200  0.96922700  1
  O  O91  1  0.75487800  0.03138300  0.96922700  1
  O  O92  1  0.58053933  0.66666667  0.91666667  1
  O  O93  1  0.08612733  0.41946067  0.91666667  1
  O  O94  1  0.33333333  0.91387267  0.91666667  1
  O  O95  1  0.75279400  0.00000000  0.75000000  1
  O  O96  1  0.24720600  0.24720600  0.75000000  1
  O  O97  1  0.00000000  0.75279400  0.75000000  1
  O  O98  1  0.33333333  0.66666667  0.76059667  1
  O  O99  1  0.66666667  0.33333333  0.73940333  1
  O  O100  1  0.00000000  0.00000000  0.90607000  1
  O  O101  1  0.66666667  0.33333333  0.92726333  1
