# generated using pymatgen
data_Tb10Ti6O27
_symmetry_space_group_name_H-M   'P 1'
_cell_length_a   13.02847600
_cell_length_b   7.30840200
_cell_length_c   12.61817088
_cell_angle_alpha   90.00000000
_cell_angle_beta   110.74692220
_cell_angle_gamma   90.00000000
_symmetry_Int_Tables_number   1
_chemical_formula_structural   Tb10Ti6O27
_chemical_formula_sum   'Tb20 Ti12 O54'
_cell_volume   1123.55851874
_cell_formula_units_Z   2
loop_
 _symmetry_equiv_pos_site_id
 _symmetry_equiv_pos_as_xyz
  1  'x, y, z'
loop_
 _atom_site_type_symbol
 _atom_site_label
 _atom_site_symmetry_multiplicity
 _atom_site_fract_x
 _atom_site_fract_y
 _atom_site_fract_z
 _atom_site_occupancy
  Tb  Tb0  1  0.02633850  0.24609250  0.76919700  1
  Tb  Tb1  1  0.02633850  0.75390750  0.76919700  1
  Tb  Tb2  1  0.01933800  0.00000000  0.50272200  1
  Tb  Tb3  1  0.98114700  0.50000000  0.50904600  1
  Tb  Tb4  1  0.00325400  0.75409800  0.24661400  1
  Tb  Tb5  1  0.00325400  0.24590200  0.24661400  1
  Tb  Tb6  1  0.25000100  0.50000000  0.73256300  1
  Tb  Tb7  1  0.01728100  0.00000000  0.99717300  1
  Tb  Tb8  1  0.75700900  0.00000000  0.22432700  1
  Tb  Tb9  1  0.74584600  0.50000000  0.26680400  1
  Tb  Tb10  1  0.52633850  0.74609250  0.76919700  1
  Tb  Tb11  1  0.52633850  0.25390750  0.76919700  1
  Tb  Tb12  1  0.51933800  0.50000000  0.50272200  1
  Tb  Tb13  1  0.48114700  0.00000000  0.50904600  1
  Tb  Tb14  1  0.50325400  0.25409800  0.24661400  1
  Tb  Tb15  1  0.50325400  0.74590200  0.24661400  1
  Tb  Tb16  1  0.75000100  0.00000000  0.73256300  1
  Tb  Tb17  1  0.51728100  0.50000000  0.99717300  1
  Tb  Tb18  1  0.25700900  0.50000000  0.22432700  1
  Tb  Tb19  1  0.24584600  0.00000000  0.26680400  1
  Ti  Ti20  1  0.76441250  0.74420750  0.00554100  1
  Ti  Ti21  1  0.76441250  0.25579250  0.00554100  1
  Ti  Ti22  1  0.00165400  0.50000000  0.99331100  1
  Ti  Ti23  1  0.24846500  0.00000000  0.74199700  1
  Ti  Ti24  1  0.75885000  0.23655100  0.49596800  1
  Ti  Ti25  1  0.75885000  0.76344900  0.49596800  1
  Ti  Ti26  1  0.26441250  0.24420750  0.00554100  1
  Ti  Ti27  1  0.26441250  0.75579250  0.00554100  1
  Ti  Ti28  1  0.50165400  0.00000000  0.99331100  1
  Ti  Ti29  1  0.74846500  0.50000000  0.74199700  1
  Ti  Ti30  1  0.25885000  0.73655100  0.49596800  1
  Ti  Ti31  1  0.25885000  0.26344900  0.49596800  1
  O  O32  1  0.23981400  0.81755500  0.63778000  1
  O  O33  1  0.76770500  0.00000000  0.04196900  1
  O  O34  1  0.93244400  0.00000000  0.81041200  1
  O  O35  1  0.08063050  0.29927150  0.96253900  1
  O  O36  1  0.23981400  0.18244500  0.63778000  1
  O  O37  1  0.91167950  0.78610950  0.55611700  1
  O  O38  1  0.81627500  0.70989700  0.18225800  1
  O  O39  1  0.40490000  0.00000000  0.82685600  1
  O  O40  1  0.78781600  0.50000000  0.45997900  1
  O  O41  1  0.08063050  0.70072850  0.96253900  1
  O  O42  1  0.08816300  0.00000000  0.70408800  1
  O  O43  1  0.21921400  0.74468100  0.84065100  1
  O  O44  1  0.05498900  0.72159900  0.43509000  1
  O  O45  1  0.06422300  0.50000000  0.68879000  1
  O  O46  1  0.91167950  0.21389050  0.55611700  1
  O  O47  1  0.81627500  0.29010300  0.18225800  1
  O  O48  1  0.93623400  0.00000000  0.31211900  1
  O  O49  1  0.91086250  0.26872950  0.02354900  1
  O  O50  1  0.05919400  0.50000000  0.15701200  1
  O  O51  1  0.05498900  0.27840100  0.43509000  1
  O  O52  1  0.23733400  0.50000000  0.54774100  1
  O  O53  1  0.21921400  0.25531900  0.84065100  1
  O  O54  1  0.71162500  0.78819500  0.33731100  1
  O  O55  1  0.07048200  0.00000000  0.18525100  1
  O  O56  1  0.91086250  0.73127050  0.02354900  1
  O  O57  1  0.71162500  0.21180500  0.33731100  1
  O  O58  1  0.69735200  0.50000000  0.00011300  1
  O  O59  1  0.73981400  0.31755500  0.63778000  1
  O  O60  1  0.26770500  0.50000000  0.04196900  1
  O  O61  1  0.43244400  0.50000000  0.81041200  1
  O  O62  1  0.58063050  0.79927150  0.96253900  1
  O  O63  1  0.73981400  0.68244500  0.63778000  1
  O  O64  1  0.41167950  0.28610950  0.55611700  1
  O  O65  1  0.31627500  0.20989700  0.18225800  1
  O  O66  1  0.90490000  0.50000000  0.82685600  1
  O  O67  1  0.28781600  0.00000000  0.45997900  1
  O  O68  1  0.58063050  0.20072850  0.96253900  1
  O  O69  1  0.58816300  0.50000000  0.70408800  1
  O  O70  1  0.71921400  0.24468100  0.84065100  1
  O  O71  1  0.55498900  0.22159900  0.43509000  1
  O  O72  1  0.56422300  0.00000000  0.68879000  1
  O  O73  1  0.41167950  0.71389050  0.55611700  1
  O  O74  1  0.31627500  0.79010300  0.18225800  1
  O  O75  1  0.43623400  0.50000000  0.31211900  1
  O  O76  1  0.41086250  0.76872950  0.02354900  1
  O  O77  1  0.55919400  0.00000000  0.15701200  1
  O  O78  1  0.55498900  0.77840100  0.43509000  1
  O  O79  1  0.73733400  0.00000000  0.54774100  1
  O  O80  1  0.71921400  0.75531900  0.84065100  1
  O  O81  1  0.21162500  0.28819500  0.33731100  1
  O  O82  1  0.57048200  0.50000000  0.18525100  1
  O  O83  1  0.41086250  0.23127050  0.02354900  1
  O  O84  1  0.21162500  0.71180500  0.33731100  1
  O  O85  1  0.19735200  0.00000000  0.00011300  1
