# generated using pymatgen
data_KPt2S3
_symmetry_space_group_name_H-M   'P 1'
_cell_length_a   7.17898211
_cell_length_b   7.17898211
_cell_length_c   19.45593080
_cell_angle_alpha   90.00000000
_cell_angle_beta   90.00000000
_cell_angle_gamma   120.00000000
_symmetry_Int_Tables_number   1
_chemical_formula_structural   KPt2S3
_chemical_formula_sum   'K6 Pt12 S18'
_cell_volume   868.37714837
_cell_formula_units_Z   6
loop_
 _symmetry_equiv_pos_site_id
 _symmetry_equiv_pos_as_xyz
  1  'x, y, z'
loop_
 _atom_site_type_symbol
 _atom_site_label
 _atom_site_symmetry_multiplicity
 _atom_site_fract_x
 _atom_site_fract_y
 _atom_site_fract_z
 _atom_site_occupancy
  K  K0  1  0.00000000  0.00000000  0.30604400  1
  K  K1  1  0.66666667  0.33333333  0.02728933  1
  K  K2  1  0.66666667  0.33333333  0.63937733  1
  K  K3  1  0.33333333  0.66666667  0.36062267  1
  K  K4  1  0.33333333  0.66666667  0.97271067  1
  K  K5  1  0.00000000  0.00000000  0.69395600  1
  Pt  Pt6  1  0.33333333  0.66666667  0.16666667  1
  Pt  Pt7  1  0.83333333  0.66666667  0.16666667  1
  Pt  Pt8  1  0.33333333  0.16666667  0.16666667  1
  Pt  Pt9  1  0.83333333  0.16666667  0.16666667  1
  Pt  Pt10  1  1.00000000  1.00000000  0.50000000  1
  Pt  Pt11  1  0.50000000  0.00000000  0.50000000  1
  Pt  Pt12  1  0.00000000  0.50000000  0.50000000  1
  Pt  Pt13  1  0.50000000  0.50000000  0.50000000  1
  Pt  Pt14  1  0.66666667  0.33333333  0.83333333  1
  Pt  Pt15  1  0.16666667  0.33333333  0.83333333  1
  Pt  Pt16  1  0.66666667  0.83333333  0.83333333  1
  Pt  Pt17  1  0.16666667  0.83333333  0.83333333  1
  S  S18  1  0.16258367  0.83741633  0.10707533  1
  S  S19  1  0.16258367  0.32516733  0.10707533  1
  S  S20  1  0.67483267  0.83741633  0.10707533  1
  S  S21  1  0.99183400  0.49591700  0.22625800  1
  S  S22  1  0.50408300  0.49591700  0.22625800  1
  S  S23  1  0.50408300  0.00816600  0.22625800  1
  S  S24  1  0.82925033  0.17074967  0.44040867  1
  S  S25  1  0.82925033  0.65850067  0.44040867  1
  S  S26  1  0.34149933  0.17074967  0.44040867  1
  S  S27  1  0.65850067  0.82925033  0.55959133  1
  S  S28  1  0.17074967  0.82925033  0.55959133  1
  S  S29  1  0.17074967  0.34149933  0.55959133  1
  S  S30  1  0.49591700  0.50408300  0.77374200  1
  S  S31  1  0.49591700  0.99183400  0.77374200  1
  S  S32  1  0.00816600  0.50408300  0.77374200  1
  S  S33  1  0.32516733  0.16258367  0.89292467  1
  S  S34  1  0.83741633  0.16258367  0.89292467  1
  S  S35  1  0.83741633  0.67483267  0.89292467  1
