# generated using pymatgen
data_Zn2Te3O8
_symmetry_space_group_name_H-M   'P 1'
_cell_length_a   12.84551400
_cell_length_b   5.30085800
_cell_length_c   12.05545873
_cell_angle_alpha   90.00000000
_cell_angle_beta   99.66319013
_cell_angle_gamma   90.00000000
_symmetry_Int_Tables_number   1
_chemical_formula_structural   Zn2Te3O8
_chemical_formula_sum   'Zn8 Te12 O32'
_cell_volume   809.23616514
_cell_formula_units_Z   4
loop_
 _symmetry_equiv_pos_site_id
 _symmetry_equiv_pos_as_xyz
  1  'x, y, z'
loop_
 _atom_site_type_symbol
 _atom_site_label
 _atom_site_symmetry_multiplicity
 _atom_site_fract_x
 _atom_site_fract_y
 _atom_site_fract_z
 _atom_site_occupancy
  Zn  Zn0  1  0.72722200  0.27877100  0.84054600  1
  Zn  Zn1  1  0.77277800  0.77877100  0.65945400  1
  Zn  Zn2  1  0.77277800  0.22122900  0.15945400  1
  Zn  Zn3  1  0.72722200  0.72122900  0.34054600  1
  Zn  Zn4  1  0.22722200  0.77877100  0.84054600  1
  Zn  Zn5  1  0.27277800  0.27877100  0.65945400  1
  Zn  Zn6  1  0.27277800  0.72122900  0.15945400  1
  Zn  Zn7  1  0.22722200  0.22122900  0.34054600  1
  Te  Te8  1  0.00000000  0.87358800  0.25000000  1
  Te  Te9  1  0.00000000  0.12641200  0.75000000  1
  Te  Te10  1  0.63803250  0.29876550  0.55368900  1
  Te  Te11  1  0.86196750  0.79876550  0.94631100  1
  Te  Te12  1  0.86196750  0.20123450  0.44631100  1
  Te  Te13  1  0.63803250  0.70123450  0.05368900  1
  Te  Te14  1  0.50000000  0.37358800  0.25000000  1
  Te  Te15  1  0.50000000  0.62641200  0.75000000  1
  Te  Te16  1  0.13803250  0.79876550  0.55368900  1
  Te  Te17  1  0.36196750  0.29876550  0.94631100  1
  Te  Te18  1  0.36196750  0.70123450  0.44631100  1
  Te  Te19  1  0.13803250  0.20123450  0.05368900  1
  O  O20  1  0.76655750  0.51985950  0.04002800  1
  O  O21  1  0.73344250  0.01985950  0.45997200  1
  O  O22  1  0.73344250  0.98014050  0.95997200  1
  O  O23  1  0.76655750  0.48014050  0.54002800  1
  O  O24  1  0.69546100  0.89089700  0.18506500  1
  O  O25  1  0.80453900  0.39089700  0.31493500  1
  O  O26  1  0.80453900  0.60910300  0.81493500  1
  O  O27  1  0.69546100  0.10910300  0.68506500  1
  O  O28  1  0.61430500  0.39855500  0.14220700  1
  O  O29  1  0.88569500  0.89855500  0.35779300  1
  O  O30  1  0.58139050  0.40685350  0.85567800  1
  O  O31  1  0.91860950  0.90685350  0.64432200  1
  O  O32  1  0.91860950  0.09314650  0.14432200  1
  O  O33  1  0.58139050  0.59314650  0.35567800  1
  O  O34  1  0.61430500  0.60144500  0.64220700  1
  O  O35  1  0.88569500  0.10144500  0.85779300  1
  O  O36  1  0.26655750  0.01985950  0.04002800  1
  O  O37  1  0.23344250  0.51985950  0.45997200  1
  O  O38  1  0.23344250  0.48014050  0.95997200  1
  O  O39  1  0.26655750  0.98014050  0.54002800  1
  O  O40  1  0.19546100  0.39089700  0.18506500  1
  O  O41  1  0.30453900  0.89089700  0.31493500  1
  O  O42  1  0.30453900  0.10910300  0.81493500  1
  O  O43  1  0.19546100  0.60910300  0.68506500  1
  O  O44  1  0.11430500  0.89855500  0.14220700  1
  O  O45  1  0.38569500  0.39855500  0.35779300  1
  O  O46  1  0.08139050  0.90685350  0.85567800  1
  O  O47  1  0.41860950  0.40685350  0.64432200  1
  O  O48  1  0.41860950  0.59314650  0.14432200  1
  O  O49  1  0.08139050  0.09314650  0.35567800  1
  O  O50  1  0.11430500  0.10144500  0.64220700  1
  O  O51  1  0.38569500  0.60144500  0.85779300  1
