# generated using pymatgen
data_Rb6Fe2O5
_symmetry_space_group_name_H-M   'P 1'
_cell_length_a   7.29953000
_cell_length_b   12.06488200
_cell_length_c   7.10451798
_cell_angle_alpha   90.00000000
_cell_angle_beta   94.23537815
_cell_angle_gamma   90.00000000
_symmetry_Int_Tables_number   1
_chemical_formula_structural   Rb6Fe2O5
_chemical_formula_sum   'Rb12 Fe4 O10'
_cell_volume   623.97176991
_cell_formula_units_Z   2
loop_
 _symmetry_equiv_pos_site_id
 _symmetry_equiv_pos_as_xyz
  1  'x, y, z'
loop_
 _atom_site_type_symbol
 _atom_site_label
 _atom_site_symmetry_multiplicity
 _atom_site_fract_x
 _atom_site_fract_y
 _atom_site_fract_z
 _atom_site_occupancy
  Rb  Rb0  1  0.50092400  0.28950600  0.00371600  1
  Rb  Rb1  1  0.50080100  0.25642600  0.49770900  1
  Rb  Rb2  1  0.63910500  0.00000000  0.82502100  1
  Rb  Rb3  1  0.35199900  0.00000000  0.18040500  1
  Rb  Rb4  1  0.50080100  0.74357400  0.49770900  1
  Rb  Rb5  1  0.50092400  0.71049400  0.00371600  1
  Rb  Rb6  1  0.00092400  0.78950600  0.00371600  1
  Rb  Rb7  1  0.00080100  0.75642600  0.49770900  1
  Rb  Rb8  1  0.13910500  0.50000000  0.82502100  1
  Rb  Rb9  1  0.85199900  0.50000000  0.18040500  1
  Rb  Rb10  1  0.00080100  0.24357400  0.49770900  1
  Rb  Rb11  1  0.00092400  0.21049400  0.00371600  1
  Fe  Fe12  1  0.81187500  0.00000000  0.30596200  1
  Fe  Fe13  1  0.20535000  0.00000000  0.67118400  1
  Fe  Fe14  1  0.31187500  0.50000000  0.30596200  1
  Fe  Fe15  1  0.70535000  0.50000000  0.67118400  1
  O  O16  1  0.69873650  0.13642750  0.22853500  1
  O  O17  1  0.29549850  0.13615550  0.77882700  1
  O  O18  1  0.69873650  0.86357250  0.22853500  1
  O  O19  1  0.05825000  0.00000000  0.43085500  1
  O  O20  1  0.29549850  0.86384450  0.77882700  1
  O  O21  1  0.19873650  0.63642750  0.22853500  1
  O  O22  1  0.79549850  0.63615550  0.77882700  1
  O  O23  1  0.19873650  0.36357250  0.22853500  1
  O  O24  1  0.55825000  0.50000000  0.43085500  1
  O  O25  1  0.79549850  0.36384450  0.77882700  1
