# generated using pymatgen
data_Tb3GaO6
_symmetry_space_group_name_H-M   'P 1'
_cell_length_a   8.95880000
_cell_length_b   11.23054600
_cell_length_c   5.47361000
_cell_angle_alpha   90.00000000
_cell_angle_beta   90.00000000
_cell_angle_gamma   90.00000000
_symmetry_Int_Tables_number   1
_chemical_formula_structural   Tb3GaO6
_chemical_formula_sum   'Tb12 Ga4 O24'
_cell_volume   550.71202891
_cell_formula_units_Z   4
loop_
 _symmetry_equiv_pos_site_id
 _symmetry_equiv_pos_as_xyz
  1  'x, y, z'
loop_
 _atom_site_type_symbol
 _atom_site_label
 _atom_site_symmetry_multiplicity
 _atom_site_fract_x
 _atom_site_fract_y
 _atom_site_fract_z
 _atom_site_occupancy
  Tb  Tb0  1  0.50000000  0.89795400  0.92232700  1
  Tb  Tb1  1  0.50000000  0.10204600  0.42232700  1
  Tb  Tb2  1  0.80657550  0.10538350  0.96932000  1
  Tb  Tb3  1  0.19342450  0.89461650  0.46932000  1
  Tb  Tb4  1  0.19342450  0.10538350  0.96932000  1
  Tb  Tb5  1  0.80657550  0.89461650  0.46932000  1
  Tb  Tb6  1  0.00000000  0.39795400  0.92232700  1
  Tb  Tb7  1  0.00000000  0.60204600  0.42232700  1
  Tb  Tb8  1  0.30657550  0.60538350  0.96932000  1
  Tb  Tb9  1  0.69342450  0.39461650  0.46932000  1
  Tb  Tb10  1  0.69342450  0.60538350  0.96932000  1
  Tb  Tb11  1  0.30657550  0.39461650  0.46932000  1
  Ga  Ga12  1  0.50000000  0.69336100  0.50012700  1
  Ga  Ga13  1  0.50000000  0.30663900  0.00012700  1
  Ga  Ga14  1  0.00000000  0.19336100  0.50012700  1
  Ga  Ga15  1  0.00000000  0.80663900  0.00012700  1
  O  O16  1  0.50000000  0.71562800  0.16399500  1
  O  O17  1  0.50000000  0.28437200  0.66399500  1
  O  O18  1  0.50000000  0.53917400  0.63930100  1
  O  O19  1  0.50000000  0.46082600  0.13930100  1
  O  O20  1  0.66011050  0.01581350  0.69712500  1
  O  O21  1  0.33988950  0.98418650  0.19712500  1
  O  O22  1  0.33988950  0.01581350  0.69712500  1
  O  O23  1  0.66011050  0.98418650  0.19712500  1
  O  O24  1  0.34237900  0.23627500  0.17795000  1
  O  O25  1  0.65762100  0.76372500  0.67795000  1
  O  O26  1  0.65762100  0.23627500  0.17795000  1
  O  O27  1  0.34237900  0.76372500  0.67795000  1
  O  O28  1  0.00000000  0.21562800  0.16399500  1
  O  O29  1  0.00000000  0.78437200  0.66399500  1
  O  O30  1  0.00000000  0.03917400  0.63930100  1
  O  O31  1  0.00000000  0.96082600  0.13930100  1
  O  O32  1  0.16011050  0.51581350  0.69712500  1
  O  O33  1  0.83988950  0.48418650  0.19712500  1
  O  O34  1  0.83988950  0.51581350  0.69712500  1
  O  O35  1  0.16011050  0.48418650  0.19712500  1
  O  O36  1  0.84237900  0.73627500  0.17795000  1
  O  O37  1  0.15762100  0.26372500  0.67795000  1
  O  O38  1  0.15762100  0.73627500  0.17795000  1
  O  O39  1  0.84237900  0.26372500  0.67795000  1
