# generated using pymatgen
data_SrLa4TiAl4O15
_symmetry_space_group_name_H-M   'P 1'
_cell_length_a   3.84749900
_cell_length_b   5.41785800
_cell_length_c   27.13807000
_cell_angle_alpha   90.00000000
_cell_angle_beta   90.00000000
_cell_angle_gamma   90.00000000
_symmetry_Int_Tables_number   1
_chemical_formula_structural   SrLa4TiAl4O15
_chemical_formula_sum   'Sr2 La8 Ti2 Al8 O30'
_cell_volume   565.69858461
_cell_formula_units_Z   2
loop_
 _symmetry_equiv_pos_site_id
 _symmetry_equiv_pos_as_xyz
  1  'x, y, z'
loop_
 _atom_site_type_symbol
 _atom_site_label
 _atom_site_symmetry_multiplicity
 _atom_site_fract_x
 _atom_site_fract_y
 _atom_site_fract_z
 _atom_site_occupancy
  Sr  Sr0  1  0.00000000  0.75000000  0.05296900  1
  Sr  Sr1  1  0.00000000  0.25000000  0.94703100  1
  La  La2  1  0.00000000  0.75000000  0.84581900  1
  La  La3  1  0.00000000  0.25000000  0.74852200  1
  La  La4  1  0.00000000  0.75000000  0.64900000  1
  La  La5  1  0.00000000  0.25000000  0.54985000  1
  La  La6  1  0.00000000  0.75000000  0.45015000  1
  La  La7  1  0.00000000  0.25000000  0.35100000  1
  La  La8  1  0.00000000  0.75000000  0.25147800  1
  La  La9  1  0.00000000  0.25000000  0.15418100  1
  Ti  Ti10  1  0.50000000  0.25000000  0.05215600  1
  Ti  Ti11  1  0.50000000  0.75000000  0.94784400  1
  Al  Al12  1  0.50000000  0.25000000  0.84668200  1
  Al  Al13  1  0.50000000  0.75000000  0.74780700  1
  Al  Al14  1  0.50000000  0.25000000  0.64904500  1
  Al  Al15  1  0.50000000  0.75000000  0.54967500  1
  Al  Al16  1  0.50000000  0.25000000  0.45032500  1
  Al  Al17  1  0.50000000  0.75000000  0.35095500  1
  Al  Al18  1  0.50000000  0.25000000  0.25219300  1
  Al  Al19  1  0.50000000  0.75000000  0.15331800  1
  O  O20  1  0.00000000  0.25000000  0.05382100  1
  O  O21  1  0.00000000  0.75000000  0.94617900  1
  O  O22  1  0.00000000  0.25000000  0.84496700  1
  O  O23  1  0.00000000  0.75000000  0.74825500  1
  O  O24  1  0.00000000  0.25000000  0.64894700  1
  O  O25  1  0.00000000  0.75000000  0.54983000  1
  O  O26  1  0.00000000  0.25000000  0.45017000  1
  O  O27  1  0.50000000  0.00000000  0.00000000  1
  O  O28  1  0.50000000  0.50058300  0.89582200  1
  O  O29  1  0.50000000  0.99859000  0.79744200  1
  O  O30  1  0.50000000  0.50029800  0.69850000  1
  O  O31  1  0.50000000  0.00003500  0.59935400  1
  O  O32  1  0.50000000  0.50000000  0.50000000  1
  O  O33  1  0.50000000  0.99996500  0.40064600  1
  O  O34  1  0.50000000  0.49970200  0.30150000  1
  O  O35  1  0.50000000  0.99941700  0.89582200  1
  O  O36  1  0.50000000  0.00141000  0.20255800  1
  O  O37  1  0.50000000  0.50000000  0.00000000  1
  O  O38  1  0.50000000  0.49941700  0.10417800  1
  O  O39  1  0.50000000  0.99970200  0.69850000  1
  O  O40  1  0.50000000  0.50141000  0.79744200  1
  O  O41  1  0.50000000  0.49996500  0.59935400  1
  O  O42  1  0.50000000  0.50003500  0.40064600  1
  O  O43  1  0.50000000  0.00000000  0.50000000  1
  O  O44  1  0.50000000  0.49859000  0.20255800  1
  O  O45  1  0.50000000  0.00029800  0.30150000  1
  O  O46  1  0.50000000  0.00058300  0.10417800  1
  O  O47  1  0.00000000  0.75000000  0.35105300  1
  O  O48  1  0.00000000  0.25000000  0.25174500  1
  O  O49  1  0.00000000  0.75000000  0.15503300  1
