# generated using pymatgen
data_Sb2(AuF6)3
_symmetry_space_group_name_H-M   'P 1'
_cell_length_a   9.45132200
_cell_length_b   8.69836300
_cell_length_c   10.38718164
_cell_angle_alpha   90.00000000
_cell_angle_beta   120.41692577
_cell_angle_gamma   90.00000000
_symmetry_Int_Tables_number   1
_chemical_formula_structural   Sb2(AuF6)3
_chemical_formula_sum   'Sb4 Au6 F36'
_cell_volume   736.40801048
_cell_formula_units_Z   2
loop_
 _symmetry_equiv_pos_site_id
 _symmetry_equiv_pos_as_xyz
  1  'x, y, z'
loop_
 _atom_site_type_symbol
 _atom_site_label
 _atom_site_symmetry_multiplicity
 _atom_site_fract_x
 _atom_site_fract_y
 _atom_site_fract_z
 _atom_site_occupancy
  Sb  Sb0  1  0.14105100  0.12425400  0.28447900  1
  Sb  Sb1  1  0.85894900  0.62425400  0.21552100  1
  Sb  Sb2  1  0.85894900  0.87574600  0.71552100  1
  Sb  Sb3  1  0.14105100  0.37574600  0.78447900  1
  Au  Au4  1  0.50000000  0.50000000  0.50000000  1
  Au  Au5  1  0.50000000  0.00000000  0.00000000  1
  Au  Au6  1  0.33860000  0.83200900  0.63266100  1
  Au  Au7  1  0.66140000  0.33200900  0.86733900  1
  Au  Au8  1  0.66140000  0.16799100  0.36733900  1
  Au  Au9  1  0.33860000  0.66799100  0.13266100  1
  F  F10  1  0.06271800  0.94765400  0.16171000  1
  F  F11  1  0.93728200  0.44765400  0.33829000  1
  F  F12  1  0.93728200  0.05234600  0.83829000  1
  F  F13  1  0.06271800  0.55234600  0.66171000  1
  F  F14  1  0.97911200  0.10341400  0.33987200  1
  F  F15  1  0.02088800  0.60341400  0.16012800  1
  F  F16  1  0.40814900  0.79144000  0.30793100  1
  F  F17  1  0.59185100  0.29144000  0.19206900  1
  F  F18  1  0.59185100  0.20856000  0.69206900  1
  F  F19  1  0.40814900  0.70856000  0.80793100  1
  F  F20  1  0.35966600  0.48682500  0.25995500  1
  F  F21  1  0.64033400  0.98682500  0.24004500  1
  F  F22  1  0.64033400  0.51317500  0.74004500  1
  F  F23  1  0.35966600  0.01317500  0.75995500  1
  F  F24  1  0.32058800  0.85465900  0.01187800  1
  F  F25  1  0.67941200  0.35465900  0.48812200  1
  F  F26  1  0.67941200  0.14534100  0.98812200  1
  F  F27  1  0.32058800  0.64534100  0.51187800  1
  F  F28  1  0.02088800  0.89658600  0.66012800  1
  F  F29  1  0.97911200  0.39658600  0.83987200  1
  F  F30  1  0.24982700  0.27967200  0.43300700  1
  F  F31  1  0.75017300  0.77967200  0.06699300  1
  F  F32  1  0.28625400  0.52922300  0.95628500  1
  F  F33  1  0.71374600  0.02922300  0.54371500  1
  F  F34  1  0.71374600  0.47077700  0.04371500  1
  F  F35  1  0.28625400  0.97077700  0.45628500  1
  F  F36  1  0.01950800  0.23509300  0.62693300  1
  F  F37  1  0.98049200  0.73509300  0.87306700  1
  F  F38  1  0.98049200  0.76490700  0.37306700  1
  F  F39  1  0.01950800  0.26490700  0.12693300  1
  F  F40  1  0.32759100  0.37164800  0.75829200  1
  F  F41  1  0.67240900  0.87164800  0.74170800  1
  F  F42  1  0.67240900  0.62835200  0.24170800  1
  F  F43  1  0.32759100  0.12835200  0.25829200  1
  F  F44  1  0.24982700  0.22032800  0.93300700  1
  F  F45  1  0.75017300  0.72032800  0.56699300  1
