# generated using pymatgen
data_Zn2PtO4
_symmetry_space_group_name_H-M   'P 1'
_cell_length_a   5.98308000
_cell_length_b   6.22189200
_cell_length_c   8.81699800
_cell_angle_alpha   90.00000000
_cell_angle_beta   90.00000000
_cell_angle_gamma   90.00000000
_symmetry_Int_Tables_number   1
_chemical_formula_structural   Zn2PtO4
_chemical_formula_sum   'Zn8 Pt4 O16'
_cell_volume   328.22225164
_cell_formula_units_Z   4
loop_
 _symmetry_equiv_pos_site_id
 _symmetry_equiv_pos_as_xyz
  1  'x, y, z'
loop_
 _atom_site_type_symbol
 _atom_site_label
 _atom_site_symmetry_multiplicity
 _atom_site_fract_x
 _atom_site_fract_y
 _atom_site_fract_z
 _atom_site_occupancy
  Zn  Zn0  1  0.00000000  0.25000000  0.84969300  1
  Zn  Zn1  1  0.00000000  0.75000000  0.15030700  1
  Zn  Zn2  1  0.75000000  0.25000000  0.25000000  1
  Zn  Zn3  1  0.25000000  0.25000000  0.25000000  1
  Zn  Zn4  1  0.50000000  0.75000000  0.34969300  1
  Zn  Zn5  1  0.50000000  0.25000000  0.65030700  1
  Zn  Zn6  1  0.25000000  0.75000000  0.75000000  1
  Zn  Zn7  1  0.75000000  0.75000000  0.75000000  1
  Pt  Pt8  1  0.50000000  0.50000000  0.00000000  1
  Pt  Pt9  1  0.50000000  0.00000000  0.00000000  1
  Pt  Pt10  1  0.00000000  0.00000000  0.50000000  1
  Pt  Pt11  1  0.00000000  0.50000000  0.50000000  1
  O  O12  1  0.00000000  0.01917150  0.26764950  1
  O  O13  1  0.50000000  0.98082850  0.76764950  1
  O  O14  1  0.27410400  0.75000000  0.00103300  1
  O  O15  1  0.72589600  0.75000000  0.00103300  1
  O  O16  1  0.27410400  0.25000000  0.99896700  1
  O  O17  1  0.50000000  0.01917150  0.23235050  1
  O  O18  1  0.72589600  0.25000000  0.99896700  1
  O  O19  1  0.00000000  0.98082850  0.73235050  1
  O  O20  1  0.50000000  0.51917150  0.76764950  1
  O  O21  1  0.00000000  0.48082850  0.26764950  1
  O  O22  1  0.77410400  0.25000000  0.50103300  1
  O  O23  1  0.22589600  0.25000000  0.50103300  1
  O  O24  1  0.77410400  0.75000000  0.49896700  1
  O  O25  1  0.00000000  0.51917150  0.73235050  1
  O  O26  1  0.22589600  0.75000000  0.49896700  1
  O  O27  1  0.50000000  0.48082850  0.23235050  1
