# generated using pymatgen
data_Li3Mn2(PO4)3
_symmetry_space_group_name_H-M   'P 1'
_cell_length_a   14.98987000
_cell_length_b   8.76194600
_cell_length_c   8.87412164
_cell_angle_alpha   90.00000000
_cell_angle_beta   125.02627417
_cell_angle_gamma   90.00000000
_symmetry_Int_Tables_number   1
_chemical_formula_structural   Li3Mn2(PO4)3
_chemical_formula_sum   'Li12 Mn8 P12 O48'
_cell_volume   954.44040838
_cell_formula_units_Z   4
loop_
 _symmetry_equiv_pos_site_id
 _symmetry_equiv_pos_as_xyz
  1  'x, y, z'
loop_
 _atom_site_type_symbol
 _atom_site_label
 _atom_site_symmetry_multiplicity
 _atom_site_fract_x
 _atom_site_fract_y
 _atom_site_fract_z
 _atom_site_occupancy
  Li  Li0  1  0.31818750  0.42806650  0.30260300  1
  Li  Li1  1  0.00062550  0.62769250  0.25533900  1
  Li  Li2  1  0.19843300  0.16306600  0.83055400  1
  Li  Li3  1  0.19843300  0.83693400  0.33055400  1
  Li  Li4  1  0.50062550  0.87230750  0.75533900  1
  Li  Li5  1  0.31818750  0.57193350  0.80260300  1
  Li  Li6  1  0.81818750  0.92806650  0.30260300  1
  Li  Li7  1  0.50062550  0.12769250  0.25533900  1
  Li  Li8  1  0.69843300  0.66306600  0.83055400  1
  Li  Li9  1  0.69843300  0.33693400  0.33055400  1
  Li  Li10  1  0.00062550  0.37230750  0.75533900  1
  Li  Li11  1  0.81818750  0.07193350  0.80260300  1
  Mn  Mn12  1  0.10466900  0.74473900  0.64707100  1
  Mn  Mn13  1  0.40053150  0.74808350  0.35762900  1
  Mn  Mn14  1  0.10466900  0.25526100  0.14707100  1
  Mn  Mn15  1  0.40053150  0.25191650  0.85762900  1
  Mn  Mn16  1  0.60466900  0.24473900  0.64707100  1
  Mn  Mn17  1  0.90053150  0.24808350  0.35762900  1
  Mn  Mn18  1  0.60466900  0.75526100  0.14707100  1
  Mn  Mn19  1  0.90053150  0.75191650  0.85762900  1
  P  P20  1  0.49963200  0.54858400  0.73269900  1
  P  P21  1  0.13887950  0.60540150  0.04651500  1
  P  P22  1  0.35914600  0.88360000  0.96743500  1
  P  P23  1  0.63887950  0.89459850  0.54651500  1
  P  P24  1  0.85914600  0.61640000  0.46743500  1
  P  P25  1  0.99963200  0.95141600  0.23269900  1
  P  P26  1  0.99963200  0.04858400  0.73269900  1
  P  P27  1  0.63887950  0.10540150  0.04651500  1
  P  P28  1  0.85914600  0.38360000  0.96743500  1
  P  P29  1  0.13887950  0.39459850  0.54651500  1
  P  P30  1  0.35914600  0.11640000  0.46743500  1
  P  P31  1  0.49963200  0.45141600  0.23269900  1
  O  O32  1  0.76535900  0.72183900  0.32418000  1
  O  O33  1  0.90791200  0.86377100  0.05436500  1
  O  O34  1  0.43518100  0.53367100  0.29361000  1
  O  O35  1  0.33254250  0.94637550  0.42420700  1
  O  O36  1  0.16038400  0.56927300  0.58877500  1
  O  O37  1  0.45604200  0.83237300  0.95733200  1
  O  O38  1  0.33254250  0.05362450  0.92420700  1
  O  O39  1  0.88986550  0.36201550  0.16458400  1
  O  O40  1  0.24051950  0.68925050  0.20757200  1
  O  O41  1  0.95604200  0.66762700  0.45733200  1
  O  O42  1  0.04381500  0.66211800  0.05637700  1
  O  O43  1  0.61557400  0.12373700  0.85804600  1
  O  O44  1  0.38986550  0.13798450  0.66458400  1
  O  O45  1  0.06570300  0.94202500  0.69171000  1
  O  O46  1  0.43518100  0.46632900  0.79361000  1
  O  O47  1  0.16038400  0.43072700  0.08877500  1
  O  O48  1  0.06570300  0.05797500  0.19171000  1
  O  O49  1  0.08249950  0.83354650  0.37494100  1
  O  O50  1  0.58249950  0.66645350  0.87494100  1
  O  O51  1  0.74051950  0.81074950  0.70757200  1
  O  O52  1  0.54381500  0.83788200  0.55637700  1
  O  O53  1  0.11557400  0.37626300  0.35804600  1
  O  O54  1  0.40791200  0.63622900  0.55436500  1
  O  O55  1  0.26535900  0.77816100  0.82418000  1
  O  O56  1  0.26535900  0.22183900  0.32418000  1
  O  O57  1  0.40791200  0.36377100  0.05436500  1
  O  O58  1  0.93518100  0.03367100  0.29361000  1
  O  O59  1  0.83254250  0.44637550  0.42420700  1
  O  O60  1  0.66038400  0.06927300  0.58877500  1
  O  O61  1  0.95604200  0.33237300  0.95733200  1
  O  O62  1  0.83254250  0.55362450  0.92420700  1
  O  O63  1  0.38986550  0.86201550  0.16458400  1
  O  O64  1  0.74051950  0.18925050  0.20757200  1
  O  O65  1  0.45604200  0.16762700  0.45733200  1
  O  O66  1  0.54381500  0.16211800  0.05637700  1
  O  O67  1  0.11557400  0.62373700  0.85804600  1
  O  O68  1  0.88986550  0.63798450  0.66458400  1
  O  O69  1  0.56570300  0.44202500  0.69171000  1
  O  O70  1  0.93518100  0.96632900  0.79361000  1
  O  O71  1  0.66038400  0.93072700  0.08877500  1
  O  O72  1  0.56570300  0.55797500  0.19171000  1
  O  O73  1  0.58249950  0.33354650  0.37494100  1
  O  O74  1  0.08249950  0.16645350  0.87494100  1
  O  O75  1  0.24051950  0.31074950  0.70757200  1
  O  O76  1  0.04381500  0.33788200  0.55637700  1
  O  O77  1  0.61557400  0.87626300  0.35804600  1
  O  O78  1  0.90791200  0.13622900  0.55436500  1
  O  O79  1  0.76535900  0.27816100  0.82418000  1
