# generated using pymatgen
data_Na3UO4
_symmetry_space_group_name_H-M   'P 1'
_cell_length_a   6.84421400
_cell_length_b   9.39049400
_cell_length_c   3.49933300
_cell_angle_alpha   90.00000000
_cell_angle_beta   90.00000000
_cell_angle_gamma   90.00000000
_symmetry_Int_Tables_number   1
_chemical_formula_structural   Na3UO4
_chemical_formula_sum   'Na6 U2 O8'
_cell_volume   224.90405830
_cell_formula_units_Z   2
loop_
 _symmetry_equiv_pos_site_id
 _symmetry_equiv_pos_as_xyz
  1  'x, y, z'
loop_
 _atom_site_type_symbol
 _atom_site_label
 _atom_site_symmetry_multiplicity
 _atom_site_fract_x
 _atom_site_fract_y
 _atom_site_fract_z
 _atom_site_occupancy
  Na  Na0  1  0.25000000  0.25000000  0.50000000  1
  Na  Na1  1  0.25000000  0.75000000  0.50000000  1
  Na  Na2  1  0.50000000  0.00000000  0.00000000  1
  Na  Na3  1  0.75000000  0.75000000  0.50000000  1
  Na  Na4  1  0.75000000  0.25000000  0.50000000  1
  Na  Na5  1  0.00000000  0.50000000  0.00000000  1
  U  U6  1  0.00000000  0.00000000  0.00000000  1
  U  U7  1  0.50000000  0.50000000  0.00000000  1
  O  O8  1  0.50000000  0.71600700  0.00000000  1
  O  O9  1  0.78675100  0.00000000  0.50000000  1
  O  O10  1  0.21324900  0.00000000  0.50000000  1
  O  O11  1  0.50000000  0.28399300  0.00000000  1
  O  O12  1  0.00000000  0.21600700  0.00000000  1
  O  O13  1  0.28675100  0.50000000  0.50000000  1
  O  O14  1  0.71324900  0.50000000  0.50000000  1
  O  O15  1  0.00000000  0.78399300  0.00000000  1
