# generated using pymatgen
data_LaTaO4
_symmetry_space_group_name_H-M   'P 1'
_cell_length_a   3.97329200
_cell_length_b   14.98784400
_cell_length_c   5.66807100
_cell_angle_alpha   90.00000000
_cell_angle_beta   90.00000000
_cell_angle_gamma   90.00000000
_symmetry_Int_Tables_number   1
_chemical_formula_structural   LaTaO4
_chemical_formula_sum   'La4 Ta4 O16'
_cell_volume   337.53975332
_cell_formula_units_Z   4
loop_
 _symmetry_equiv_pos_site_id
 _symmetry_equiv_pos_as_xyz
  1  'x, y, z'
loop_
 _atom_site_type_symbol
 _atom_site_label
 _atom_site_symmetry_multiplicity
 _atom_site_fract_x
 _atom_site_fract_y
 _atom_site_fract_z
 _atom_site_occupancy
  La  La0  1  0.50000000  0.67551800  0.16779200  1
  La  La1  1  0.00000000  0.82448200  0.66779200  1
  La  La2  1  0.00000000  0.17551800  0.16779200  1
  La  La3  1  0.50000000  0.32448200  0.66779200  1
  Ta  Ta4  1  0.50000000  0.91537200  0.21670000  1
  Ta  Ta5  1  0.00000000  0.58462800  0.71670000  1
  Ta  Ta6  1  0.00000000  0.41537200  0.21670000  1
  Ta  Ta7  1  0.50000000  0.08462800  0.71670000  1
  O  O8  1  0.50000000  0.58853000  0.75169300  1
  O  O9  1  0.00000000  0.91147000  0.25169300  1
  O  O10  1  0.00000000  0.52871200  0.05596800  1
  O  O11  1  0.50000000  0.97128800  0.55596800  1
  O  O12  1  0.50000000  0.80140300  0.42574800  1
  O  O13  1  0.00000000  0.69859700  0.92574800  1
  O  O14  1  0.50000000  0.83640200  0.94869900  1
  O  O15  1  0.00000000  0.66359800  0.44869900  1
  O  O16  1  0.00000000  0.08853000  0.75169300  1
  O  O17  1  0.50000000  0.41147000  0.25169300  1
  O  O18  1  0.50000000  0.02871200  0.05596800  1
  O  O19  1  0.00000000  0.47128800  0.55596800  1
  O  O20  1  0.00000000  0.30140300  0.42574800  1
  O  O21  1  0.50000000  0.19859700  0.92574800  1
  O  O22  1  0.00000000  0.33640200  0.94869900  1
  O  O23  1  0.50000000  0.16359800  0.44869900  1
