# generated using pymatgen
data_Cl2O7
_symmetry_space_group_name_H-M   'P 1'
_cell_length_a   14.33871600
_cell_length_b   4.88140200
_cell_length_c   9.19218498
_cell_angle_alpha   90.00000000
_cell_angle_beta   111.79900082
_cell_angle_gamma   90.00000000
_symmetry_Int_Tables_number   1
_chemical_formula_structural   Cl2O7
_chemical_formula_sum   'Cl8 O28'
_cell_volume   597.38168134
_cell_formula_units_Z   4
loop_
 _symmetry_equiv_pos_site_id
 _symmetry_equiv_pos_as_xyz
  1  'x, y, z'
loop_
 _atom_site_type_symbol
 _atom_site_label
 _atom_site_symmetry_multiplicity
 _atom_site_fract_x
 _atom_site_fract_y
 _atom_site_fract_z
 _atom_site_occupancy
  Cl  Cl0  1  0.11021050  0.39322550  0.27143000  1
  Cl  Cl1  1  0.38978950  0.89322550  0.22857000  1
  Cl  Cl2  1  0.38978950  0.10677450  0.72857000  1
  Cl  Cl3  1  0.11021050  0.60677450  0.77143000  1
  Cl  Cl4  1  0.61021050  0.89322550  0.27143000  1
  Cl  Cl5  1  0.88978950  0.39322550  0.22857000  1
  Cl  Cl6  1  0.88978950  0.60677450  0.72857000  1
  Cl  Cl7  1  0.61021050  0.10677450  0.77143000  1
  O  O8  1  0.17538650  0.62268150  0.29461300  1
  O  O9  1  0.32461350  0.12268150  0.20538700  1
  O  O10  1  0.32461350  0.87731850  0.70538700  1
  O  O11  1  0.17538650  0.37731850  0.79461300  1
  O  O12  1  0.00000000  0.42046600  0.75000000  1
  O  O13  1  0.00000000  0.57953400  0.25000000  1
  O  O14  1  0.12805900  0.77748900  0.90480100  1
  O  O15  1  0.37194100  0.27748900  0.59519900  1
  O  O16  1  0.37194100  0.72251100  0.09519900  1
  O  O17  1  0.12805900  0.22251100  0.40480100  1
  O  O18  1  0.08760550  0.74885950  0.62696300  1
  O  O19  1  0.41239450  0.24885950  0.87303700  1
  O  O20  1  0.41239450  0.75114050  0.37303700  1
  O  O21  1  0.08760550  0.25114050  0.12696300  1
  O  O22  1  0.67538650  0.12268150  0.29461300  1
  O  O23  1  0.82461350  0.62268150  0.20538700  1
  O  O24  1  0.82461350  0.37731850  0.70538700  1
  O  O25  1  0.67538650  0.87731850  0.79461300  1
  O  O26  1  0.50000000  0.92046600  0.75000000  1
  O  O27  1  0.50000000  0.07953400  0.25000000  1
  O  O28  1  0.62805900  0.27748900  0.90480100  1
  O  O29  1  0.87194100  0.77748900  0.59519900  1
  O  O30  1  0.87194100  0.22251100  0.09519900  1
  O  O31  1  0.62805900  0.72251100  0.40480100  1
  O  O32  1  0.58760550  0.24885950  0.62696300  1
  O  O33  1  0.91239450  0.74885950  0.87303700  1
  O  O34  1  0.91239450  0.25114050  0.37303700  1
  O  O35  1  0.58760550  0.75114050  0.12696300  1
