# generated using pymatgen
data_SrLaMnWO6
_symmetry_space_group_name_H-M   'P 1'
_cell_length_a   5.79495200
_cell_length_b   5.79495200
_cell_length_c   8.09881400
_cell_angle_alpha   90.00000000
_cell_angle_beta   90.00000000
_cell_angle_gamma   90.00000000
_symmetry_Int_Tables_number   1
_chemical_formula_structural   SrLaMnWO6
_chemical_formula_sum   'Sr2 La2 Mn2 W2 O12'
_cell_volume   271.97006870
_cell_formula_units_Z   2
loop_
 _symmetry_equiv_pos_site_id
 _symmetry_equiv_pos_as_xyz
  1  'x, y, z'
loop_
 _atom_site_type_symbol
 _atom_site_label
 _atom_site_symmetry_multiplicity
 _atom_site_fract_x
 _atom_site_fract_y
 _atom_site_fract_z
 _atom_site_occupancy
  Sr  Sr0  1  0.00000000  0.50000000  0.25000000  1
  Sr  Sr1  1  0.50000000  0.00000000  0.75000000  1
  La  La2  1  0.50000000  0.00000000  0.25000000  1
  La  La3  1  0.00000000  0.50000000  0.75000000  1
  Mn  Mn4  1  0.00000000  0.00000000  0.00000000  1
  Mn  Mn5  1  0.50000000  0.50000000  0.50000000  1
  W  W6  1  0.00000000  0.00000000  0.50000000  1
  W  W7  1  0.50000000  0.50000000  0.00000000  1
  O  O8  1  0.00000000  0.00000000  0.26126900  1
  O  O9  1  0.19614100  0.32126100  0.98634500  1
  O  O10  1  0.82126100  0.30385900  0.51365500  1
  O  O11  1  0.00000000  0.00000000  0.73873100  1
  O  O12  1  0.67873900  0.19614100  0.01365500  1
  O  O13  1  0.30385900  0.17873900  0.48634500  1
  O  O14  1  0.50000000  0.50000000  0.76126900  1
  O  O15  1  0.69614100  0.82126100  0.48634500  1
  O  O16  1  0.32126100  0.80385900  0.01365500  1
  O  O17  1  0.50000000  0.50000000  0.23873100  1
  O  O18  1  0.17873900  0.69614100  0.51365500  1
  O  O19  1  0.80385900  0.67873900  0.98634500  1
