# generated using pymatgen
data_La(NO2)3
_symmetry_space_group_name_H-M   'P 1'
_cell_length_a   10.49968794
_cell_length_b   10.49968794
_cell_length_c   4.32030555
_cell_angle_alpha   90.00000000
_cell_angle_beta   90.00000000
_cell_angle_gamma   120.00000000
_symmetry_Int_Tables_number   1
_chemical_formula_structural   La(NO2)3
_chemical_formula_sum   'La3 N9 O18'
_cell_volume   412.47523447
_cell_formula_units_Z   3
loop_
 _symmetry_equiv_pos_site_id
 _symmetry_equiv_pos_as_xyz
  1  'x, y, z'
loop_
 _atom_site_type_symbol
 _atom_site_label
 _atom_site_symmetry_multiplicity
 _atom_site_fract_x
 _atom_site_fract_y
 _atom_site_fract_z
 _atom_site_occupancy
  La  La0  1  0.00000000  0.00000000  0.28084700  1
  La  La1  1  0.66666667  0.33333333  0.61418033  1
  La  La2  1  0.33333333  0.66666667  0.94751367  1
  N  N3  1  0.15382200  0.84617800  0.72110300  1
  N  N4  1  0.15382200  0.30764400  0.72110300  1
  N  N5  1  0.35902267  0.17951133  0.05443633  1
  N  N6  1  0.82048867  0.17951133  0.05443633  1
  N  N7  1  0.82048867  0.64097733  0.05443633  1
  N  N8  1  0.02568933  0.51284467  0.38776967  1
  N  N9  1  0.48715533  0.51284467  0.38776967  1
  N  N10  1  0.48715533  0.97431067  0.38776967  1
  N  N11  1  0.69235600  0.84617800  0.72110300  1
  O  O12  1  0.19275500  0.38551000  0.96225100  1
  O  O13  1  0.19275500  0.80724500  0.96225100  1
  O  O14  1  0.08434533  0.16869067  0.77669667  1
  O  O15  1  0.08434533  0.91565467  0.77669667  1
  O  O16  1  0.49797600  0.24898800  0.11003000  1
  O  O17  1  0.28115667  0.14057833  0.29558433  1
  O  O18  1  0.85942167  0.71884333  0.29558433  1
  O  O19  1  0.85942167  0.14057833  0.29558433  1
  O  O20  1  0.75101200  0.50202400  0.11003000  1
  O  O21  1  0.75101200  0.24898800  0.11003000  1
  O  O22  1  0.16464267  0.58232133  0.44336333  1
  O  O23  1  0.94782333  0.47391167  0.62891767  1
  O  O24  1  0.52608833  0.05217667  0.62891767  1
  O  O25  1  0.52608833  0.47391167  0.62891767  1
  O  O26  1  0.41767867  0.83535733  0.44336333  1
  O  O27  1  0.41767867  0.58232133  0.44336333  1
  O  O28  1  0.83130933  0.91565467  0.77669667  1
  O  O29  1  0.61449000  0.80724500  0.96225100  1
