# generated using pymatgen
data_Hf2Bi2O7
_symmetry_space_group_name_H-M   'P 1'
_cell_length_a   10.88161200
_cell_length_b   10.85046800
_cell_length_c   7.71744646
_cell_angle_alpha   90.00000000
_cell_angle_beta   134.78275138
_cell_angle_gamma   90.00000000
_symmetry_Int_Tables_number   1
_chemical_formula_structural   Hf2Bi2O7
_chemical_formula_sum   'Hf8 Bi8 O28'
_cell_volume   646.75653015
_cell_formula_units_Z   4
loop_
 _symmetry_equiv_pos_site_id
 _symmetry_equiv_pos_as_xyz
  1  'x, y, z'
loop_
 _atom_site_type_symbol
 _atom_site_label
 _atom_site_symmetry_multiplicity
 _atom_site_fract_x
 _atom_site_fract_y
 _atom_site_fract_z
 _atom_site_occupancy
  Hf  Hf0  1  0.25158700  0.62807400  0.75106200  1
  Hf  Hf1  1  0.99846550  0.87699950  0.24884800  1
  Hf  Hf2  1  0.00153450  0.87699950  0.75115200  1
  Hf  Hf3  1  0.74841300  0.62807400  0.24893800  1
  Hf  Hf4  1  0.75158700  0.12807400  0.75106200  1
  Hf  Hf5  1  0.49846550  0.37699950  0.24884800  1
  Hf  Hf6  1  0.50153450  0.37699950  0.75115200  1
  Hf  Hf7  1  0.24841300  0.12807400  0.24893800  1
  Bi  Bi8  1  0.05095400  0.38512200  0.31206500  1
  Bi  Bi9  1  0.24797500  0.12338800  0.79903600  1
  Bi  Bi10  1  0.25202500  0.62338800  0.20096400  1
  Bi  Bi11  1  0.44904600  0.88512200  0.68793500  1
  Bi  Bi12  1  0.55095400  0.88512200  0.31206500  1
  Bi  Bi13  1  0.74797500  0.62338800  0.79903600  1
  Bi  Bi14  1  0.75202500  0.12338800  0.20096400  1
  Bi  Bi15  1  0.94904600  0.38512200  0.68793500  1
  O  O16  1  0.00000000  0.18647800  0.00000000  1
  O  O17  1  0.00000000  0.51103300  0.00000000  1
  O  O18  1  0.20954200  0.99358100  0.39836700  1
  O  O19  1  0.18084000  0.73866200  0.88995300  1
  O  O20  1  0.19623550  0.00791850  0.98329900  1
  O  O21  1  0.20731150  0.76407950  0.52668200  1
  O  O22  1  0.00000000  0.54002600  0.50000000  1
  O  O23  1  0.00000000  0.96118900  0.50000000  1
  O  O24  1  0.50000000  0.75955100  0.50000000  1
  O  O25  1  0.79268850  0.76407950  0.47331800  1
  O  O26  1  0.30376450  0.50791850  0.01670100  1
  O  O27  1  0.81916000  0.73866200  0.11004700  1
  O  O28  1  0.29045800  0.49358100  0.60163300  1
  O  O29  1  0.00000000  0.81307300  0.00000000  1
  O  O30  1  0.50000000  0.68647800  0.00000000  1
  O  O31  1  0.50000000  0.01103300  0.00000000  1
  O  O32  1  0.70954200  0.49358100  0.39836700  1
  O  O33  1  0.68084000  0.23866200  0.88995300  1
  O  O34  1  0.69623550  0.50791850  0.98329900  1
  O  O35  1  0.70731150  0.26407950  0.52668200  1
  O  O36  1  0.50000000  0.04002600  0.50000000  1
  O  O37  1  0.50000000  0.46118900  0.50000000  1
  O  O38  1  0.00000000  0.25955100  0.50000000  1
  O  O39  1  0.29268850  0.26407950  0.47331800  1
  O  O40  1  0.80376450  0.00791850  0.01670100  1
  O  O41  1  0.31916000  0.23866200  0.11004700  1
  O  O42  1  0.79045800  0.99358100  0.60163300  1
  O  O43  1  0.50000000  0.31307300  0.00000000  1
