# generated using pymatgen
data_Ho10Ti6O27
_symmetry_space_group_name_H-M   'P 1'
_cell_length_a   12.89887000
_cell_length_b   7.25256200
_cell_length_c   12.49936372
_cell_angle_alpha   90.00000000
_cell_angle_beta   110.59714146
_cell_angle_gamma   90.00000000
_symmetry_Int_Tables_number   1
_chemical_formula_structural   Ho10Ti6O27
_chemical_formula_sum   'Ho20 Ti12 O54'
_cell_volume   1094.56772288
_cell_formula_units_Z   2
loop_
 _symmetry_equiv_pos_site_id
 _symmetry_equiv_pos_as_xyz
  1  'x, y, z'
loop_
 _atom_site_type_symbol
 _atom_site_label
 _atom_site_symmetry_multiplicity
 _atom_site_fract_x
 _atom_site_fract_y
 _atom_site_fract_z
 _atom_site_occupancy
  Ho  Ho0  1  0.51900700  0.00000000  0.00404800  1
  Ho  Ho1  1  0.24502400  0.50000000  0.76469200  1
  Ho  Ho2  1  0.00420650  0.74516750  0.74747200  1
  Ho  Ho3  1  0.74966000  0.50000000  0.23182800  1
  Ho  Ho4  1  0.01569800  0.50000000  0.49663400  1
  Ho  Ho5  1  0.00420650  0.25483250  0.74747200  1
  Ho  Ho6  1  0.02538500  0.25347100  0.26837600  1
  Ho  Ho7  1  0.25775000  0.00000000  0.72596900  1
  Ho  Ho8  1  0.02538500  0.74652900  0.26837600  1
  Ho  Ho9  1  0.98198000  0.00000000  0.00950000  1
  Ho  Ho10  1  0.01900700  0.50000000  0.00404800  1
  Ho  Ho11  1  0.74502400  0.00000000  0.76469200  1
  Ho  Ho12  1  0.50420650  0.24516750  0.74747200  1
  Ho  Ho13  1  0.24966000  0.00000000  0.23182800  1
  Ho  Ho14  1  0.51569800  0.00000000  0.49663400  1
  Ho  Ho15  1  0.50420650  0.75483250  0.74747200  1
  Ho  Ho16  1  0.52538500  0.75347100  0.26837600  1
  Ho  Ho17  1  0.75775000  0.50000000  0.72596900  1
  Ho  Ho18  1  0.52538500  0.24652900  0.26837600  1
  Ho  Ho19  1  0.48198000  0.50000000  0.00950000  1
  Ti  Ti20  1  0.25764150  0.23750550  0.99493200  1
  Ti  Ti21  1  0.25764150  0.76249450  0.99493200  1
  Ti  Ti22  1  0.76324000  0.75585600  0.50636900  1
  Ti  Ti23  1  0.76324000  0.24414400  0.50636900  1
  Ti  Ti24  1  0.74786900  0.00000000  0.24383000  1
  Ti  Ti25  1  0.00129600  0.00000000  0.49398300  1
  Ti  Ti26  1  0.75764150  0.73750550  0.99493200  1
  Ti  Ti27  1  0.75764150  0.26249450  0.99493200  1
  Ti  Ti28  1  0.26324000  0.25585600  0.50636900  1
  Ti  Ti29  1  0.26324000  0.74414400  0.50636900  1
  Ti  Ti30  1  0.24786900  0.50000000  0.24383000  1
  Ti  Ti31  1  0.50129600  0.50000000  0.49398300  1
  O  O32  1  0.31825400  0.70904500  0.68371300  1
  O  O33  1  0.29041800  0.50000000  0.95700500  1
  O  O34  1  0.05681500  0.22184400  0.93592600  1
  O  O35  1  0.31825400  0.29095500  0.68371300  1
  O  O36  1  0.91136800  0.76738400  0.52247900  1
  O  O37  1  0.93599100  0.50000000  0.81429400  1
  O  O38  1  0.26719600  0.00000000  0.54461800  1
  O  O39  1  0.73858850  0.81798350  0.13681900  1
  O  O40  1  0.05681500  0.77815600  0.93592600  1
  O  O41  1  0.05864900  0.00000000  0.65901500  1
  O  O42  1  0.20961650  0.78727750  0.83437400  1
  O  O43  1  0.06931000  0.50000000  0.68447100  1
  O  O44  1  0.08173800  0.79807800  0.46188800  1
  O  O45  1  0.91136800  0.23261600  0.52247900  1
  O  O46  1  0.73858850  0.18201650  0.13681900  1
  O  O47  1  0.93148400  0.50000000  0.31036200  1
  O  O48  1  0.91296950  0.28499250  0.05698400  1
  O  O49  1  0.90667400  0.00000000  0.32521400  1
  O  O50  1  0.19635000  0.50000000  0.50295600  1
  O  O51  1  0.20961650  0.21272250  0.83437400  1
  O  O52  1  0.08173800  0.20192200  0.46188800  1
  O  O53  1  0.08609600  0.50000000  0.20407300  1
  O  O54  1  0.06485900  0.00000000  0.18916100  1
  O  O55  1  0.71957600  0.74678400  0.33950000  1
  O  O56  1  0.91296950  0.71500750  0.05698400  1
  O  O57  1  0.71957600  0.25321600  0.33950000  1
  O  O58  1  0.73839500  0.50000000  0.04818500  1
  O  O59  1  0.81825400  0.20904500  0.68371300  1
  O  O60  1  0.79041800  0.00000000  0.95700500  1
  O  O61  1  0.55681500  0.72184400  0.93592600  1
  O  O62  1  0.81825400  0.79095500  0.68371300  1
  O  O63  1  0.41136800  0.26738400  0.52247900  1
  O  O64  1  0.43599100  0.00000000  0.81429400  1
  O  O65  1  0.76719600  0.50000000  0.54461800  1
  O  O66  1  0.23858850  0.31798350  0.13681900  1
  O  O67  1  0.55681500  0.27815600  0.93592600  1
  O  O68  1  0.55864900  0.50000000  0.65901500  1
  O  O69  1  0.70961650  0.28727750  0.83437400  1
  O  O70  1  0.56931000  0.00000000  0.68447100  1
  O  O71  1  0.58173800  0.29807800  0.46188800  1
  O  O72  1  0.41136800  0.73261600  0.52247900  1
  O  O73  1  0.23858850  0.68201650  0.13681900  1
  O  O74  1  0.43148400  0.00000000  0.31036200  1
  O  O75  1  0.41296950  0.78499250  0.05698400  1
  O  O76  1  0.40667400  0.50000000  0.32521400  1
  O  O77  1  0.69635000  0.00000000  0.50295600  1
  O  O78  1  0.70961650  0.71272250  0.83437400  1
  O  O79  1  0.58173800  0.70192200  0.46188800  1
  O  O80  1  0.58609600  0.00000000  0.20407300  1
  O  O81  1  0.56485900  0.50000000  0.18916100  1
  O  O82  1  0.21957600  0.24678400  0.33950000  1
  O  O83  1  0.41296950  0.21500750  0.05698400  1
  O  O84  1  0.21957600  0.75321600  0.33950000  1
  O  O85  1  0.23839500  0.00000000  0.04818500  1
