# generated using pymatgen
data_Cd(GaSe2)2
_symmetry_space_group_name_H-M   'P 1'
_cell_length_a   5.87532200
_cell_length_b   5.87532200
_cell_length_c   10.99199200
_cell_angle_alpha   90.00000000
_cell_angle_beta   90.00000000
_cell_angle_gamma   90.00000000
_symmetry_Int_Tables_number   1
_chemical_formula_structural   Cd(GaSe2)2
_chemical_formula_sum   'Cd2 Ga4 Se8'
_cell_volume   379.43706322
_cell_formula_units_Z   2
loop_
 _symmetry_equiv_pos_site_id
 _symmetry_equiv_pos_as_xyz
  1  'x, y, z'
loop_
 _atom_site_type_symbol
 _atom_site_label
 _atom_site_symmetry_multiplicity
 _atom_site_fract_x
 _atom_site_fract_y
 _atom_site_fract_z
 _atom_site_occupancy
  Cd  Cd0  1  0.00000000  0.00000000  0.00000000  1
  Cd  Cd1  1  0.50000000  0.50000000  0.50000000  1
  Ga  Ga2  1  0.50000000  0.00000000  0.25000000  1
  Ga  Ga3  1  0.50000000  0.50000000  0.00000000  1
  Ga  Ga4  1  0.00000000  0.50000000  0.75000000  1
  Ga  Ga5  1  0.00000000  0.00000000  0.50000000  1
  Se  Se6  1  0.26203300  0.72733900  0.13792100  1
  Se  Se7  1  0.73796700  0.27266100  0.13792100  1
  Se  Se8  1  0.77266100  0.76203300  0.36207900  1
  Se  Se9  1  0.22733900  0.23796700  0.36207900  1
  Se  Se10  1  0.76203300  0.22733900  0.63792100  1
  Se  Se11  1  0.23796700  0.77266100  0.63792100  1
  Se  Se12  1  0.27266100  0.26203300  0.86207900  1
  Se  Se13  1  0.72733900  0.73796700  0.86207900  1
