# generated using pymatgen
data_Tm2Se3
_symmetry_space_group_name_H-M   'P 1'
_cell_length_a   8.60927400
_cell_length_b   8.60927400
_cell_length_c   25.84659200
_cell_angle_alpha   90.00000000
_cell_angle_beta   90.00000000
_cell_angle_gamma   90.00000000
_symmetry_Int_Tables_number   1
_chemical_formula_structural   Tm2Se3
_chemical_formula_sum   'Tm32 Se48'
_cell_volume   1915.73902957
_cell_formula_units_Z   16
loop_
 _symmetry_equiv_pos_site_id
 _symmetry_equiv_pos_as_xyz
  1  'x, y, z'
loop_
 _atom_site_type_symbol
 _atom_site_label
 _atom_site_symmetry_multiplicity
 _atom_site_fract_x
 _atom_site_fract_y
 _atom_site_fract_z
 _atom_site_occupancy
  Tm  Tm0  1  0.73888800  0.63465300  0.21136300  1
  Tm  Tm1  1  0.26111200  0.36534700  0.21136300  1
  Tm  Tm2  1  0.00000000  0.00000000  0.16530100  1
  Tm  Tm3  1  0.38581300  0.75000000  0.12500000  1
  Tm  Tm4  1  0.26111200  0.13465300  0.03863700  1
  Tm  Tm5  1  0.00000000  0.50000000  0.08469900  1
  Tm  Tm6  1  0.61418700  0.25000000  0.12500000  1
  Tm  Tm7  1  0.73888800  0.86534700  0.03863700  1
  Tm  Tm8  1  0.36534700  0.76111200  0.46136300  1
  Tm  Tm9  1  0.25000000  0.11418700  0.37500000  1
  Tm  Tm10  1  0.00000000  0.50000000  0.41530100  1
  Tm  Tm11  1  0.75000000  0.88581300  0.37500000  1
  Tm  Tm12  1  0.63465300  0.23888800  0.46136300  1
  Tm  Tm13  1  0.50000000  0.50000000  0.33469900  1
  Tm  Tm14  1  0.86534700  0.23888800  0.28863700  1
  Tm  Tm15  1  0.13465300  0.76111200  0.28863700  1
  Tm  Tm16  1  0.23888800  0.13465300  0.71136300  1
  Tm  Tm17  1  0.76111200  0.86534700  0.71136300  1
  Tm  Tm18  1  0.50000000  0.50000000  0.66530100  1
  Tm  Tm19  1  0.88581300  0.25000000  0.62500000  1
  Tm  Tm20  1  0.76111200  0.63465300  0.53863700  1
  Tm  Tm21  1  0.50000000  0.00000000  0.58469900  1
  Tm  Tm22  1  0.11418700  0.75000000  0.62500000  1
  Tm  Tm23  1  0.23888800  0.36534700  0.53863700  1
  Tm  Tm24  1  0.86534700  0.26111200  0.96136300  1
  Tm  Tm25  1  0.75000000  0.61418700  0.87500000  1
  Tm  Tm26  1  0.50000000  0.00000000  0.91530100  1
  Tm  Tm27  1  0.25000000  0.38581300  0.87500000  1
  Tm  Tm28  1  0.13465300  0.73888800  0.96136300  1
  Tm  Tm29  1  0.00000000  0.00000000  0.83469900  1
  Tm  Tm30  1  0.36534700  0.73888800  0.78863700  1
  Tm  Tm31  1  0.63465300  0.26111200  0.78863700  1
  Se  Se32  1  0.93750000  0.31856400  0.18477700  1
  Se  Se33  1  0.68387000  0.93161100  0.14381100  1
  Se  Se34  1  0.06250000  0.68143600  0.18477700  1
  Se  Se35  1  0.06250000  0.81856400  0.06522300  1
  Se  Se36  1  0.93750000  0.18143600  0.06522300  1
  Se  Se37  1  0.68387000  0.56838900  0.10618900  1
  Se  Se38  1  0.31613000  0.06838900  0.14381100  1
  Se  Se39  1  0.42105000  0.82117000  0.01757000  1
  Se  Se40  1  0.31613000  0.43161100  0.10618900  1
  Se  Se41  1  0.67883000  0.92105000  0.48243000  1
  Se  Se42  1  0.57895000  0.17883000  0.01757000  1
  Se  Se43  1  0.06838900  0.81613000  0.39381100  1
  Se  Se44  1  0.93161100  0.18387000  0.39381100  1
  Se  Se45  1  0.68143600  0.56250000  0.43477700  1
  Se  Se46  1  0.32117000  0.07895000  0.48243000  1
  Se  Se47  1  0.43161100  0.81613000  0.35618900  1
  Se  Se48  1  0.31856400  0.43750000  0.43477700  1
  Se  Se49  1  0.18143600  0.43750000  0.31522300  1
  Se  Se50  1  0.56838900  0.18387000  0.35618900  1
  Se  Se51  1  0.57895000  0.32117000  0.23243000  1
  Se  Se52  1  0.42105000  0.67883000  0.23243000  1
  Se  Se53  1  0.81856400  0.56250000  0.31522300  1
  Se  Se54  1  0.17883000  0.07895000  0.26757000  1
  Se  Se55  1  0.82117000  0.92105000  0.26757000  1
  Se  Se56  1  0.43750000  0.81856400  0.68477700  1
  Se  Se57  1  0.18387000  0.43161100  0.64381100  1
  Se  Se58  1  0.56250000  0.18143600  0.68477700  1
  Se  Se59  1  0.56250000  0.31856400  0.56522300  1
  Se  Se60  1  0.43750000  0.68143600  0.56522300  1
  Se  Se61  1  0.18387000  0.06838900  0.60618900  1
  Se  Se62  1  0.81613000  0.56838900  0.64381100  1
  Se  Se63  1  0.92105000  0.32117000  0.51757000  1
  Se  Se64  1  0.81613000  0.93161100  0.60618900  1
  Se  Se65  1  0.17883000  0.42105000  0.98243000  1
  Se  Se66  1  0.07895000  0.67883000  0.51757000  1
  Se  Se67  1  0.56838900  0.31613000  0.89381100  1
  Se  Se68  1  0.43161100  0.68387000  0.89381100  1
  Se  Se69  1  0.18143600  0.06250000  0.93477700  1
  Se  Se70  1  0.82117000  0.57895000  0.98243000  1
  Se  Se71  1  0.93161100  0.31613000  0.85618900  1
  Se  Se72  1  0.81856400  0.93750000  0.93477700  1
  Se  Se73  1  0.68143600  0.93750000  0.81522300  1
  Se  Se74  1  0.06838900  0.68387000  0.85618900  1
  Se  Se75  1  0.07895000  0.82117000  0.73243000  1
  Se  Se76  1  0.92105000  0.17883000  0.73243000  1
  Se  Se77  1  0.31856400  0.06250000  0.81522300  1
  Se  Se78  1  0.67883000  0.57895000  0.76757000  1
  Se  Se79  1  0.32117000  0.42105000  0.76757000  1
