# generated using pymatgen
data_Ba3Ta2NiO9
_symmetry_space_group_name_H-M   'P 1'
_cell_length_a   5.82541579
_cell_length_b   5.82541579
_cell_length_c   7.16392500
_cell_angle_alpha   90.00000000
_cell_angle_beta   90.00000000
_cell_angle_gamma   120.00000000
_symmetry_Int_Tables_number   1
_chemical_formula_structural   Ba3Ta2NiO9
_chemical_formula_sum   'Ba3 Ta2 Ni1 O9'
_cell_volume   210.54043668
_cell_formula_units_Z   1
loop_
 _symmetry_equiv_pos_site_id
 _symmetry_equiv_pos_as_xyz
  1  'x, y, z'
loop_
 _atom_site_type_symbol
 _atom_site_label
 _atom_site_symmetry_multiplicity
 _atom_site_fract_x
 _atom_site_fract_y
 _atom_site_fract_z
 _atom_site_occupancy
  Ba  Ba0  1  0.00000000  0.00000000  0.00000000  1
  Ba  Ba1  1  0.33333333  0.66666667  0.33837100  1
  Ba  Ba2  1  0.66666667  0.33333333  0.66162900  1
  Ta  Ta3  1  0.66666667  0.33333333  0.17638900  1
  Ta  Ta4  1  0.33333333  0.66666667  0.82361100  1
  Ni  Ni5  1  0.00000000  0.00000000  0.50000000  1
  O  O6  1  0.50000000  0.50000000  0.00000000  1
  O  O7  1  0.00000000  0.50000000  0.00000000  1
  O  O8  1  0.50000000  0.00000000  0.00000000  1
  O  O9  1  0.17171550  0.34343100  0.67528000  1
  O  O10  1  0.65656900  0.82828450  0.67528000  1
  O  O11  1  0.17171550  0.82828450  0.67528000  1
  O  O12  1  0.34343100  0.17171550  0.32472000  1
  O  O13  1  0.82828450  0.65656900  0.32472000  1
  O  O14  1  0.82828450  0.17171550  0.32472000  1
