# generated using pymatgen
data_Sm5CuSe8
_symmetry_space_group_name_H-M   'P 1'
_cell_length_a   8.72358600
_cell_length_b   8.72358600
_cell_length_c   8.98172400
_cell_angle_alpha   90.00000000
_cell_angle_beta   90.00000000
_cell_angle_gamma   90.00000000
_symmetry_Int_Tables_number   1
_chemical_formula_structural   Sm5CuSe8
_chemical_formula_sum   'Sm10 Cu2 Se16'
_cell_volume   683.51775328
_cell_formula_units_Z   2
loop_
 _symmetry_equiv_pos_site_id
 _symmetry_equiv_pos_as_xyz
  1  'x, y, z'
loop_
 _atom_site_type_symbol
 _atom_site_label
 _atom_site_symmetry_multiplicity
 _atom_site_fract_x
 _atom_site_fract_y
 _atom_site_fract_z
 _atom_site_occupancy
  Sm  Sm0  1  0.36987800  0.74764600  0.61909400  1
  Sm  Sm1  1  0.24764600  0.13012200  0.88090600  1
  Sm  Sm2  1  0.13012200  0.75235400  0.11909400  1
  Sm  Sm3  1  0.00000000  0.00000000  0.50000000  1
  Sm  Sm4  1  0.25235400  0.36987800  0.38090600  1
  Sm  Sm5  1  0.86987800  0.24764600  0.11909400  1
  Sm  Sm6  1  0.74764600  0.63012200  0.38090600  1
  Sm  Sm7  1  0.63012200  0.25235400  0.61909400  1
  Sm  Sm8  1  0.50000000  0.50000000  0.00000000  1
  Sm  Sm9  1  0.75235400  0.86987800  0.88090600  1
  Cu  Cu10  1  0.50000000  0.00000000  0.25000000  1
  Cu  Cu11  1  0.00000000  0.50000000  0.75000000  1
  Se  Se12  1  0.19430400  0.06547100  0.20399800  1
  Se  Se13  1  0.30569600  0.43452900  0.70399800  1
  Se  Se14  1  0.18278250  0.42421350  0.06668250  1
  Se  Se15  1  0.57578650  0.18278250  0.93331750  1
  Se  Se16  1  0.92421350  0.31721750  0.43331750  1
  Se  Se17  1  0.56547100  0.30569600  0.29600200  1
  Se  Se18  1  0.93452900  0.19430400  0.79600200  1
  Se  Se19  1  0.31721750  0.07578650  0.56668250  1
  Se  Se20  1  0.69430400  0.56547100  0.70399800  1
  Se  Se21  1  0.80569600  0.93452900  0.20399800  1
  Se  Se22  1  0.68278250  0.92421350  0.56668250  1
  Se  Se23  1  0.07578650  0.68278250  0.43331750  1
  Se  Se24  1  0.42421350  0.81721750  0.93331750  1
  Se  Se25  1  0.06547100  0.80569600  0.79600200  1
  Se  Se26  1  0.43452900  0.69430400  0.29600200  1
  Se  Se27  1  0.81721750  0.57578650  0.06668250  1
