# generated using pymatgen
data_Tl3PbCl5
_symmetry_space_group_name_H-M   'P 1'
_cell_length_a   8.64867700
_cell_length_b   8.64867700
_cell_length_c   15.08472200
_cell_angle_alpha   90.00000000
_cell_angle_beta   90.00000000
_cell_angle_gamma   90.00000000
_symmetry_Int_Tables_number   1
_chemical_formula_structural   Tl3PbCl5
_chemical_formula_sum   'Tl12 Pb4 Cl20'
_cell_volume   1128.33138064
_cell_formula_units_Z   4
loop_
 _symmetry_equiv_pos_site_id
 _symmetry_equiv_pos_as_xyz
  1  'x, y, z'
loop_
 _atom_site_type_symbol
 _atom_site_label
 _atom_site_symmetry_multiplicity
 _atom_site_fract_x
 _atom_site_fract_y
 _atom_site_fract_z
 _atom_site_occupancy
  Tl  Tl0  1  0.99235700  0.81044300  0.80721600  1
  Tl  Tl1  1  0.18955700  0.99235700  0.05721600  1
  Tl  Tl2  1  0.81044300  0.00764300  0.55721600  1
  Tl  Tl3  1  0.00764300  0.18955700  0.30721600  1
  Tl  Tl4  1  0.36505600  0.82663700  0.32245300  1
  Tl  Tl5  1  0.17336300  0.36505600  0.57245300  1
  Tl  Tl6  1  0.82663700  0.63494400  0.07245300  1
  Tl  Tl7  1  0.63494400  0.17336300  0.82245300  1
  Tl  Tl8  1  0.88725700  0.67806200  0.38071800  1
  Tl  Tl9  1  0.32193800  0.88725700  0.63071800  1
  Tl  Tl10  1  0.67806200  0.11274300  0.13071800  1
  Tl  Tl11  1  0.11274300  0.32193800  0.88071800  1
  Pb  Pb12  1  0.48909000  0.69694700  0.89234400  1
  Pb  Pb13  1  0.30305300  0.48909000  0.14234400  1
  Pb  Pb14  1  0.69694700  0.51091000  0.64234400  1
  Pb  Pb15  1  0.51091000  0.30305300  0.39234400  1
  Cl  Cl16  1  0.50907500  0.20569500  0.60661200  1
  Cl  Cl17  1  0.79430500  0.50907500  0.85661200  1
  Cl  Cl18  1  0.20569500  0.49092500  0.35661200  1
  Cl  Cl19  1  0.49092500  0.79430500  0.10661200  1
  Cl  Cl20  1  0.47662000  0.35599500  0.01023500  1
  Cl  Cl21  1  0.64400500  0.47662000  0.26023500  1
  Cl  Cl22  1  0.35599500  0.52338000  0.76023500  1
  Cl  Cl23  1  0.52338000  0.64400500  0.51023500  1
  Cl  Cl24  1  0.96876300  0.17914300  0.70818700  1
  Cl  Cl25  1  0.82085700  0.96876300  0.95818700  1
  Cl  Cl26  1  0.17914300  0.03123700  0.45818700  1
  Cl  Cl27  1  0.03123700  0.82085700  0.20818700  1
  Cl  Cl28  1  0.33016300  0.97559700  0.85343000  1
  Cl  Cl29  1  0.02440300  0.33016300  0.10343000  1
  Cl  Cl30  1  0.97559700  0.66983700  0.60343000  1
  Cl  Cl31  1  0.66983700  0.02440300  0.35343000  1
  Cl  Cl32  1  0.35442700  0.17991400  0.22880500  1
  Cl  Cl33  1  0.82008600  0.35442700  0.47880500  1
  Cl  Cl34  1  0.17991400  0.64557300  0.97880500  1
  Cl  Cl35  1  0.64557300  0.82008600  0.72880500  1
