# generated using pymatgen
data_Nd5CuSe8
_symmetry_space_group_name_H-M   'P 1'
_cell_length_a   8.79899600
_cell_length_b   8.79899600
_cell_length_c   9.07451800
_cell_angle_alpha   90.00000000
_cell_angle_beta   90.00000000
_cell_angle_gamma   90.00000000
_symmetry_Int_Tables_number   1
_chemical_formula_structural   Nd5CuSe8
_chemical_formula_sum   'Nd10 Cu2 Se16'
_cell_volume   702.57033270
_cell_formula_units_Z   2
loop_
 _symmetry_equiv_pos_site_id
 _symmetry_equiv_pos_as_xyz
  1  'x, y, z'
loop_
 _atom_site_type_symbol
 _atom_site_label
 _atom_site_symmetry_multiplicity
 _atom_site_fract_x
 _atom_site_fract_y
 _atom_site_fract_z
 _atom_site_occupancy
  Nd  Nd0  1  0.62936400  0.24803200  0.13124100  1
  Nd  Nd1  1  0.25196800  0.12936400  0.36875900  1
  Nd  Nd2  1  0.87063600  0.25196800  0.63124100  1
  Nd  Nd3  1  0.00000000  0.50000000  0.25000000  1
  Nd  Nd4  1  0.24803200  0.37063600  0.86875900  1
  Nd  Nd5  1  0.12936400  0.74803200  0.63124100  1
  Nd  Nd6  1  0.75196800  0.62936400  0.86875900  1
  Nd  Nd7  1  0.37063600  0.75196800  0.13124100  1
  Nd  Nd8  1  0.50000000  0.00000000  0.75000000  1
  Nd  Nd9  1  0.74803200  0.87063600  0.36875900  1
  Cu  Cu10  1  0.00000000  0.00000000  0.00000000  1
  Cu  Cu11  1  0.50000000  0.50000000  0.50000000  1
  Se  Se12  1  0.43446850  0.80558050  0.45641750  1
  Se  Se13  1  0.18151000  0.07743200  0.68397500  1
  Se  Se14  1  0.57743200  0.31849000  0.81602500  1
  Se  Se15  1  0.19441950  0.43446850  0.54358250  1
  Se  Se16  1  0.31849000  0.42256800  0.18397500  1
  Se  Se17  1  0.92256800  0.18151000  0.31602500  1
  Se  Se18  1  0.30558050  0.06553150  0.04358250  1
  Se  Se19  1  0.06553150  0.69441950  0.95641750  1
  Se  Se20  1  0.93446850  0.30558050  0.95641750  1
  Se  Se21  1  0.68151000  0.57743200  0.18397500  1
  Se  Se22  1  0.07743200  0.81849000  0.31602500  1
  Se  Se23  1  0.69441950  0.93446850  0.04358250  1
  Se  Se24  1  0.81849000  0.92256800  0.68397500  1
  Se  Se25  1  0.42256800  0.68151000  0.81602500  1
  Se  Se26  1  0.80558050  0.56553150  0.54358250  1
  Se  Se27  1  0.56553150  0.19441950  0.45641750  1
