# generated using pymatgen
data_ZnCrF6
_symmetry_space_group_name_H-M   'P 1'
_cell_length_a   5.17644612
_cell_length_b   5.17644612
_cell_length_c   13.60197479
_cell_angle_alpha   90.00000000
_cell_angle_beta   90.00000000
_cell_angle_gamma   120.00000000
_symmetry_Int_Tables_number   1
_chemical_formula_structural   ZnCrF6
_chemical_formula_sum   'Zn3 Cr3 F18'
_cell_volume   315.64287687
_cell_formula_units_Z   3
loop_
 _symmetry_equiv_pos_site_id
 _symmetry_equiv_pos_as_xyz
  1  'x, y, z'
loop_
 _atom_site_type_symbol
 _atom_site_label
 _atom_site_symmetry_multiplicity
 _atom_site_fract_x
 _atom_site_fract_y
 _atom_site_fract_z
 _atom_site_occupancy
  Zn  Zn0  1  0.00000000  0.00000000  0.00000000  1
  Zn  Zn1  1  0.66666667  0.33333333  0.33333333  1
  Zn  Zn2  1  0.33333333  0.66666667  0.66666667  1
  Cr  Cr3  1  0.33333333  0.66666667  0.16666667  1
  Cr  Cr4  1  1.00000000  0.00000000  0.50000000  1
  Cr  Cr5  1  0.66666667  0.33333333  0.83333333  1
  F  F6  1  0.38258667  0.40137133  0.24602633  1
  F  F7  1  0.01878467  0.61741333  0.24602633  1
  F  F8  1  0.59862867  0.98121533  0.24602633  1
  F  F9  1  0.06803800  0.35211800  0.08730700  1
  F  F10  1  0.64788200  0.71592000  0.08730700  1
  F  F11  1  0.28408000  0.93196200  0.08730700  1
  F  F12  1  0.04925333  0.73470467  0.57935967  1
  F  F13  1  0.68545133  0.95074667  0.57935967  1
  F  F14  1  0.26529533  0.31454867  0.57935967  1
  F  F15  1  0.73470467  0.68545133  0.42064033  1
  F  F16  1  0.31454867  0.04925333  0.42064033  1
  F  F17  1  0.95074667  0.26529533  0.42064033  1
  F  F18  1  0.71592000  0.06803800  0.91269300  1
  F  F19  1  0.35211800  0.28408000  0.91269300  1
  F  F20  1  0.93196200  0.64788200  0.91269300  1
  F  F21  1  0.40137133  0.01878467  0.75397367  1
  F  F22  1  0.98121533  0.38258667  0.75397367  1
  F  F23  1  0.61741333  0.59862867  0.75397367  1
