# generated using pymatgen
data_KHo2F7
_symmetry_space_group_name_H-M   'P 1'
_cell_length_a   14.43906600
_cell_length_b   8.05600000
_cell_length_c   12.02089668
_cell_angle_alpha   90.00000000
_cell_angle_beta   125.21506602
_cell_angle_gamma   90.00000000
_symmetry_Int_Tables_number   1
_chemical_formula_structural   KHo2F7
_chemical_formula_sum   'K8 Ho16 F56'
_cell_volume   1142.38874668
_cell_formula_units_Z   8
loop_
 _symmetry_equiv_pos_site_id
 _symmetry_equiv_pos_as_xyz
  1  'x, y, z'
loop_
 _atom_site_type_symbol
 _atom_site_label
 _atom_site_symmetry_multiplicity
 _atom_site_fract_x
 _atom_site_fract_y
 _atom_site_fract_z
 _atom_site_occupancy
  K  K0  1  0.73801000  0.50000000  0.98081100  1
  K  K1  1  0.26199000  0.50000000  0.01918900  1
  K  K2  1  0.26474700  0.00000000  0.34699900  1
  K  K3  1  0.73525300  0.00000000  0.65300100  1
  K  K4  1  0.23801000  0.00000000  0.98081100  1
  K  K5  1  0.76199000  0.00000000  0.01918900  1
  K  K6  1  0.76474700  0.50000000  0.34699900  1
  K  K7  1  0.23525300  0.50000000  0.65300100  1
  Ho  Ho8  1  0.50042250  0.23739050  0.68041300  1
  Ho  Ho9  1  0.00000000  0.75918100  0.00000000  1
  Ho  Ho10  1  0.49957750  0.23739050  0.31958700  1
  Ho  Ho11  1  0.00000000  0.24081900  0.00000000  1
  Ho  Ho12  1  0.50042250  0.76260950  0.68041300  1
  Ho  Ho13  1  0.75822000  0.50000000  0.67873900  1
  Ho  Ho14  1  0.49957750  0.76260950  0.31958700  1
  Ho  Ho15  1  0.24178000  0.50000000  0.32126100  1
  Ho  Ho16  1  0.00042250  0.73739050  0.68041300  1
  Ho  Ho17  1  0.50000000  0.25918100  0.00000000  1
  Ho  Ho18  1  0.99957750  0.73739050  0.31958700  1
  Ho  Ho19  1  0.50000000  0.74081900  0.00000000  1
  Ho  Ho20  1  0.00042250  0.26260950  0.68041300  1
  Ho  Ho21  1  0.25822000  0.00000000  0.67873900  1
  Ho  Ho22  1  0.99957750  0.26260950  0.31958700  1
  Ho  Ho23  1  0.74178000  0.00000000  0.32126100  1
  F  F24  1  0.39935650  0.76483750  0.08479500  1
  F  F25  1  0.61736750  0.76412150  0.23659700  1
  F  F26  1  0.89595400  0.00000000  0.92674200  1
  F  F27  1  0.50000000  0.82098000  0.50000000  1
  F  F28  1  0.50331600  0.50000000  0.73068500  1
  F  F29  1  0.67191600  0.32935600  0.73855400  1
  F  F30  1  0.50000000  0.17902000  0.50000000  1
  F  F31  1  0.32808400  0.67064400  0.26144600  1
  F  F32  1  0.33601850  0.66759450  0.49874600  1
  F  F33  1  0.38263250  0.76412150  0.76340300  1
  F  F34  1  0.38263250  0.23587850  0.76340300  1
  F  F35  1  0.38558000  0.00000000  0.61873400  1
  F  F36  1  0.10553300  0.50000000  0.08747600  1
  F  F37  1  0.60064350  0.23516250  0.91520500  1
  F  F38  1  0.33601850  0.33240550  0.49874600  1
  F  F39  1  0.60064350  0.76483750  0.91520500  1
  F  F40  1  0.61736750  0.23587850  0.23659700  1
  F  F41  1  0.67191600  0.67064400  0.73855400  1
  F  F42  1  0.39688200  0.00000000  0.25140500  1
  F  F43  1  0.49668400  0.50000000  0.26931500  1
  F  F44  1  0.66398150  0.66759450  0.50125400  1
  F  F45  1  0.60311800  0.00000000  0.74859500  1
  F  F46  1  0.61442000  0.00000000  0.38126600  1
  F  F47  1  0.32808400  0.32935600  0.26144600  1
  F  F48  1  0.39935650  0.23516250  0.08479500  1
  F  F49  1  0.10404600  0.00000000  0.07325800  1
  F  F50  1  0.66398150  0.33240550  0.50125400  1
  F  F51  1  0.89446700  0.50000000  0.91252400  1
  F  F52  1  0.89935650  0.26483750  0.08479500  1
  F  F53  1  0.11736750  0.26412150  0.23659700  1
  F  F54  1  0.39595400  0.50000000  0.92674200  1
  F  F55  1  0.00000000  0.32098000  0.50000000  1
  F  F56  1  0.00331600  0.00000000  0.73068500  1
  F  F57  1  0.17191600  0.82935600  0.73855400  1
  F  F58  1  0.00000000  0.67902000  0.50000000  1
  F  F59  1  0.82808400  0.17064400  0.26144600  1
  F  F60  1  0.83601850  0.16759450  0.49874600  1
  F  F61  1  0.88263250  0.26412150  0.76340300  1
  F  F62  1  0.88263250  0.73587850  0.76340300  1
  F  F63  1  0.88558000  0.50000000  0.61873400  1
  F  F64  1  0.60553300  0.00000000  0.08747600  1
  F  F65  1  0.10064350  0.73516250  0.91520500  1
  F  F66  1  0.83601850  0.83240550  0.49874600  1
  F  F67  1  0.10064350  0.26483750  0.91520500  1
  F  F68  1  0.11736750  0.73587850  0.23659700  1
  F  F69  1  0.17191600  0.17064400  0.73855400  1
  F  F70  1  0.89688200  0.50000000  0.25140500  1
  F  F71  1  0.99668400  0.00000000  0.26931500  1
  F  F72  1  0.16398150  0.16759450  0.50125400  1
  F  F73  1  0.10311800  0.50000000  0.74859500  1
  F  F74  1  0.11442000  0.50000000  0.38126600  1
  F  F75  1  0.82808400  0.82935600  0.26144600  1
  F  F76  1  0.89935650  0.73516250  0.08479500  1
  F  F77  1  0.60404600  0.50000000  0.07325800  1
  F  F78  1  0.16398150  0.83240550  0.50125400  1
  F  F79  1  0.39446700  0.00000000  0.91252400  1
