# generated using pymatgen
data_MgAl2O4
_symmetry_space_group_name_H-M   'P 1'
_cell_length_a   5.74858003
_cell_length_b   5.74858003
_cell_length_c   14.22371305
_cell_angle_alpha   90.00000000
_cell_angle_beta   90.00000000
_cell_angle_gamma   120.00000000
_symmetry_Int_Tables_number   1
_chemical_formula_structural   MgAl2O4
_chemical_formula_sum   'Mg6 Al12 O24'
_cell_volume   407.06595164
_cell_formula_units_Z   6
loop_
 _symmetry_equiv_pos_site_id
 _symmetry_equiv_pos_as_xyz
  1  'x, y, z'
loop_
 _atom_site_type_symbol
 _atom_site_label
 _atom_site_symmetry_multiplicity
 _atom_site_fract_x
 _atom_site_fract_y
 _atom_site_fract_z
 _atom_site_occupancy
  Mg  Mg0  1  0.33333333  0.66666667  0.04464467  1
  Mg  Mg1  1  0.00000000  0.00000000  0.00133500  1
  Mg  Mg2  1  0.00000000  0.00000000  0.37797800  1
  Mg  Mg3  1  0.66666667  0.33333333  0.33466833  1
  Mg  Mg4  1  0.66666667  0.33333333  0.71131133  1
  Mg  Mg5  1  0.33333333  0.66666667  0.66800167  1
  Al  Al6  1  0.83799467  0.16200533  0.16556233  1
  Al  Al7  1  0.32401067  0.16200533  0.16556233  1
  Al  Al8  1  0.83799467  0.67598933  0.16556233  1
  Al  Al9  1  0.33333333  0.66666667  0.28637667  1
  Al  Al10  1  0.50466133  0.49533867  0.49889567  1
  Al  Al11  1  0.99067733  0.49533867  0.49889567  1
  Al  Al12  1  0.50466133  0.00932267  0.49889567  1
  Al  Al13  1  0.00000000  0.00000000  0.61971000  1
  Al  Al14  1  0.17132800  0.82867200  0.83222900  1
  Al  Al15  1  0.65734400  0.82867200  0.83222900  1
  Al  Al16  1  0.17132800  0.34265600  0.83222900  1
  Al  Al17  1  0.66666667  0.33333333  0.95304333  1
  O  O18  1  0.69370133  0.84685067  0.09428867  1
  O  O19  1  0.15314933  0.84685067  0.09428867  1
  O  O20  1  0.15314933  0.30629867  0.09428867  1
  O  O21  1  0.00000000  0.00000000  0.23986500  1
  O  O22  1  0.66666667  0.33333333  0.08748633  1
  O  O23  1  0.50644267  0.01288533  0.24246833  1
  O  O24  1  0.50644267  0.49355733  0.24246833  1
  O  O25  1  0.98711467  0.49355733  0.24246833  1
  O  O26  1  0.36036800  0.18018400  0.42762200  1
  O  O27  1  0.81981600  0.18018400  0.42762200  1
  O  O28  1  0.81981600  0.63963200  0.42762200  1
  O  O29  1  0.66666667  0.33333333  0.57319833  1
  O  O30  1  0.33333333  0.66666667  0.42081967  1
  O  O31  1  0.17310933  0.34621867  0.57580167  1
  O  O32  1  0.17310933  0.82689067  0.57580167  1
  O  O33  1  0.65378133  0.82689067  0.57580167  1
  O  O34  1  0.02703467  0.51351733  0.76095533  1
  O  O35  1  0.48648267  0.51351733  0.76095533  1
  O  O36  1  0.48648267  0.97296533  0.76095533  1
  O  O37  1  0.33333333  0.66666667  0.90653167  1
  O  O38  1  0.00000000  0.00000000  0.75415300  1
  O  O39  1  0.83977600  0.67955200  0.90913500  1
  O  O40  1  0.83977600  0.16022400  0.90913500  1
  O  O41  1  0.32044800  0.16022400  0.90913500  1
