# generated using pymatgen
data_NaHS
_symmetry_space_group_name_H-M   'P 1'
_cell_length_a   4.49353803
_cell_length_b   4.49353803
_cell_length_c   9.02291209
_cell_angle_alpha   90.00000000
_cell_angle_beta   90.00000000
_cell_angle_gamma   120.00000000
_symmetry_Int_Tables_number   1
_chemical_formula_structural   NaHS
_chemical_formula_sum   'Na3 H3 S3'
_cell_volume   157.78081750
_cell_formula_units_Z   3
loop_
 _symmetry_equiv_pos_site_id
 _symmetry_equiv_pos_as_xyz
  1  'x, y, z'
loop_
 _atom_site_type_symbol
 _atom_site_label
 _atom_site_symmetry_multiplicity
 _atom_site_fract_x
 _atom_site_fract_y
 _atom_site_fract_z
 _atom_site_occupancy
  Na  Na0  1  0.33333333  0.66666667  0.16780867  1
  Na  Na1  1  0.00000000  0.00000000  0.50114200  1
  Na  Na2  1  0.66666667  0.33333333  0.83447533  1
  H  H3  1  0.33333333  0.66666667  0.80913967  1
  H  H4  1  0.00000000  0.00000000  0.14247300  1
  H  H5  1  0.66666667  0.33333333  0.47580633  1
  S  S6  1  0.33333333  0.66666667  0.65905167  1
  S  S7  1  0.00000000  0.00000000  0.99238500  1
  S  S8  1  0.66666667  0.33333333  0.32571833  1
