# generated using pymatgen
data_Ba(NdS2)2
_symmetry_space_group_name_H-M   'P 1'
_cell_length_a   8.86746200
_cell_length_b   8.86746200
_cell_length_c   8.86431400
_cell_angle_alpha   90.00000000
_cell_angle_beta   90.00000000
_cell_angle_gamma   90.00000000
_symmetry_Int_Tables_number   1
_chemical_formula_structural   Ba(NdS2)2
_chemical_formula_sum   'Ba4 Nd8 S16'
_cell_volume   697.01769531
_cell_formula_units_Z   4
loop_
 _symmetry_equiv_pos_site_id
 _symmetry_equiv_pos_as_xyz
  1  'x, y, z'
loop_
 _atom_site_type_symbol
 _atom_site_label
 _atom_site_symmetry_multiplicity
 _atom_site_fract_x
 _atom_site_fract_y
 _atom_site_fract_z
 _atom_site_occupancy
  Ba  Ba0  1  0.50000000  0.50000000  0.50000000  1
  Ba  Ba1  1  0.50000000  0.00000000  0.25000000  1
  Ba  Ba2  1  0.00000000  0.00000000  0.00000000  1
  Ba  Ba3  1  0.00000000  0.50000000  0.75000000  1
  Nd  Nd4  1  0.75000000  0.87853700  0.62500000  1
  Nd  Nd5  1  0.87853700  0.25000000  0.37500000  1
  Nd  Nd6  1  0.75000000  0.62146300  0.12500000  1
  Nd  Nd7  1  0.62146300  0.25000000  0.87500000  1
  Nd  Nd8  1  0.25000000  0.37853700  0.12500000  1
  Nd  Nd9  1  0.37853700  0.75000000  0.87500000  1
  Nd  Nd10  1  0.25000000  0.12146300  0.62500000  1
  Nd  Nd11  1  0.12146300  0.75000000  0.37500000  1
  S  S12  1  0.16773400  0.07758500  0.31498700  1
  S  S13  1  0.57758500  0.33226600  0.18501300  1
  S  S14  1  0.57758500  0.16773400  0.56498700  1
  S  S15  1  0.66773400  0.92241500  0.93501300  1
  S  S16  1  0.83226600  0.57758500  0.43501300  1
  S  S17  1  0.92241500  0.16773400  0.68501300  1
  S  S18  1  0.33226600  0.42241500  0.81498700  1
  S  S19  1  0.92241500  0.33226600  0.06498700  1
  S  S20  1  0.66773400  0.57758500  0.81498700  1
  S  S21  1  0.07758500  0.83226600  0.68501300  1
  S  S22  1  0.07758500  0.66773400  0.06498700  1
  S  S23  1  0.16773400  0.42241500  0.43501300  1
  S  S24  1  0.33226600  0.07758500  0.93501300  1
  S  S25  1  0.42241500  0.66773400  0.18501300  1
  S  S26  1  0.83226600  0.92241500  0.31498700  1
  S  S27  1  0.42241500  0.83226600  0.56498700  1
