# generated using pymatgen
data_Dy10Ti6O27
_symmetry_space_group_name_H-M   'P 1'
_cell_length_a   12.94952800
_cell_length_b   7.27834000
_cell_length_c   12.55316637
_cell_angle_alpha   90.00000000
_cell_angle_beta   110.71006364
_cell_angle_gamma   90.00000000
_symmetry_Int_Tables_number   1
_chemical_formula_structural   Dy10Ti6O27
_chemical_formula_sum   'Dy20 Ti12 O54'
_cell_volume   1106.69650729
_cell_formula_units_Z   2
loop_
 _symmetry_equiv_pos_site_id
 _symmetry_equiv_pos_as_xyz
  1  'x, y, z'
loop_
 _atom_site_type_symbol
 _atom_site_label
 _atom_site_symmetry_multiplicity
 _atom_site_fract_x
 _atom_site_fract_y
 _atom_site_fract_z
 _atom_site_occupancy
  Dy  Dy0  1  0.51994800  0.00000000  0.00371900  1
  Dy  Dy1  1  0.98159100  0.00000000  0.00940700  1
  Dy  Dy2  1  0.25752400  0.00000000  0.72506300  1
  Dy  Dy3  1  0.00394450  0.74574450  0.74683000  1
  Dy  Dy4  1  0.00394450  0.25425550  0.74683000  1
  Dy  Dy5  1  0.01629100  0.50000000  0.49687200  1
  Dy  Dy6  1  0.24572800  0.50000000  0.76602300  1
  Dy  Dy7  1  0.02547650  0.25359950  0.26864600  1
  Dy  Dy8  1  0.02547650  0.74640050  0.26864600  1
  Dy  Dy9  1  0.74960600  0.50000000  0.23225400  1
  Dy  Dy10  1  0.01994800  0.50000000  0.00371900  1
  Dy  Dy11  1  0.48159100  0.50000000  0.00940700  1
  Dy  Dy12  1  0.75752400  0.50000000  0.72506300  1
  Dy  Dy13  1  0.50394450  0.24574450  0.74683000  1
  Dy  Dy14  1  0.50394450  0.75425550  0.74683000  1
  Dy  Dy15  1  0.51629100  0.00000000  0.49687200  1
  Dy  Dy16  1  0.74572800  0.00000000  0.76602300  1
  Dy  Dy17  1  0.52547650  0.75359950  0.26864600  1
  Dy  Dy18  1  0.52547650  0.24640050  0.26864600  1
  Dy  Dy19  1  0.24960600  0.00000000  0.23225400  1
  Ti  Ti20  1  0.25833150  0.23688050  0.99568000  1
  Ti  Ti21  1  0.25833150  0.76311950  0.99568000  1
  Ti  Ti22  1  0.74783800  0.00000000  0.24313300  1
  Ti  Ti23  1  0.00152700  0.00000000  0.49371600  1
  Ti  Ti24  1  0.76371200  0.75589800  0.50585800  1
  Ti  Ti25  1  0.76371200  0.24410200  0.50585800  1
  Ti  Ti26  1  0.75833150  0.73688050  0.99568000  1
  Ti  Ti27  1  0.75833150  0.26311950  0.99568000  1
  Ti  Ti28  1  0.24783800  0.50000000  0.24313300  1
  Ti  Ti29  1  0.50152700  0.50000000  0.49371600  1
  Ti  Ti30  1  0.26371200  0.25589800  0.50585800  1
  Ti  Ti31  1  0.26371200  0.74410200  0.50585800  1
  O  O32  1  0.31713800  0.70937200  0.68278300  1
  O  O33  1  0.28918700  0.50000000  0.95869800  1
  O  O34  1  0.05528050  0.22130550  0.93513300  1
  O  O35  1  0.31713800  0.29062800  0.68278300  1
  O  O36  1  0.73822100  0.81827300  0.13669600  1
  O  O37  1  0.93647500  0.50000000  0.81327800  1
  O  O38  1  0.91150050  0.76809350  0.52321900  1
  O  O39  1  0.26767500  0.00000000  0.54310800  1
  O  O40  1  0.05929600  0.00000000  0.65816500  1
  O  O41  1  0.05528050  0.77869450  0.93513300  1
  O  O42  1  0.21070450  0.78795350  0.83594900  1
  O  O43  1  0.93183500  0.50000000  0.31028800  1
  O  O44  1  0.08153150  0.79859250  0.46232700  1
  O  O45  1  0.07016700  0.50000000  0.68488600  1
  O  O46  1  0.91150050  0.23190650  0.52321900  1
  O  O47  1  0.73822100  0.18172700  0.13669600  1
  O  O48  1  0.91257450  0.28585950  0.05737300  1
  O  O49  1  0.90596900  0.00000000  0.32580400  1
  O  O50  1  0.08692400  0.50000000  0.20435000  1
  O  O51  1  0.21070450  0.21204650  0.83594900  1
  O  O52  1  0.19686700  0.50000000  0.50096300  1
  O  O53  1  0.08153150  0.20140750  0.46232700  1
  O  O54  1  0.71971900  0.74607000  0.33980200  1
  O  O55  1  0.06440600  0.00000000  0.18914300  1
  O  O56  1  0.91257450  0.71414050  0.05737300  1
  O  O57  1  0.73737800  0.50000000  0.04803600  1
  O  O58  1  0.71971900  0.25393000  0.33980200  1
  O  O59  1  0.81713800  0.20937200  0.68278300  1
  O  O60  1  0.78918700  0.00000000  0.95869800  1
  O  O61  1  0.55528050  0.72130550  0.93513300  1
  O  O62  1  0.81713800  0.79062800  0.68278300  1
  O  O63  1  0.23822100  0.31827300  0.13669600  1
  O  O64  1  0.43647500  0.00000000  0.81327800  1
  O  O65  1  0.41150050  0.26809350  0.52321900  1
  O  O66  1  0.76767500  0.50000000  0.54310800  1
  O  O67  1  0.55929600  0.50000000  0.65816500  1
  O  O68  1  0.55528050  0.27869450  0.93513300  1
  O  O69  1  0.71070450  0.28795350  0.83594900  1
  O  O70  1  0.43183500  0.00000000  0.31028800  1
  O  O71  1  0.58153150  0.29859250  0.46232700  1
  O  O72  1  0.57016700  0.00000000  0.68488600  1
  O  O73  1  0.41150050  0.73190650  0.52321900  1
  O  O74  1  0.23822100  0.68172700  0.13669600  1
  O  O75  1  0.41257450  0.78585950  0.05737300  1
  O  O76  1  0.40596900  0.50000000  0.32580400  1
  O  O77  1  0.58692400  0.00000000  0.20435000  1
  O  O78  1  0.71070450  0.71204650  0.83594900  1
  O  O79  1  0.69686700  0.00000000  0.50096300  1
  O  O80  1  0.58153150  0.70140750  0.46232700  1
  O  O81  1  0.21971900  0.24607000  0.33980200  1
  O  O82  1  0.56440600  0.50000000  0.18914300  1
  O  O83  1  0.41257450  0.21414050  0.05737300  1
  O  O84  1  0.23737800  0.00000000  0.04803600  1
  O  O85  1  0.21971900  0.75393000  0.33980200  1
