# generated using pymatgen
data_Nd5AgSe8
_symmetry_space_group_name_H-M   'P 1'
_cell_length_a   8.90486000
_cell_length_b   8.90486000
_cell_length_c   9.01849000
_cell_angle_alpha   90.00000000
_cell_angle_beta   90.00000000
_cell_angle_gamma   90.00000000
_symmetry_Int_Tables_number   1
_chemical_formula_structural   Nd5AgSe8
_chemical_formula_sum   'Nd10 Ag2 Se16'
_cell_volume   715.13497745
_cell_formula_units_Z   2
loop_
 _symmetry_equiv_pos_site_id
 _symmetry_equiv_pos_as_xyz
  1  'x, y, z'
loop_
 _atom_site_type_symbol
 _atom_site_label
 _atom_site_symmetry_multiplicity
 _atom_site_fract_x
 _atom_site_fract_y
 _atom_site_fract_z
 _atom_site_occupancy
  Nd  Nd0  1  0.13024500  0.25205400  0.37023000  1
  Nd  Nd1  1  0.25205400  0.86975500  0.62977000  1
  Nd  Nd2  1  0.36975500  0.24794600  0.87023000  1
  Nd  Nd3  1  0.50000000  0.00000000  0.25000000  1
  Nd  Nd4  1  0.24794600  0.63024500  0.12977000  1
  Nd  Nd5  1  0.63024500  0.75205400  0.87023000  1
  Nd  Nd6  1  0.75205400  0.36975500  0.12977000  1
  Nd  Nd7  1  0.86975500  0.74794600  0.37023000  1
  Nd  Nd8  1  0.00000000  0.50000000  0.75000000  1
  Nd  Nd9  1  0.74794600  0.13024500  0.62977000  1
  Ag  Ag10  1  0.00000000  0.00000000  0.00000000  1
  Ag  Ag11  1  0.50000000  0.50000000  0.50000000  1
  Se  Se12  1  0.42888550  0.17952150  0.54639950  1
  Se  Se13  1  0.18065250  0.92369850  0.31242050  1
  Se  Se14  1  0.07630150  0.18065250  0.68757950  1
  Se  Se15  1  0.67952150  0.07111450  0.95360050  1
  Se  Se16  1  0.31934750  0.57630150  0.81242050  1
  Se  Se17  1  0.42369850  0.31934750  0.18757950  1
  Se  Se18  1  0.82047850  0.42888550  0.45360050  1
  Se  Se19  1  0.07111450  0.32047850  0.04639950  1
  Se  Se20  1  0.92888550  0.67952150  0.04639950  1
  Se  Se21  1  0.68065250  0.42369850  0.81242050  1
  Se  Se22  1  0.57630150  0.68065250  0.18757950  1
  Se  Se23  1  0.17952150  0.57111450  0.45360050  1
  Se  Se24  1  0.81934750  0.07630150  0.31242050  1
  Se  Se25  1  0.92369850  0.81934750  0.68757950  1
  Se  Se26  1  0.32047850  0.92888550  0.95360050  1
  Se  Se27  1  0.57111450  0.82047850  0.54639950  1
