# generated using pymatgen
data_Sr2CoReO6
_symmetry_space_group_name_H-M   'P 1'
_cell_length_a   5.62969528
_cell_length_b   5.62969528
_cell_length_c   8.03435040
_cell_angle_alpha   90.00000000
_cell_angle_beta   90.00000000
_cell_angle_gamma   90.00000000
_symmetry_Int_Tables_number   1
_chemical_formula_structural   Sr2CoReO6
_chemical_formula_sum   'Sr4 Co2 Re2 O12'
_cell_volume   254.63643452
_cell_formula_units_Z   2
loop_
 _symmetry_equiv_pos_site_id
 _symmetry_equiv_pos_as_xyz
  1  'x, y, z'
loop_
 _atom_site_type_symbol
 _atom_site_label
 _atom_site_symmetry_multiplicity
 _atom_site_fract_x
 _atom_site_fract_y
 _atom_site_fract_z
 _atom_site_occupancy
  Sr  Sr0  1  0.00000000  0.50000000  0.25000000  1
  Sr  Sr1  1  0.50000000  0.00000000  0.25000000  1
  Sr  Sr2  1  0.50000000  0.00000000  0.75000000  1
  Sr  Sr3  1  0.00000000  0.50000000  0.75000000  1
  Co  Co4  1  0.50000000  0.50000000  0.50000000  1
  Co  Co5  1  0.00000000  0.00000000  0.00000000  1
  Re  Re6  1  0.50000000  0.50000000  0.00000000  1
  Re  Re7  1  0.00000000  0.00000000  0.50000000  1
  O  O8  1  0.00000000  0.00000000  0.25648500  1
  O  O9  1  0.50000000  0.50000000  0.24351500  1
  O  O10  1  0.19639050  0.28041150  0.50000000  1
  O  O11  1  0.71958850  0.19639050  0.50000000  1
  O  O12  1  0.78041150  0.30360950  0.00000000  1
  O  O13  1  0.30360950  0.21958850  0.00000000  1
  O  O14  1  0.50000000  0.50000000  0.75648500  1
  O  O15  1  0.00000000  0.00000000  0.74351500  1
  O  O16  1  0.69639050  0.78041150  0.00000000  1
  O  O17  1  0.21958850  0.69639050  0.00000000  1
  O  O18  1  0.28041150  0.80360950  0.50000000  1
  O  O19  1  0.80360950  0.71958850  0.50000000  1
