# generated using pymatgen
data_Nd3Cu3Sb4
_symmetry_space_group_name_H-M   'P 1'
_cell_length_a   9.77130400
_cell_length_b   9.77130400
_cell_length_c   9.77130400
_cell_angle_alpha   90.00000000
_cell_angle_beta   90.00000000
_cell_angle_gamma   90.00000000
_symmetry_Int_Tables_number   1
_chemical_formula_structural   Nd3Cu3Sb4
_chemical_formula_sum   'Nd12 Cu12 Sb16'
_cell_volume   932.94829459
_cell_formula_units_Z   4
loop_
 _symmetry_equiv_pos_site_id
 _symmetry_equiv_pos_as_xyz
  1  'x, y, z'
loop_
 _atom_site_type_symbol
 _atom_site_label
 _atom_site_symmetry_multiplicity
 _atom_site_fract_x
 _atom_site_fract_y
 _atom_site_fract_z
 _atom_site_occupancy
  Nd  Nd0  1  0.00000000  0.75000000  0.12500000  1
  Nd  Nd1  1  0.75000000  0.12500000  0.00000000  1
  Nd  Nd2  1  0.12500000  0.00000000  0.75000000  1
  Nd  Nd3  1  0.37500000  0.00000000  0.25000000  1
  Nd  Nd4  1  0.00000000  0.25000000  0.37500000  1
  Nd  Nd5  1  0.25000000  0.37500000  0.00000000  1
  Nd  Nd6  1  0.50000000  0.25000000  0.62500000  1
  Nd  Nd7  1  0.25000000  0.62500000  0.50000000  1
  Nd  Nd8  1  0.62500000  0.50000000  0.25000000  1
  Nd  Nd9  1  0.87500000  0.50000000  0.75000000  1
  Nd  Nd10  1  0.50000000  0.75000000  0.87500000  1
  Nd  Nd11  1  0.75000000  0.87500000  0.50000000  1
  Cu  Cu12  1  0.50000000  0.75000000  0.37500000  1
  Cu  Cu13  1  0.37500000  0.50000000  0.75000000  1
  Cu  Cu14  1  0.12500000  0.50000000  0.25000000  1
  Cu  Cu15  1  0.25000000  0.12500000  0.50000000  1
  Cu  Cu16  1  0.75000000  0.37500000  0.50000000  1
  Cu  Cu17  1  0.50000000  0.25000000  0.12500000  1
  Cu  Cu18  1  0.00000000  0.25000000  0.87500000  1
  Cu  Cu19  1  0.87500000  0.00000000  0.25000000  1
  Cu  Cu20  1  0.62500000  0.00000000  0.75000000  1
  Cu  Cu21  1  0.75000000  0.62500000  0.00000000  1
  Cu  Cu22  1  0.25000000  0.87500000  0.00000000  1
  Cu  Cu23  1  0.00000000  0.75000000  0.62500000  1
  Sb  Sb24  1  0.91972450  0.41972450  0.08027550  1
  Sb  Sb25  1  0.41972450  0.08027550  0.91972450  1
  Sb  Sb26  1  0.08027550  0.91972450  0.41972450  1
  Sb  Sb27  1  0.66972450  0.83027550  0.16972450  1
  Sb  Sb28  1  0.33027550  0.33027550  0.33027550  1
  Sb  Sb29  1  0.83027550  0.16972450  0.66972450  1
  Sb  Sb30  1  0.08027550  0.08027550  0.08027550  1
  Sb  Sb31  1  0.16972450  0.66972450  0.83027550  1
  Sb  Sb32  1  0.41972450  0.91972450  0.58027550  1
  Sb  Sb33  1  0.91972450  0.58027550  0.41972450  1
  Sb  Sb34  1  0.58027550  0.41972450  0.91972450  1
  Sb  Sb35  1  0.16972450  0.33027550  0.66972450  1
  Sb  Sb36  1  0.83027550  0.83027550  0.83027550  1
  Sb  Sb37  1  0.33027550  0.66972450  0.16972450  1
  Sb  Sb38  1  0.58027550  0.58027550  0.58027550  1
  Sb  Sb39  1  0.66972450  0.16972450  0.33027550  1
