# generated using pymatgen
data_Sc(IO3)3
_symmetry_space_group_name_H-M   'P 1'
_cell_length_a   9.88801757
_cell_length_b   9.88801757
_cell_length_c   14.66890541
_cell_angle_alpha   90.00000000
_cell_angle_beta   90.00000000
_cell_angle_gamma   120.00000000
_symmetry_Int_Tables_number   1
_chemical_formula_structural   Sc(IO3)3
_chemical_formula_sum   'Sc6 I18 O54'
_cell_volume   1242.07207713
_cell_formula_units_Z   6
loop_
 _symmetry_equiv_pos_site_id
 _symmetry_equiv_pos_as_xyz
  1  'x, y, z'
loop_
 _atom_site_type_symbol
 _atom_site_label
 _atom_site_symmetry_multiplicity
 _atom_site_fract_x
 _atom_site_fract_y
 _atom_site_fract_z
 _atom_site_occupancy
  Sc  Sc0  1  0.33333333  0.66666667  0.48963467  1
  Sc  Sc1  1  0.33333333  0.66666667  0.84369867  1
  Sc  Sc2  1  0.00000000  0.00000000  0.82296800  1
  Sc  Sc3  1  0.00000000  0.00000000  0.17703200  1
  Sc  Sc4  1  0.66666667  0.33333333  0.15630133  1
  Sc  Sc5  1  0.66666667  0.33333333  0.51036533  1
  I  I6  1  0.03727900  0.37437700  0.24288400  1
  I  I7  1  0.62562300  0.66290200  0.24288400  1
  I  I8  1  0.33709800  0.96272100  0.24288400  1
  I  I9  1  0.62938767  0.95895633  0.09044933  1
  I  I10  1  0.04104367  0.67043133  0.09044933  1
  I  I11  1  0.32956867  0.37061233  0.09044933  1
  I  I12  1  0.70394567  0.70771033  0.57621733  1
  I  I13  1  0.29228967  0.99623533  0.57621733  1
  I  I14  1  0.00376467  0.29605433  0.57621733  1
  I  I15  1  0.29605433  0.29228967  0.42378267  1
  I  I16  1  0.70771033  0.00376467  0.42378267  1
  I  I17  1  0.99623533  0.70394567  0.42378267  1
  I  I18  1  0.37061233  0.04104367  0.90955067  1
  I  I19  1  0.95895633  0.32956867  0.90955067  1
  I  I20  1  0.67043133  0.62938767  0.90955067  1
  I  I21  1  0.96272100  0.62562300  0.75711600  1
  I  I22  1  0.37437700  0.33709800  0.75711600  1
  I  I23  1  0.66290200  0.03727900  0.75711600  1
  O  O24  1  0.09200100  0.39888500  0.12153900  1
  O  O25  1  0.60111500  0.69311600  0.12153900  1
  O  O26  1  0.30688400  0.90799900  0.12153900  1
  O  O27  1  0.57466567  0.93444833  0.21179433  1
  O  O28  1  0.06555167  0.64021733  0.21179433  1
  O  O29  1  0.35978267  0.42533433  0.21179433  1
  O  O30  1  0.35730333  0.85000167  0.93025767  1
  O  O31  1  0.14999833  0.50730167  0.93025767  1
  O  O32  1  0.19183367  0.16065333  0.09705133  1
  O  O33  1  0.96881967  0.80816633  0.09705133  1
  O  O34  1  0.83934667  0.03118033  0.09705133  1
  O  O35  1  0.47483300  0.17268000  0.23628200  1
  O  O36  1  0.69784700  0.52516700  0.23628200  1
  O  O37  1  0.82732000  0.30215300  0.23628200  1
  O  O38  1  0.17396833  0.69063667  0.40307567  1
  O  O39  1  0.51666833  0.82603167  0.40307567  1
  O  O40  1  0.30936333  0.48333167  0.40307567  1
  O  O41  1  0.49269833  0.64269667  0.93025767  1
  O  O42  1  0.75866767  0.73221833  0.45487233  1
  O  O43  1  0.26778167  0.02644933  0.45487233  1
  O  O44  1  0.97355067  0.24133233  0.45487233  1
  O  O45  1  0.24133233  0.26778167  0.54512767  1
  O  O46  1  0.73221833  0.97355067  0.54512767  1
  O  O47  1  0.02644933  0.75866767  0.54512767  1
  O  O48  1  0.02397000  0.18333500  0.26359100  1
  O  O49  1  0.81666500  0.84063500  0.26359100  1
  O  O50  1  0.85850033  0.49398667  0.43038467  1
  O  O51  1  0.63548633  0.14149967  0.43038467  1
  O  O52  1  0.50601333  0.36451367  0.43038467  1
  O  O53  1  0.14149967  0.50601333  0.56961533  1
  O  O54  1  0.36451367  0.85850033  0.56961533  1
  O  O55  1  0.49398667  0.63548633  0.56961533  1
  O  O56  1  0.84063500  0.02397000  0.73640900  1
  O  O57  1  0.18333500  0.15936500  0.73640900  1
  O  O58  1  0.97603000  0.81666500  0.73640900  1
  O  O59  1  0.15936500  0.97603000  0.26359100  1
  O  O60  1  0.42533433  0.06555167  0.78820567  1
  O  O61  1  0.93444833  0.35978267  0.78820567  1
  O  O62  1  0.64021733  0.57466567  0.78820567  1
  O  O63  1  0.90799900  0.60111500  0.87846100  1
  O  O64  1  0.39888500  0.30688400  0.87846100  1
  O  O65  1  0.69311600  0.09200100  0.87846100  1
  O  O66  1  0.69063667  0.51666833  0.59692433  1
  O  O67  1  0.48333167  0.17396833  0.59692433  1
  O  O68  1  0.52516700  0.82732000  0.76371800  1
  O  O69  1  0.30215300  0.47483300  0.76371800  1
  O  O70  1  0.17268000  0.69784700  0.76371800  1
  O  O71  1  0.80816633  0.83934667  0.90294867  1
  O  O72  1  0.03118033  0.19183367  0.90294867  1
  O  O73  1  0.16065333  0.96881967  0.90294867  1
  O  O74  1  0.50730167  0.35730333  0.06974233  1
  O  O75  1  0.85000167  0.49269833  0.06974233  1
  O  O76  1  0.64269667  0.14999833  0.06974233  1
  O  O77  1  0.82603167  0.30936333  0.59692433  1
