# generated using pymatgen
data_Ag2S
_symmetry_space_group_name_H-M   'P 1'
_cell_length_a   4.78006200
_cell_length_b   7.06396800
_cell_length_c   7.58942200
_cell_angle_alpha   90.00000000
_cell_angle_beta   90.00000000
_cell_angle_gamma   90.00000000
_symmetry_Int_Tables_number   1
_chemical_formula_structural   Ag2S
_chemical_formula_sum   'Ag8 S4'
_cell_volume   256.26597913
_cell_formula_units_Z   4
loop_
 _symmetry_equiv_pos_site_id
 _symmetry_equiv_pos_as_xyz
  1  'x, y, z'
loop_
 _atom_site_type_symbol
 _atom_site_label
 _atom_site_symmetry_multiplicity
 _atom_site_fract_x
 _atom_site_fract_y
 _atom_site_fract_z
 _atom_site_occupancy
  Ag  Ag0  1  0.50000000  0.99345700  0.30878400  1
  Ag  Ag1  1  0.50000000  0.00654300  0.80878400  1
  Ag  Ag2  1  0.50000000  0.60599500  0.06465100  1
  Ag  Ag3  1  0.50000000  0.39400500  0.56465100  1
  Ag  Ag4  1  0.00000000  0.49345700  0.30878400  1
  Ag  Ag5  1  0.00000000  0.50654300  0.80878400  1
  Ag  Ag6  1  0.00000000  0.10599500  0.06465100  1
  Ag  Ag7  1  0.00000000  0.89400500  0.56465100  1
  S  S8  1  0.50000000  0.78329000  0.56381800  1
  S  S9  1  0.50000000  0.21671000  0.06381800  1
  S  S10  1  0.00000000  0.28329000  0.56381800  1
  S  S11  1  0.00000000  0.71671000  0.06381800  1
