# generated using pymatgen
data_Zr2P3H4NO12
_symmetry_space_group_name_H-M   'P 1'
_cell_length_a   8.81099016
_cell_length_b   8.81099016
_cell_length_c   24.71059013
_cell_angle_alpha   90.00000000
_cell_angle_beta   90.00000000
_cell_angle_gamma   120.00000000
_symmetry_Int_Tables_number   1
_chemical_formula_structural   Zr2P3H4NO12
_chemical_formula_sum   'Zr12 P18 H24 N6 O72'
_cell_volume   1661.35782496
_cell_formula_units_Z   6
loop_
 _symmetry_equiv_pos_site_id
 _symmetry_equiv_pos_as_xyz
  1  'x, y, z'
loop_
 _atom_site_type_symbol
 _atom_site_label
 _atom_site_symmetry_multiplicity
 _atom_site_fract_x
 _atom_site_fract_y
 _atom_site_fract_z
 _atom_site_occupancy
  Zr  Zr0  1  0.66666667  0.33333333  0.18192433  1
  Zr  Zr1  1  0.33333333  0.66666667  0.31712967  1
  Zr  Zr2  1  0.33333333  0.66666667  0.01525767  1
  Zr  Zr3  1  0.00000000  0.00000000  0.15046300  1
  Zr  Zr4  1  0.33333333  0.66666667  0.51525767  1
  Zr  Zr5  1  0.00000000  0.00000000  0.65046300  1
  Zr  Zr6  1  0.00000000  0.00000000  0.34859100  1
  Zr  Zr7  1  0.66666667  0.33333333  0.48379633  1
  Zr  Zr8  1  0.00000000  0.00000000  0.84859100  1
  Zr  Zr9  1  0.66666667  0.33333333  0.98379633  1
  Zr  Zr10  1  0.66666667  0.33333333  0.68192433  1
  Zr  Zr11  1  0.33333333  0.66666667  0.81712967  1
  P  P12  1  0.71368133  0.71595967  0.24910867  1
  P  P13  1  0.28404033  0.99772167  0.24910867  1
  P  P14  1  0.00227833  0.28631867  0.24910867  1
  P  P15  1  0.66894500  0.04929300  0.08244200  1
  P  P16  1  0.38034800  0.33105500  0.08244200  1
  P  P17  1  0.95070700  0.61965200  0.08244200  1
  P  P18  1  0.38034800  0.04929300  0.58244200  1
  P  P19  1  0.95070700  0.33105500  0.58244200  1
  P  P20  1  0.66894500  0.61965200  0.58244200  1
  P  P21  1  0.33561167  0.38262633  0.41577533  1
  P  P22  1  0.04701467  0.66438833  0.41577533  1
  P  P23  1  0.61737367  0.95298533  0.41577533  1
  P  P24  1  0.04701467  0.38262633  0.91577533  1
  P  P25  1  0.61737367  0.66438833  0.91577533  1
  P  P26  1  0.33561167  0.95298533  0.91577533  1
  P  P27  1  0.00227833  0.71595967  0.74910867  1
  P  P28  1  0.71368133  0.99772167  0.74910867  1
  P  P29  1  0.28404033  0.28631867  0.74910867  1
  H  H30  1  0.33333333  0.66666667  0.20271467  1
  H  H31  1  0.39910500  0.60676000  0.14607100  1
  H  H32  1  0.39324000  0.79234500  0.14607100  1
  H  H33  1  0.20765500  0.60089500  0.14607100  1
  H  H34  1  0.54098833  0.27342667  0.31273767  1
  H  H35  1  0.73243833  0.45901167  0.31273767  1
  H  H36  1  0.72657333  0.26756167  0.31273767  1
  H  H37  1  0.00000000  0.00000000  0.03604800  1
  H  H38  1  0.00000000  0.00000000  0.53604800  1
  H  H39  1  0.06577167  0.94009333  0.47940433  1
  H  H40  1  0.05990667  0.12567833  0.47940433  1
  H  H41  1  0.87432167  0.93422833  0.47940433  1
  H  H42  1  0.20765500  0.60676000  0.64607100  1
  H  H43  1  0.39910500  0.79234500  0.64607100  1
  H  H44  1  0.39324000  0.60089500  0.64607100  1
  H  H45  1  0.66666667  0.33333333  0.36938133  1
  H  H46  1  0.66666667  0.33333333  0.86938133  1
  H  H47  1  0.73243833  0.27342667  0.81273767  1
  H  H48  1  0.72657333  0.45901167  0.81273767  1
  H  H49  1  0.54098833  0.26756167  0.81273767  1
  H  H50  1  0.87432167  0.94009333  0.97940433  1
  H  H51  1  0.06577167  0.12567833  0.97940433  1
  H  H52  1  0.05990667  0.93422833  0.97940433  1
  H  H53  1  0.33333333  0.66666667  0.70271467  1
  N  N54  1  0.66666667  0.33333333  0.32785833  1
  N  N55  1  0.33333333  0.66666667  0.16119167  1
  N  N56  1  0.33333333  0.66666667  0.66119167  1
  N  N57  1  0.00000000  0.00000000  0.49452500  1
  N  N58  1  0.00000000  0.00000000  0.99452500  1
  N  N59  1  0.66666667  0.33333333  0.82785833  1
  O  O60  1  0.82681067  0.54681433  0.03334733  1
  O  O61  1  0.72000367  0.17318933  0.03334733  1
  O  O62  1  0.45318567  0.27999633  0.03334733  1
  O  O63  1  0.69352433  0.53635067  0.23363767  1
  O  O64  1  0.53357900  0.69293600  0.26455000  1
  O  O65  1  0.78651900  0.83985600  0.20001400  1
  O  O66  1  0.46364933  0.15717367  0.23363767  1
  O  O67  1  0.30706400  0.84064300  0.26455000  1
  O  O68  1  0.15935700  0.46642100  0.26455000  1
  O  O69  1  0.82602367  0.02626933  0.09788333  1
  O  O70  1  0.61649833  0.11997667  0.13210967  1
  O  O71  1  0.16014400  0.94666300  0.20001400  1
  O  O72  1  0.50347833  0.38350167  0.13210967  1
  O  O73  1  0.05333700  0.21348100  0.20001400  1
  O  O74  1  0.84282633  0.30647567  0.23363767  1
  O  O75  1  0.50949300  0.86968400  0.06697100  1
  O  O76  1  0.36019100  0.49050700  0.06697100  1
  O  O77  1  0.20024567  0.17397633  0.09788333  1
  O  O78  1  0.88002333  0.49652167  0.13210967  1
  O  O79  1  0.13031600  0.63980900  0.06697100  1
  O  O80  1  0.97373067  0.79975433  0.09788333  1
  O  O81  1  0.21335667  0.05016833  0.29877633  1
  O  O82  1  0.94983167  0.16318833  0.29877633  1
  O  O83  1  0.83681167  0.78664333  0.29877633  1
  O  O84  1  0.49347733  0.88014767  0.36668067  1
  O  O85  1  0.38667033  0.50652267  0.36668067  1
  O  O86  1  0.11985233  0.61332967  0.36668067  1
  O  O87  1  0.36019100  0.86968400  0.56697100  1
  O  O88  1  0.20024567  0.02626933  0.59788333  1
  O  O89  1  0.45318567  0.17318933  0.53334733  1
  O  O90  1  0.13031600  0.49050700  0.56697100  1
  O  O91  1  0.97373067  0.17397633  0.59788333  1
  O  O92  1  0.82602367  0.79975433  0.59788333  1
  O  O93  1  0.49269033  0.35960267  0.43121667  1
  O  O94  1  0.28316500  0.45331000  0.46544300  1
  O  O95  1  0.82681067  0.27999633  0.53334733  1
  O  O96  1  0.17014500  0.71683500  0.46544300  1
  O  O97  1  0.72000367  0.54681433  0.53334733  1
  O  O98  1  0.50949300  0.63980900  0.56697100  1
  O  O99  1  0.17615967  0.20301733  0.40030433  1
  O  O100  1  0.02685767  0.82384033  0.40030433  1
  O  O101  1  0.86691233  0.50730967  0.43121667  1
  O  O102  1  0.54669000  0.82985500  0.46544300  1
  O  O103  1  0.79698267  0.97314233  0.40030433  1
  O  O104  1  0.64039733  0.13308767  0.43121667  1
  O  O105  1  0.88002333  0.38350167  0.63210967  1
  O  O106  1  0.61649833  0.49652167  0.63210967  1
  O  O107  1  0.50347833  0.11997667  0.63210967  1
  O  O108  1  0.16014400  0.21348100  0.70001400  1
  O  O109  1  0.05333700  0.83985600  0.70001400  1
  O  O110  1  0.78651900  0.94666300  0.70001400  1
  O  O111  1  0.02685767  0.20301733  0.90030433  1
  O  O112  1  0.86691233  0.35960267  0.93121667  1
  O  O113  1  0.11985233  0.50652267  0.86668067  1
  O  O114  1  0.79698267  0.82384033  0.90030433  1
  O  O115  1  0.64039733  0.50730967  0.93121667  1
  O  O116  1  0.49269033  0.13308767  0.93121667  1
  O  O117  1  0.15935700  0.69293600  0.76455000  1
  O  O118  1  0.94983167  0.78664333  0.79877633  1
  O  O119  1  0.49347733  0.61332967  0.86668067  1
  O  O120  1  0.83681167  0.05016833  0.79877633  1
  O  O121  1  0.38667033  0.88014767  0.86668067  1
  O  O122  1  0.17615967  0.97314233  0.90030433  1
  O  O123  1  0.84282633  0.53635067  0.73363767  1
  O  O124  1  0.69352433  0.15717367  0.73363767  1
  O  O125  1  0.53357900  0.84064300  0.76455000  1
  O  O126  1  0.21335667  0.16318833  0.79877633  1
  O  O127  1  0.46364933  0.30647567  0.73363767  1
  O  O128  1  0.30706400  0.46642100  0.76455000  1
  O  O129  1  0.54669000  0.71683500  0.96544300  1
  O  O130  1  0.28316500  0.82985500  0.96544300  1
  O  O131  1  0.17014500  0.45331000  0.96544300  1
