# generated using pymatgen
data_Li3ErBr6
_symmetry_space_group_name_H-M   'P 1'
_cell_length_a   6.93085200
_cell_length_b   11.90538600
_cell_length_c   13.25714275
_cell_angle_alpha   90.00000000
_cell_angle_beta   99.74840138
_cell_angle_gamma   90.00000000
_symmetry_Int_Tables_number   1
_chemical_formula_structural   Li3ErBr6
_chemical_formula_sum   'Li12 Er4 Br24'
_cell_volume   1078.11093966
_cell_formula_units_Z   4
loop_
 _symmetry_equiv_pos_site_id
 _symmetry_equiv_pos_as_xyz
  1  'x, y, z'
loop_
 _atom_site_type_symbol
 _atom_site_label
 _atom_site_symmetry_multiplicity
 _atom_site_fract_x
 _atom_site_fract_y
 _atom_site_fract_z
 _atom_site_occupancy
  Li  Li0  1  0.25605450  0.08153150  0.00031000  1
  Li  Li1  1  0.50000000  0.90711400  0.25000000  1
  Li  Li2  1  0.74394550  0.08153150  0.49969000  1
  Li  Li3  1  0.25605450  0.91846850  0.50031000  1
  Li  Li4  1  0.50000000  0.09288600  0.75000000  1
  Li  Li5  1  0.74394550  0.91846850  0.99969000  1
  Li  Li6  1  0.75605450  0.58153150  0.00031000  1
  Li  Li7  1  0.00000000  0.40711400  0.25000000  1
  Li  Li8  1  0.24394550  0.58153150  0.49969000  1
  Li  Li9  1  0.75605450  0.41846850  0.50031000  1
  Li  Li10  1  0.00000000  0.59288600  0.75000000  1
  Li  Li11  1  0.24394550  0.41846850  0.99969000  1
  Er  Er12  1  0.75000000  0.25000000  0.00000000  1
  Er  Er13  1  0.75000000  0.75000000  0.50000000  1
  Er  Er14  1  0.25000000  0.75000000  0.00000000  1
  Er  Er15  1  0.25000000  0.25000000  0.50000000  1
  Br  Br16  1  0.62093250  0.75478950  0.11969800  1
  Br  Br17  1  0.13409600  0.91856400  0.12142000  1
  Br  Br18  1  0.62084800  0.08088600  0.11904700  1
  Br  Br19  1  0.37915200  0.08088600  0.38095300  1
  Br  Br20  1  0.86590400  0.91856400  0.37858000  1
  Br  Br21  1  0.37906750  0.75478950  0.38030200  1
  Br  Br22  1  0.62093250  0.24521050  0.61969800  1
  Br  Br23  1  0.62084800  0.91911400  0.61904700  1
  Br  Br24  1  0.13409600  0.08143600  0.62142000  1
  Br  Br25  1  0.37915200  0.91911400  0.88095300  1
  Br  Br26  1  0.86590400  0.08143600  0.87858000  1
  Br  Br27  1  0.37906750  0.24521050  0.88030200  1
  Br  Br28  1  0.12093250  0.25478950  0.11969800  1
  Br  Br29  1  0.63409600  0.41856400  0.12142000  1
  Br  Br30  1  0.12084800  0.58088600  0.11904700  1
  Br  Br31  1  0.87915200  0.58088600  0.38095300  1
  Br  Br32  1  0.36590400  0.41856400  0.37858000  1
  Br  Br33  1  0.87906750  0.25478950  0.38030200  1
  Br  Br34  1  0.12093250  0.74521050  0.61969800  1
  Br  Br35  1  0.12084800  0.41911400  0.61904700  1
  Br  Br36  1  0.63409600  0.58143600  0.62142000  1
  Br  Br37  1  0.87915200  0.41911400  0.88095300  1
  Br  Br38  1  0.36590400  0.58143600  0.87858000  1
  Br  Br39  1  0.87906750  0.74521050  0.88030200  1
