# generated using pymatgen
data_Sr2Nb2O7
_symmetry_space_group_name_H-M   'P 1'
_cell_length_a   4.00163600
_cell_length_b   27.34414800
_cell_length_c   5.82778000
_cell_angle_alpha   90.00000000
_cell_angle_beta   90.00000000
_cell_angle_gamma   90.00000000
_symmetry_Int_Tables_number   1
_chemical_formula_structural   Sr2Nb2O7
_chemical_formula_sum   'Sr8 Nb8 O28'
_cell_volume   637.68342122
_cell_formula_units_Z   4
loop_
 _symmetry_equiv_pos_site_id
 _symmetry_equiv_pos_as_xyz
  1  'x, y, z'
loop_
 _atom_site_type_symbol
 _atom_site_label
 _atom_site_symmetry_multiplicity
 _atom_site_fract_x
 _atom_site_fract_y
 _atom_site_fract_z
 _atom_site_occupancy
  Sr  Sr0  1  0.00000000  0.70912900  0.03979200  1
  Sr  Sr1  1  0.50000000  0.79087100  0.53979200  1
  Sr  Sr2  1  0.00000000  0.55093500  0.47581600  1
  Sr  Sr3  1  0.50000000  0.94906500  0.97581600  1
  Sr  Sr4  1  0.50000000  0.20912900  0.03979200  1
  Sr  Sr5  1  0.00000000  0.29087100  0.53979200  1
  Sr  Sr6  1  0.50000000  0.05093500  0.47581600  1
  Sr  Sr7  1  0.00000000  0.44906500  0.97581600  1
  Nb  Nb8  1  0.50000000  0.66117600  0.50435700  1
  Nb  Nb9  1  0.00000000  0.83882400  0.00435700  1
  Nb  Nb10  1  0.00000000  0.94152500  0.47279300  1
  Nb  Nb11  1  0.50000000  0.55847500  0.97279300  1
  Nb  Nb12  1  0.00000000  0.16117600  0.50435700  1
  Nb  Nb13  1  0.50000000  0.33882400  0.00435700  1
  Nb  Nb14  1  0.50000000  0.44152500  0.47279300  1
  Nb  Nb15  1  0.00000000  0.05847500  0.97279300  1
  O  O16  1  0.00000000  0.54839900  0.93872500  1
  O  O17  1  0.50000000  0.95160100  0.43872500  1
  O  O18  1  0.50000000  0.59223500  0.66357300  1
  O  O19  1  0.00000000  0.90776500  0.16357300  1
  O  O20  1  0.50000000  0.69927100  0.76699100  1
  O  O21  1  0.00000000  0.80072900  0.26699100  1
  O  O22  1  0.00000000  0.78552200  0.79260600  1
  O  O23  1  0.50000000  0.71447800  0.29260600  1
  O  O24  1  0.50000000  0.50851700  0.21743100  1
  O  O25  1  0.00000000  0.99148300  0.71743100  1
  O  O26  1  0.50000000  0.61119100  0.17146500  1
  O  O27  1  0.00000000  0.88880900  0.67146500  1
  O  O28  1  0.00000000  0.65047500  0.46657100  1
  O  O29  1  0.50000000  0.84952500  0.96657100  1
  O  O30  1  0.50000000  0.04839900  0.93872500  1
  O  O31  1  0.00000000  0.45160100  0.43872500  1
  O  O32  1  0.00000000  0.09223500  0.66357300  1
  O  O33  1  0.50000000  0.40776500  0.16357300  1
  O  O34  1  0.00000000  0.19927100  0.76699100  1
  O  O35  1  0.50000000  0.30072900  0.26699100  1
  O  O36  1  0.50000000  0.28552200  0.79260600  1
  O  O37  1  0.00000000  0.21447800  0.29260600  1
  O  O38  1  0.00000000  0.00851700  0.21743100  1
  O  O39  1  0.50000000  0.49148300  0.71743100  1
  O  O40  1  0.00000000  0.11119100  0.17146500  1
  O  O41  1  0.50000000  0.38880900  0.67146500  1
  O  O42  1  0.50000000  0.15047500  0.46657100  1
  O  O43  1  0.00000000  0.34952500  0.96657100  1
