# generated using pymatgen
data_Zn(FeO2)2
_symmetry_space_group_name_H-M   'P 1'
_cell_length_a   6.05531627
_cell_length_b   6.05531627
_cell_length_c   14.79741110
_cell_angle_alpha   90.00000000
_cell_angle_beta   90.00000000
_cell_angle_gamma   120.00000000
_symmetry_Int_Tables_number   1
_chemical_formula_structural   Zn(FeO2)2
_chemical_formula_sum   'Zn6 Fe12 O24'
_cell_volume   469.88332574
_cell_formula_units_Z   6
loop_
 _symmetry_equiv_pos_site_id
 _symmetry_equiv_pos_as_xyz
  1  'x, y, z'
loop_
 _atom_site_type_symbol
 _atom_site_label
 _atom_site_symmetry_multiplicity
 _atom_site_fract_x
 _atom_site_fract_y
 _atom_site_fract_z
 _atom_site_occupancy
  Zn  Zn0  1  0.33333333  0.66666667  0.66358867  1
  Zn  Zn1  1  0.33333333  0.66666667  0.04109267  1
  Zn  Zn2  1  0.00000000  0.00000000  0.99692200  1
  Zn  Zn3  1  0.00000000  0.00000000  0.37442600  1
  Zn  Zn4  1  0.66666667  0.33333333  0.33025533  1
  Zn  Zn5  1  0.66666667  0.33333333  0.70775933  1
  Fe  Fe6  1  0.33333333  0.66666667  0.42026467  1
  Fe  Fe7  1  0.16407667  0.32815333  0.20941433  1
  Fe  Fe8  1  0.16407667  0.83592333  0.20941433  1
  Fe  Fe9  1  0.67184667  0.83592333  0.20941433  1
  Fe  Fe10  1  0.00000000  0.00000000  0.75359800  1
  Fe  Fe11  1  0.83074333  0.66148667  0.54274767  1
  Fe  Fe12  1  0.83074333  0.16925667  0.54274767  1
  Fe  Fe13  1  0.33851333  0.16925667  0.54274767  1
  Fe  Fe14  1  0.66666667  0.33333333  0.08693133  1
  Fe  Fe15  1  0.49741000  0.99482000  0.87608100  1
  Fe  Fe16  1  0.49741000  0.50259000  0.87608100  1
  Fe  Fe17  1  0.00518000  0.50259000  0.87608100  1
  O  O18  1  0.01494333  0.50747167  0.13056867  1
  O  O19  1  0.49252833  0.50747167  0.13056867  1
  O  O20  1  0.49252833  0.98505667  0.13056867  1
  O  O21  1  0.33333333  0.66666667  0.28593567  1
  O  O22  1  0.33333333  0.66666667  0.80025667  1
  O  O23  1  0.17795200  0.35590400  0.95075100  1
  O  O24  1  0.17795200  0.82204800  0.95075100  1
  O  O25  1  0.64409600  0.82204800  0.95075100  1
  O  O26  1  0.68161000  0.84080500  0.46390200  1
  O  O27  1  0.15919500  0.84080500  0.46390200  1
  O  O28  1  0.15919500  0.31839000  0.46390200  1
  O  O29  1  0.00000000  0.00000000  0.61926900  1
  O  O30  1  0.00000000  0.00000000  0.13359000  1
  O  O31  1  0.84461867  0.68923733  0.28408433  1
  O  O32  1  0.84461867  0.15538133  0.28408433  1
  O  O33  1  0.31076267  0.15538133  0.28408433  1
  O  O34  1  0.34827667  0.17413833  0.79723533  1
  O  O35  1  0.82586167  0.17413833  0.79723533  1
  O  O36  1  0.82586167  0.65172333  0.79723533  1
  O  O37  1  0.66666667  0.33333333  0.95260233  1
  O  O38  1  0.66666667  0.33333333  0.46692333  1
  O  O39  1  0.51128533  0.02257067  0.61741767  1
  O  O40  1  0.51128533  0.48871467  0.61741767  1
  O  O41  1  0.97742933  0.48871467  0.61741767  1
