# generated using pymatgen
data_Ba(PrS2)2
_symmetry_space_group_name_H-M   'P 1'
_cell_length_a   8.90477000
_cell_length_b   8.90477000
_cell_length_c   8.89565600
_cell_angle_alpha   90.00000000
_cell_angle_beta   90.00000000
_cell_angle_gamma   90.00000000
_symmetry_Int_Tables_number   1
_chemical_formula_structural   Ba(PrS2)2
_chemical_formula_sum   'Ba4 Pr8 S16'
_cell_volume   705.38040873
_cell_formula_units_Z   4
loop_
 _symmetry_equiv_pos_site_id
 _symmetry_equiv_pos_as_xyz
  1  'x, y, z'
loop_
 _atom_site_type_symbol
 _atom_site_label
 _atom_site_symmetry_multiplicity
 _atom_site_fract_x
 _atom_site_fract_y
 _atom_site_fract_z
 _atom_site_occupancy
  Ba  Ba0  1  0.50000000  0.00000000  0.75000000  1
  Ba  Ba1  1  0.00000000  0.00000000  0.50000000  1
  Ba  Ba2  1  0.00000000  0.50000000  0.25000000  1
  Ba  Ba3  1  0.50000000  0.50000000  0.00000000  1
  Pr  Pr4  1  0.75000000  0.62336200  0.62500000  1
  Pr  Pr5  1  0.37663800  0.75000000  0.37500000  1
  Pr  Pr6  1  0.25000000  0.37663800  0.62500000  1
  Pr  Pr7  1  0.62336200  0.25000000  0.37500000  1
  Pr  Pr8  1  0.25000000  0.12336200  0.12500000  1
  Pr  Pr9  1  0.87663800  0.25000000  0.87500000  1
  Pr  Pr10  1  0.75000000  0.87663800  0.12500000  1
  Pr  Pr11  1  0.12336200  0.75000000  0.87500000  1
  S  S12  1  0.57814200  0.16783700  0.06351300  1
  S  S13  1  0.57814200  0.33216300  0.68648700  1
  S  S14  1  0.83216300  0.92185800  0.81351300  1
  S  S15  1  0.66783700  0.57814200  0.31351300  1
  S  S16  1  0.92185800  0.33216300  0.56351300  1
  S  S17  1  0.66783700  0.92185800  0.43648700  1
  S  S18  1  0.83216300  0.57814200  0.93648700  1
  S  S19  1  0.92185800  0.16783700  0.18648700  1
  S  S20  1  0.07814200  0.66783700  0.56351300  1
  S  S21  1  0.07814200  0.83216300  0.18648700  1
  S  S22  1  0.33216300  0.42185800  0.31351300  1
  S  S23  1  0.16783700  0.07814200  0.81351300  1
  S  S24  1  0.42185800  0.83216300  0.06351300  1
  S  S25  1  0.16783700  0.42185800  0.93648700  1
  S  S26  1  0.33216300  0.07814200  0.43648700  1
  S  S27  1  0.42185800  0.66783700  0.68648700  1
