# generated using pymatgen
data_Na4Al3Si3HO13
_symmetry_space_group_name_H-M   'P 1'
_cell_length_a   12.53076949
_cell_length_b   12.53076949
_cell_length_c   15.20598292
_cell_angle_alpha   90.00000000
_cell_angle_beta   90.00000000
_cell_angle_gamma   120.00000000
_symmetry_Int_Tables_number   1
_chemical_formula_structural   Na4Al3Si3HO13
_chemical_formula_sum   'Na24 Al18 Si18 H6 O78'
_cell_volume   2067.76229516
_cell_formula_units_Z   6
loop_
 _symmetry_equiv_pos_site_id
 _symmetry_equiv_pos_as_xyz
  1  'x, y, z'
loop_
 _atom_site_type_symbol
 _atom_site_label
 _atom_site_symmetry_multiplicity
 _atom_site_fract_x
 _atom_site_fract_y
 _atom_site_fract_z
 _atom_site_occupancy
  Na  Na0  1  0.22446633  0.77583667  0.61753167  1
  Na  Na1  1  0.00000000  0.00000000  0.14971200  1
  Na  Na2  1  0.21803700  0.10917000  0.45086500  1
  Na  Na3  1  0.89113300  0.78196300  0.45086500  1
  Na  Na4  1  0.00000000  0.00000000  0.64971200  1
  Na  Na5  1  0.89083000  0.10886700  0.45086500  1
  Na  Na6  1  0.22416333  0.44862967  0.61753167  1
  Na  Na7  1  0.55137033  0.77553367  0.61753167  1
  Na  Na8  1  0.89113300  0.10917000  0.95086500  1
  Na  Na9  1  0.66666667  0.33333333  0.48304533  1
  Na  Na10  1  0.88470367  0.44250333  0.78419833  1
  Na  Na11  1  0.55779967  0.11529633  0.78419833  1
  Na  Na12  1  0.66666667  0.33333333  0.98304533  1
  Na  Na13  1  0.55749667  0.44220033  0.78419833  1
  Na  Na14  1  0.89083000  0.78196300  0.95086500  1
  Na  Na15  1  0.21803700  0.10886700  0.95086500  1
  Na  Na16  1  0.55779967  0.44250333  0.28419833  1
  Na  Na17  1  0.33333333  0.66666667  0.81637867  1
  Na  Na18  1  0.55137033  0.77583667  0.11753167  1
  Na  Na19  1  0.22446633  0.44862967  0.11753167  1
  Na  Na20  1  0.33333333  0.66666667  0.31637867  1
  Na  Na21  1  0.22416333  0.77553367  0.11753167  1
  Na  Na22  1  0.55749667  0.11529633  0.28419833  1
  Na  Na23  1  0.88470367  0.44220033  0.28419833  1
  Al  Al24  1  0.33266900  0.91575900  0.41724300  1
  Al  Al25  1  0.24975667  0.24909233  0.25057633  1
  Al  Al26  1  0.75090767  0.00066433  0.25057633  1
  Al  Al27  1  0.58309000  0.66733100  0.41724300  1
  Al  Al28  1  0.08424100  0.41691000  0.41724300  1
  Al  Al29  1  0.99933567  0.75024333  0.25057633  1
  Al  Al30  1  0.99933567  0.24909233  0.75057633  1
  Al  Al31  1  0.91642333  0.58242567  0.58390967  1
  Al  Al32  1  0.41757433  0.33399767  0.58390967  1
  Al  Al33  1  0.24975667  0.00066433  0.75057633  1
  Al  Al34  1  0.75090767  0.75024333  0.75057633  1
  Al  Al35  1  0.66600233  0.08357667  0.58390967  1
  Al  Al36  1  0.66600233  0.58242567  0.08390967  1
  Al  Al37  1  0.58309000  0.91575900  0.91724300  1
  Al  Al38  1  0.08424100  0.66733100  0.91724300  1
  Al  Al39  1  0.91642333  0.33399767  0.08390967  1
  Al  Al40  1  0.41757433  0.08357667  0.08390967  1
  Al  Al41  1  0.33266900  0.41691000  0.91724300  1
  Si  Si42  1  0.75096367  0.00011233  0.75059633  1
  Si  Si43  1  0.24914867  0.00011233  0.25059633  1
  Si  Si44  1  0.75096367  0.75085133  0.25059633  1
  Si  Si45  1  0.99988767  0.24903633  0.25059633  1
  Si  Si46  1  0.99988767  0.75085133  0.75059633  1
  Si  Si47  1  0.24914867  0.24903633  0.75059633  1
  Si  Si48  1  0.41763033  0.33344567  0.08392967  1
  Si  Si49  1  0.91581533  0.33344567  0.58392967  1
  Si  Si50  1  0.41763033  0.08418467  0.58392967  1
  Si  Si51  1  0.66655433  0.58236967  0.58392967  1
  Si  Si52  1  0.66655433  0.08418467  0.08392967  1
  Si  Si53  1  0.91581533  0.58236967  0.08392967  1
  Si  Si54  1  0.08429700  0.66677900  0.41726300  1
  Si  Si55  1  0.58248200  0.66677900  0.91726300  1
  Si  Si56  1  0.08429700  0.41751800  0.91726300  1
  Si  Si57  1  0.33322100  0.91570300  0.91726300  1
  Si  Si58  1  0.33322100  0.41751800  0.41726300  1
  Si  Si59  1  0.58248200  0.91570300  0.41726300  1
  H  H60  1  0.00000000  0.00000000  0.42538000  1
  H  H61  1  0.00000000  0.00000000  0.92538000  1
  H  H62  1  0.66666667  0.33333333  0.75871333  1
  H  H63  1  0.66666667  0.33333333  0.25871333  1
  H  H64  1  0.33333333  0.66666667  0.09204667  1
  H  H65  1  0.33333333  0.66666667  0.59204667  1
  O  O66  1  0.00000000  0.00000000  0.98950100  1
  O  O67  1  0.28173067  0.00059433  0.35513533  1
  O  O68  1  0.00285633  0.71363967  0.36188867  1
  O  O69  1  0.05219700  0.66726100  0.52180200  1
  O  O70  1  0.18946567  0.08950433  0.23686533  1
  O  O71  1  0.33618967  0.95588333  0.52855533  1
  O  O72  1  0.90003867  0.81053433  0.23686533  1
  O  O73  1  0.38126167  0.18568433  0.54854133  1
  O  O74  1  0.71886367  0.71826933  0.35513533  1
  O  O75  1  0.28636033  0.28921667  0.36188867  1
  O  O76  1  0.80442267  0.61873833  0.54854133  1
  O  O77  1  0.13775600  0.85235100  0.71520800  1
  O  O78  1  0.91049567  0.09996133  0.23686533  1
  O  O79  1  0.00000000  0.00000000  0.48950100  1
  O  O80  1  0.33273900  0.38493600  0.52180200  1
  O  O81  1  0.61969367  0.66381033  0.52855533  1
  O  O82  1  0.91049567  0.81053433  0.73686533  1
  O  O83  1  0.99940567  0.28113633  0.35513533  1
  O  O84  1  0.18946567  0.09996133  0.73686533  1
  O  O85  1  0.71078333  0.99714367  0.36188867  1
  O  O86  1  0.14764900  0.28540500  0.71520800  1
  O  O87  1  0.61506400  0.94780300  0.52180200  1
  O  O88  1  0.71459500  0.86224400  0.71520800  1
  O  O89  1  0.04411667  0.38030633  0.52855533  1
  O  O90  1  0.90003867  0.08950433  0.73686533  1
  O  O91  1  0.81431567  0.19557733  0.54854133  1
  O  O92  1  0.66666667  0.33333333  0.32283433  1
  O  O93  1  0.94839733  0.33392767  0.68846867  1
  O  O94  1  0.66952300  0.04697300  0.69522200  1
  O  O95  1  0.71886367  0.00059433  0.85513533  1
  O  O96  1  0.85613233  0.42283767  0.57019867  1
  O  O97  1  0.00285633  0.28921667  0.86188867  1
  O  O98  1  0.56670533  0.14386767  0.57019867  1
  O  O99  1  0.04792833  0.51901767  0.88187467  1
  O  O100  1  0.38553033  0.05160267  0.68846867  1
  O  O101  1  0.95302700  0.62255000  0.69522200  1
  O  O102  1  0.47108933  0.95207167  0.88187467  1
  O  O103  1  0.80442267  0.18568433  0.04854133  1
  O  O104  1  0.57716233  0.43329467  0.57019867  1
  O  O105  1  0.66666667  0.33333333  0.82283433  1
  O  O106  1  0.99940567  0.71826933  0.85513533  1
  O  O107  1  0.28636033  0.99714367  0.86188867  1
  O  O108  1  0.57716233  0.14386767  0.07019867  1
  O  O109  1  0.66607233  0.61446967  0.68846867  1
  O  O110  1  0.85613233  0.43329467  0.07019867  1
  O  O111  1  0.37745000  0.33047700  0.69522200  1
  O  O112  1  0.81431567  0.61873833  0.04854133  1
  O  O113  1  0.28173067  0.28113633  0.85513533  1
  O  O114  1  0.38126167  0.19557733  0.04854133  1
  O  O115  1  0.71078333  0.71363967  0.86188867  1
  O  O116  1  0.56670533  0.42283767  0.07019867  1
  O  O117  1  0.48098233  0.52891067  0.88187467  1
  O  O118  1  0.33333333  0.66666667  0.65616767  1
  O  O119  1  0.61506400  0.66726100  0.02180200  1
  O  O120  1  0.33618967  0.38030633  0.02855533  1
  O  O121  1  0.38553033  0.33392767  0.18846867  1
  O  O122  1  0.52279900  0.75617100  0.90353200  1
  O  O123  1  0.66952300  0.62255000  0.19522200  1
  O  O124  1  0.23337200  0.47720100  0.90353200  1
  O  O125  1  0.71459500  0.85235100  0.21520800  1
  O  O126  1  0.05219700  0.38493600  0.02180200  1
  O  O127  1  0.61969367  0.95588333  0.02855533  1
  O  O128  1  0.13775600  0.28540500  0.21520800  1
  O  O129  1  0.47108933  0.51901767  0.38187467  1
  O  O130  1  0.24382900  0.76662800  0.90353200  1
  O  O131  1  0.33333333  0.66666667  0.15616767  1
  O  O132  1  0.66607233  0.05160267  0.18846867  1
  O  O133  1  0.95302700  0.33047700  0.19522200  1
  O  O134  1  0.24382900  0.47720100  0.40353200  1
  O  O135  1  0.33273900  0.94780300  0.02180200  1
  O  O136  1  0.52279900  0.76662800  0.40353200  1
  O  O137  1  0.04411667  0.66381033  0.02855533  1
  O  O138  1  0.48098233  0.95207167  0.38187467  1
  O  O139  1  0.94839733  0.61446967  0.18846867  1
  O  O140  1  0.04792833  0.52891067  0.38187467  1
  O  O141  1  0.37745000  0.04697300  0.19522200  1
  O  O142  1  0.23337200  0.75617100  0.40353200  1
  O  O143  1  0.14764900  0.86224400  0.21520800  1
