# generated using pymatgen
data_Sr(GdSe2)2
_symmetry_space_group_name_H-M   'P 1'
_cell_length_a   8.97335200
_cell_length_b   8.97335200
_cell_length_c   8.93733600
_cell_angle_alpha   90.00000000
_cell_angle_beta   90.00000000
_cell_angle_gamma   90.00000000
_symmetry_Int_Tables_number   1
_chemical_formula_structural   Sr(GdSe2)2
_chemical_formula_sum   'Sr4 Gd8 Se16'
_cell_volume   719.64364421
_cell_formula_units_Z   4
loop_
 _symmetry_equiv_pos_site_id
 _symmetry_equiv_pos_as_xyz
  1  'x, y, z'
loop_
 _atom_site_type_symbol
 _atom_site_label
 _atom_site_symmetry_multiplicity
 _atom_site_fract_x
 _atom_site_fract_y
 _atom_site_fract_z
 _atom_site_occupancy
  Sr  Sr0  1  0.50000000  0.00000000  0.75000000  1
  Sr  Sr1  1  0.00000000  0.00000000  0.50000000  1
  Sr  Sr2  1  0.00000000  0.50000000  0.25000000  1
  Sr  Sr3  1  0.50000000  0.50000000  0.00000000  1
  Gd  Gd4  1  0.75000000  0.62403200  0.62500000  1
  Gd  Gd5  1  0.25000000  0.37596800  0.62500000  1
  Gd  Gd6  1  0.37596800  0.75000000  0.37500000  1
  Gd  Gd7  1  0.62403200  0.25000000  0.37500000  1
  Gd  Gd8  1  0.25000000  0.12403200  0.12500000  1
  Gd  Gd9  1  0.75000000  0.87596800  0.12500000  1
  Gd  Gd10  1  0.87596800  0.25000000  0.87500000  1
  Gd  Gd11  1  0.12403200  0.75000000  0.87500000  1
  Se  Se12  1  0.67302450  0.92575550  0.43756650  1
  Se  Se13  1  0.92575550  0.17302450  0.18756650  1
  Se  Se14  1  0.82697550  0.92575550  0.81243350  1
  Se  Se15  1  0.57424450  0.17302450  0.06243350  1
  Se  Se16  1  0.57424450  0.32697550  0.68756650  1
  Se  Se17  1  0.92575550  0.32697550  0.56243350  1
  Se  Se18  1  0.82697550  0.57424450  0.93756650  1
  Se  Se19  1  0.67302450  0.57424450  0.31243350  1
  Se  Se20  1  0.17302450  0.42575550  0.93756650  1
  Se  Se21  1  0.42575550  0.67302450  0.68756650  1
  Se  Se22  1  0.32697550  0.42575550  0.31243350  1
  Se  Se23  1  0.07424450  0.67302450  0.56243350  1
  Se  Se24  1  0.07424450  0.82697550  0.18756650  1
  Se  Se25  1  0.42575550  0.82697550  0.06243350  1
  Se  Se26  1  0.32697550  0.07424450  0.43756650  1
  Se  Se27  1  0.17302450  0.07424450  0.81243350  1
