# generated using pymatgen
data_SmTaO4
_symmetry_space_group_name_H-M   'P 1'
_cell_length_a   7.15396600
_cell_length_b   11.28365400
_cell_length_c   5.14824995
_cell_angle_alpha   90.00000000
_cell_angle_beta   130.29542612
_cell_angle_gamma   90.00000000
_symmetry_Int_Tables_number   1
_chemical_formula_structural   SmTaO4
_chemical_formula_sum   'Sm4 Ta4 O16'
_cell_volume   316.97234188
_cell_formula_units_Z   4
loop_
 _symmetry_equiv_pos_site_id
 _symmetry_equiv_pos_as_xyz
  1  'x, y, z'
loop_
 _atom_site_type_symbol
 _atom_site_label
 _atom_site_symmetry_multiplicity
 _atom_site_fract_x
 _atom_site_fract_y
 _atom_site_fract_z
 _atom_site_occupancy
  Sm  Sm0  1  0.00000000  0.36852000  0.75000000  1
  Sm  Sm1  1  0.50000000  0.13148000  0.25000000  1
  Sm  Sm2  1  0.50000000  0.86852000  0.75000000  1
  Sm  Sm3  1  0.00000000  0.63148000  0.25000000  1
  Ta  Ta4  1  0.50000000  0.39980200  0.75000000  1
  Ta  Ta5  1  0.00000000  0.10019800  0.25000000  1
  Ta  Ta6  1  0.00000000  0.89980200  0.75000000  1
  Ta  Ta7  1  0.50000000  0.60019800  0.25000000  1
  O  O8  1  0.73996000  0.46823100  0.20471000  1
  O  O9  1  0.26004000  0.46823100  0.29529000  1
  O  O10  1  0.76004000  0.03176900  0.79529000  1
  O  O11  1  0.23996000  0.03176900  0.70471000  1
  O  O12  1  0.34745350  0.29300550  0.84112400  1
  O  O13  1  0.65254650  0.29300550  0.65887600  1
  O  O14  1  0.15254650  0.20699450  0.15887600  1
  O  O15  1  0.84745350  0.20699450  0.34112400  1
  O  O16  1  0.23996000  0.96823100  0.20471000  1
  O  O17  1  0.76004000  0.96823100  0.29529000  1
  O  O18  1  0.26004000  0.53176900  0.79529000  1
  O  O19  1  0.73996000  0.53176900  0.70471000  1
  O  O20  1  0.84745350  0.79300550  0.84112400  1
  O  O21  1  0.15254650  0.79300550  0.65887600  1
  O  O22  1  0.65254650  0.70699450  0.15887600  1
  O  O23  1  0.34745350  0.70699450  0.34112400  1
