# generated using pymatgen
data_ZnSe
_symmetry_space_group_name_H-M   'P 1'
_cell_length_a   4.05352747
_cell_length_b   4.05352747
_cell_length_c   6.66241700
_cell_angle_alpha   90.00000000
_cell_angle_beta   90.00000000
_cell_angle_gamma   120.00000000
_symmetry_Int_Tables_number   1
_chemical_formula_structural   ZnSe
_chemical_formula_sum   'Zn2 Se2'
_cell_volume   94.80444157
_cell_formula_units_Z   2
loop_
 _symmetry_equiv_pos_site_id
 _symmetry_equiv_pos_as_xyz
  1  'x, y, z'
loop_
 _atom_site_type_symbol
 _atom_site_label
 _atom_site_symmetry_multiplicity
 _atom_site_fract_x
 _atom_site_fract_y
 _atom_site_fract_z
 _atom_site_occupancy
  Zn  Zn0  1  0.66666667  0.33333333  0.50058400  1
  Zn  Zn1  1  0.33333333  0.66666667  0.00058400  1
  Se  Se2  1  0.66666667  0.33333333  0.87441600  1
  Se  Se3  1  0.33333333  0.66666667  0.37441600  1
