# generated using pymatgen
data_CsTaN2
_symmetry_space_group_name_H-M   'P 1'
_cell_length_a   6.28531400
_cell_length_b   6.28531400
_cell_length_c   8.91228200
_cell_angle_alpha   90.00000000
_cell_angle_beta   90.00000000
_cell_angle_gamma   90.00000000
_symmetry_Int_Tables_number   1
_chemical_formula_structural   CsTaN2
_chemical_formula_sum   'Cs4 Ta4 N8'
_cell_volume   352.08123402
_cell_formula_units_Z   4
loop_
 _symmetry_equiv_pos_site_id
 _symmetry_equiv_pos_as_xyz
  1  'x, y, z'
loop_
 _atom_site_type_symbol
 _atom_site_label
 _atom_site_symmetry_multiplicity
 _atom_site_fract_x
 _atom_site_fract_y
 _atom_site_fract_z
 _atom_site_occupancy
  Cs  Cs0  1  0.50000000  0.50000000  0.00000000  1
  Cs  Cs1  1  0.50000000  0.00000000  0.25000000  1
  Cs  Cs2  1  0.00000000  0.00000000  0.50000000  1
  Cs  Cs3  1  0.00000000  0.50000000  0.75000000  1
  Ta  Ta4  1  0.00000000  0.00000000  0.00000000  1
  Ta  Ta5  1  0.00000000  0.50000000  0.25000000  1
  Ta  Ta6  1  0.50000000  0.50000000  0.50000000  1
  Ta  Ta7  1  0.50000000  0.00000000  0.75000000  1
  N  N8  1  0.75000000  0.54358600  0.37500000  1
  N  N9  1  0.04358600  0.75000000  0.12500000  1
  N  N10  1  0.95641400  0.25000000  0.12500000  1
  N  N11  1  0.25000000  0.45641400  0.37500000  1
  N  N12  1  0.25000000  0.04358600  0.87500000  1
  N  N13  1  0.54358600  0.25000000  0.62500000  1
  N  N14  1  0.45641400  0.75000000  0.62500000  1
  N  N15  1  0.75000000  0.95641400  0.87500000  1
