# generated using pymatgen
data_Li2Mn(PO3)4
_symmetry_space_group_name_H-M   'P 1'
_cell_length_a   9.28671600
_cell_length_b   14.36324600
_cell_length_c   7.44261646
_cell_angle_alpha   90.00000000
_cell_angle_beta   97.13659213
_cell_angle_gamma   90.00000000
_symmetry_Int_Tables_number   1
_chemical_formula_structural   Li2Mn(PO3)4
_chemical_formula_sum   'Li8 Mn4 P16 O48'
_cell_volume   985.06011320
_cell_formula_units_Z   4
loop_
 _symmetry_equiv_pos_site_id
 _symmetry_equiv_pos_as_xyz
  1  'x, y, z'
loop_
 _atom_site_type_symbol
 _atom_site_label
 _atom_site_symmetry_multiplicity
 _atom_site_fract_x
 _atom_site_fract_y
 _atom_site_fract_z
 _atom_site_occupancy
  Li  Li0  1  0.33955050  0.85164450  0.79659200  1
  Li  Li1  1  0.33955050  0.14835550  0.29659200  1
  Li  Li2  1  0.66044950  0.14835550  0.20340800  1
  Li  Li3  1  0.66044950  0.85164450  0.70340800  1
  Li  Li4  1  0.83955050  0.35164450  0.79659200  1
  Li  Li5  1  0.83955050  0.64835550  0.29659200  1
  Li  Li6  1  0.16044950  0.64835550  0.20340800  1
  Li  Li7  1  0.16044950  0.35164450  0.70340800  1
  Mn  Mn8  1  0.50000000  0.36356800  0.75000000  1
  Mn  Mn9  1  0.50000000  0.63643200  0.25000000  1
  Mn  Mn10  1  0.00000000  0.86356800  0.75000000  1
  Mn  Mn11  1  0.00000000  0.13643200  0.25000000  1
  P  P12  1  0.60675450  0.16052450  0.61852700  1
  P  P13  1  0.39324550  0.16052450  0.88147300  1
  P  P14  1  0.60675450  0.83947550  0.11852700  1
  P  P15  1  0.39324550  0.83947550  0.38147300  1
  P  P16  1  0.13889700  0.92717900  0.16914900  1
  P  P17  1  0.86110300  0.92717900  0.33085100  1
  P  P18  1  0.86110300  0.07282100  0.83085100  1
  P  P19  1  0.13889700  0.07282100  0.66914900  1
  P  P20  1  0.10675450  0.66052450  0.61852700  1
  P  P21  1  0.89324550  0.66052450  0.88147300  1
  P  P22  1  0.10675450  0.33947550  0.11852700  1
  P  P23  1  0.89324550  0.33947550  0.38147300  1
  P  P24  1  0.63889700  0.42717900  0.16914900  1
  P  P25  1  0.36110300  0.42717900  0.33085100  1
  P  P26  1  0.36110300  0.57282100  0.83085100  1
  P  P27  1  0.63889700  0.57282100  0.66914900  1
  O  O28  1  0.16721450  0.13053250  0.50793500  1
  O  O29  1  0.54293400  0.14432500  0.42568700  1
  O  O30  1  0.50000000  0.61657600  0.75000000  1
  O  O31  1  0.25968150  0.09107850  0.84058100  1
  O  O32  1  0.45706600  0.85567500  0.57431300  1
  O  O33  1  0.12832600  0.03099700  0.15018300  1
  O  O34  1  0.25968150  0.90892150  0.34058100  1
  O  O35  1  0.64929150  0.25817650  0.67957900  1
  O  O36  1  0.87167400  0.03099700  0.34981700  1
  O  O37  1  0.87167400  0.96900300  0.84981700  1
  O  O38  1  0.35070850  0.25817650  0.82042100  1
  O  O39  1  0.74031850  0.90892150  0.15941900  1
  O  O40  1  0.64929150  0.74182350  0.17957900  1
  O  O41  1  0.45706600  0.14432500  0.07431300  1
  O  O42  1  0.54293400  0.85567500  0.92568700  1
  O  O43  1  0.50000000  0.38342400  0.25000000  1
  O  O44  1  0.50000000  0.11529300  0.75000000  1
  O  O45  1  0.16721450  0.86946750  0.00793500  1
  O  O46  1  0.12832600  0.96900300  0.65018300  1
  O  O47  1  0.83278550  0.13053250  0.99206500  1
  O  O48  1  0.35070850  0.74182350  0.32042100  1
  O  O49  1  0.50000000  0.88470700  0.25000000  1
  O  O50  1  0.83278550  0.86946750  0.49206500  1
  O  O51  1  0.74031850  0.09107850  0.65941900  1
  O  O52  1  0.66721450  0.63053250  0.50793500  1
  O  O53  1  0.04293400  0.64432500  0.42568700  1
  O  O54  1  0.00000000  0.11657600  0.75000000  1
  O  O55  1  0.75968150  0.59107850  0.84058100  1
  O  O56  1  0.95706600  0.35567500  0.57431300  1
  O  O57  1  0.62832600  0.53099700  0.15018300  1
  O  O58  1  0.75968150  0.40892150  0.34058100  1
  O  O59  1  0.14929150  0.75817650  0.67957900  1
  O  O60  1  0.37167400  0.53099700  0.34981700  1
  O  O61  1  0.37167400  0.46900300  0.84981700  1
  O  O62  1  0.85070850  0.75817650  0.82042100  1
  O  O63  1  0.24031850  0.40892150  0.15941900  1
  O  O64  1  0.14929150  0.24182350  0.17957900  1
  O  O65  1  0.95706600  0.64432500  0.07431300  1
  O  O66  1  0.04293400  0.35567500  0.92568700  1
  O  O67  1  0.00000000  0.88342400  0.25000000  1
  O  O68  1  0.00000000  0.61529300  0.75000000  1
  O  O69  1  0.66721450  0.36946750  0.00793500  1
  O  O70  1  0.62832600  0.46900300  0.65018300  1
  O  O71  1  0.33278550  0.63053250  0.99206500  1
  O  O72  1  0.85070850  0.24182350  0.32042100  1
  O  O73  1  0.00000000  0.38470700  0.25000000  1
  O  O74  1  0.33278550  0.36946750  0.49206500  1
  O  O75  1  0.24031850  0.59107850  0.65941900  1
