# generated using pymatgen
data_BaMnO3
_symmetry_space_group_name_H-M   'P 1'
_cell_length_a   5.73311054
_cell_length_b   5.73311054
_cell_length_c   9.39836800
_cell_angle_alpha   90.00000000
_cell_angle_beta   90.00000000
_cell_angle_gamma   120.00000000
_symmetry_Int_Tables_number   1
_chemical_formula_structural   BaMnO3
_chemical_formula_sum   'Ba4 Mn4 O12'
_cell_volume   267.52459122
_cell_formula_units_Z   4
loop_
 _symmetry_equiv_pos_site_id
 _symmetry_equiv_pos_as_xyz
  1  'x, y, z'
loop_
 _atom_site_type_symbol
 _atom_site_label
 _atom_site_symmetry_multiplicity
 _atom_site_fract_x
 _atom_site_fract_y
 _atom_site_fract_z
 _atom_site_occupancy
  Ba  Ba0  1  0.00000000  0.00000000  0.50000000  1
  Ba  Ba1  1  0.00000000  0.00000000  0.00000000  1
  Ba  Ba2  1  0.66666667  0.33333333  0.25000000  1
  Ba  Ba3  1  0.33333333  0.66666667  0.75000000  1
  Mn  Mn4  1  0.33333333  0.66666667  0.11236500  1
  Mn  Mn5  1  0.66666667  0.33333333  0.61236500  1
  Mn  Mn6  1  0.33333333  0.66666667  0.38763500  1
  Mn  Mn7  1  0.66666667  0.33333333  0.88763500  1
  O  O8  1  0.81212950  0.62425900  0.75000000  1
  O  O9  1  0.37574100  0.18787050  0.75000000  1
  O  O10  1  0.18787050  0.37574100  0.25000000  1
  O  O11  1  0.18787050  0.81212950  0.25000000  1
  O  O12  1  0.62425900  0.81212950  0.25000000  1
  O  O13  1  0.81212950  0.18787050  0.75000000  1
  O  O14  1  0.00000000  0.50000000  0.50000000  1
  O  O15  1  0.50000000  0.50000000  0.50000000  1
  O  O16  1  0.50000000  0.50000000  0.00000000  1
  O  O17  1  0.50000000  0.00000000  0.00000000  1
  O  O18  1  0.50000000  0.00000000  0.50000000  1
  O  O19  1  0.00000000  0.50000000  0.00000000  1
