# generated using pymatgen
data_La(C2N3)3
_symmetry_space_group_name_H-M   'P 1'
_cell_length_a   7.96084400
_cell_length_b   11.98653600
_cell_length_c   10.65835400
_cell_angle_alpha   90.00000000
_cell_angle_beta   90.00000000
_cell_angle_gamma   90.00000000
_symmetry_Int_Tables_number   1
_chemical_formula_structural   La(C2N3)3
_chemical_formula_sum   'La4 C24 N36'
_cell_volume   1017.05150831
_cell_formula_units_Z   4
loop_
 _symmetry_equiv_pos_site_id
 _symmetry_equiv_pos_as_xyz
  1  'x, y, z'
loop_
 _atom_site_type_symbol
 _atom_site_label
 _atom_site_symmetry_multiplicity
 _atom_site_fract_x
 _atom_site_fract_y
 _atom_site_fract_z
 _atom_site_occupancy
  La  La0  1  0.50000000  0.78523200  0.25000000  1
  La  La1  1  0.50000000  0.21476800  0.75000000  1
  La  La2  1  0.00000000  0.28523200  0.25000000  1
  La  La3  1  0.00000000  0.71476800  0.75000000  1
  C  C4  1  0.64188500  0.91305200  0.75000000  1
  C  C5  1  0.64280850  0.64613650  0.94656800  1
  C  C6  1  0.35719150  0.35386350  0.44656800  1
  C  C7  1  0.35811500  0.08694800  0.25000000  1
  C  C8  1  0.64188500  0.08694800  0.25000000  1
  C  C9  1  0.35811500  0.91305200  0.75000000  1
  C  C10  1  0.64280850  0.35386350  0.44656800  1
  C  C11  1  0.35719150  0.64613650  0.94656800  1
  C  C12  1  0.64280850  0.64613650  0.55343200  1
  C  C13  1  0.35719150  0.35386350  0.05343200  1
  C  C14  1  0.35719150  0.64613650  0.55343200  1
  C  C15  1  0.64280850  0.35386350  0.05343200  1
  C  C16  1  0.14188500  0.41305200  0.75000000  1
  C  C17  1  0.14280850  0.14613650  0.94656800  1
  C  C18  1  0.85719150  0.85386350  0.44656800  1
  C  C19  1  0.85811500  0.58694800  0.25000000  1
  C  C20  1  0.14188500  0.58694800  0.25000000  1
  C  C21  1  0.85811500  0.41305200  0.75000000  1
  C  C22  1  0.14280850  0.85386350  0.44656800  1
  C  C23  1  0.85719150  0.14613650  0.94656800  1
  C  C24  1  0.14280850  0.14613650  0.55343200  1
  C  C25  1  0.85719150  0.85386350  0.05343200  1
  C  C26  1  0.85719150  0.14613650  0.55343200  1
  C  C27  1  0.14280850  0.85386350  0.05343200  1
  N  N28  1  0.27754950  0.13848650  0.90169600  1
  N  N29  1  0.72245050  0.86151350  0.40169600  1
  N  N30  1  0.50000000  0.96715900  0.75000000  1
  N  N31  1  0.50000000  0.03284100  0.25000000  1
  N  N32  1  0.77424500  0.86912000  0.75000000  1
  N  N33  1  0.22575500  0.13088000  0.25000000  1
  N  N34  1  0.77424500  0.13088000  0.25000000  1
  N  N35  1  0.22575500  0.86912000  0.75000000  1
  N  N36  1  0.50000000  0.34207100  0.50444600  1
  N  N37  1  0.50000000  0.65792900  0.00444600  1
  N  N38  1  0.50000000  0.65792900  0.49555400  1
  N  N39  1  0.50000000  0.34207100  0.99555400  1
  N  N40  1  0.27754950  0.86151350  0.40169600  1
  N  N41  1  0.72245050  0.13848650  0.90169600  1
  N  N42  1  0.27754950  0.13848650  0.59830400  1
  N  N43  1  0.72245050  0.86151350  0.09830400  1
  N  N44  1  0.72245050  0.13848650  0.59830400  1
  N  N45  1  0.27754950  0.86151350  0.09830400  1
  N  N46  1  0.77754950  0.63848650  0.90169600  1
  N  N47  1  0.22245050  0.36151350  0.40169600  1
  N  N48  1  0.00000000  0.46715900  0.75000000  1
  N  N49  1  0.00000000  0.53284100  0.25000000  1
  N  N50  1  0.27424500  0.36912000  0.75000000  1
  N  N51  1  0.72575500  0.63088000  0.25000000  1
  N  N52  1  0.27424500  0.63088000  0.25000000  1
  N  N53  1  0.72575500  0.36912000  0.75000000  1
  N  N54  1  0.00000000  0.84207100  0.50444600  1
  N  N55  1  0.00000000  0.15792900  0.00444600  1
  N  N56  1  0.00000000  0.15792900  0.49555400  1
  N  N57  1  0.00000000  0.84207100  0.99555400  1
  N  N58  1  0.77754950  0.36151350  0.40169600  1
  N  N59  1  0.22245050  0.63848650  0.90169600  1
  N  N60  1  0.77754950  0.63848650  0.59830400  1
  N  N61  1  0.22245050  0.36151350  0.09830400  1
  N  N62  1  0.22245050  0.63848650  0.59830400  1
  N  N63  1  0.77754950  0.36151350  0.09830400  1
