# generated using pymatgen
data_Rb2TbF6
_symmetry_space_group_name_H-M   'P 1'
_cell_length_a   7.23856400
_cell_length_b   12.01091800
_cell_length_c   7.50972701
_cell_angle_alpha   90.00000000
_cell_angle_beta   91.22666470
_cell_angle_gamma   90.00000000
_symmetry_Int_Tables_number   1
_chemical_formula_structural   Rb2TbF6
_chemical_formula_sum   'Rb8 Tb4 F24'
_cell_volume   652.75954585
_cell_formula_units_Z   4
loop_
 _symmetry_equiv_pos_site_id
 _symmetry_equiv_pos_as_xyz
  1  'x, y, z'
loop_
 _atom_site_type_symbol
 _atom_site_label
 _atom_site_symmetry_multiplicity
 _atom_site_fract_x
 _atom_site_fract_y
 _atom_site_fract_z
 _atom_site_occupancy
  Rb  Rb0  1  0.51565300  0.84102200  0.99877900  1
  Rb  Rb1  1  0.48434700  0.84102200  0.50122100  1
  Rb  Rb2  1  0.51565300  0.15897800  0.49877900  1
  Rb  Rb3  1  0.48434700  0.15897800  0.00122100  1
  Rb  Rb4  1  0.01565300  0.34102200  0.99877900  1
  Rb  Rb5  1  0.98434700  0.34102200  0.50122100  1
  Rb  Rb6  1  0.01565300  0.65897800  0.49877900  1
  Rb  Rb7  1  0.98434700  0.65897800  0.00122100  1
  Tb  Tb8  1  0.50000000  0.53907500  0.25000000  1
  Tb  Tb9  1  0.50000000  0.46092500  0.75000000  1
  Tb  Tb10  1  0.00000000  0.03907500  0.25000000  1
  Tb  Tb11  1  0.00000000  0.96092500  0.75000000  1
  F  F12  1  0.47208050  0.39841150  0.04528500  1
  F  F13  1  0.52791950  0.39841150  0.45471500  1
  F  F14  1  0.52791950  0.60158850  0.95471500  1
  F  F15  1  0.47208050  0.60158850  0.54528500  1
  F  F16  1  0.68842500  0.30704800  0.76767800  1
  F  F17  1  0.31157500  0.30704800  0.73232200  1
  F  F18  1  0.30270000  0.99482000  0.23558300  1
  F  F19  1  0.69730000  0.99482000  0.26441700  1
  F  F20  1  0.69730000  0.00518000  0.76441700  1
  F  F21  1  0.30270000  0.00518000  0.73558300  1
  F  F22  1  0.68842500  0.69295200  0.26767800  1
  F  F23  1  0.31157500  0.69295200  0.23232200  1
  F  F24  1  0.97208050  0.89841150  0.04528500  1
  F  F25  1  0.02791950  0.89841150  0.45471500  1
  F  F26  1  0.02791950  0.10158850  0.95471500  1
  F  F27  1  0.97208050  0.10158850  0.54528500  1
  F  F28  1  0.18842500  0.80704800  0.76767800  1
  F  F29  1  0.81157500  0.80704800  0.73232200  1
  F  F30  1  0.80270000  0.49482000  0.23558300  1
  F  F31  1  0.19730000  0.49482000  0.26441700  1
  F  F32  1  0.19730000  0.50518000  0.76441700  1
  F  F33  1  0.80270000  0.50518000  0.73558300  1
  F  F34  1  0.18842500  0.19295200  0.26767800  1
  F  F35  1  0.81157500  0.19295200  0.23232200  1
