# generated using pymatgen
data_Nd5AgS8
_symmetry_space_group_name_H-M   'P 1'
_cell_length_a   8.55870000
_cell_length_b   8.55870000
_cell_length_c   8.63676000
_cell_angle_alpha   90.00000000
_cell_angle_beta   90.00000000
_cell_angle_gamma   90.00000000
_symmetry_Int_Tables_number   1
_chemical_formula_structural   Nd5AgS8
_chemical_formula_sum   'Nd10 Ag2 S16'
_cell_volume   632.65429240
_cell_formula_units_Z   2
loop_
 _symmetry_equiv_pos_site_id
 _symmetry_equiv_pos_as_xyz
  1  'x, y, z'
loop_
 _atom_site_type_symbol
 _atom_site_label
 _atom_site_symmetry_multiplicity
 _atom_site_fract_x
 _atom_site_fract_y
 _atom_site_fract_z
 _atom_site_occupancy
  Nd  Nd0  1  0.63339450  0.24837550  0.13111850  1
  Nd  Nd1  1  0.25162450  0.13339450  0.36888150  1
  Nd  Nd2  1  0.86660550  0.25162450  0.63111850  1
  Nd  Nd3  1  0.00000000  0.50000000  0.25000000  1
  Nd  Nd4  1  0.24837550  0.36660550  0.86888150  1
  Nd  Nd5  1  0.13339450  0.74837550  0.63111850  1
  Nd  Nd6  1  0.75162450  0.63339450  0.86888150  1
  Nd  Nd7  1  0.36660550  0.75162450  0.13111850  1
  Nd  Nd8  1  0.50000000  0.00000000  0.75000000  1
  Nd  Nd9  1  0.74837550  0.86660550  0.36888150  1
  Ag  Ag10  1  0.00000000  0.00000000  0.00000000  1
  Ag  Ag11  1  0.50000000  0.50000000  0.50000000  1
  S  S12  1  0.42982750  0.82114650  0.45256050  1
  S  S13  1  0.57648000  0.31714600  0.81509800  1
  S  S14  1  0.32114650  0.07017250  0.04743950  1
  S  S15  1  0.17885350  0.42982750  0.54743950  1
  S  S16  1  0.31714600  0.42352000  0.18490200  1
  S  S17  1  0.92352000  0.18285400  0.31509800  1
  S  S18  1  0.07017250  0.67885350  0.95256050  1
  S  S19  1  0.18285400  0.07648000  0.68490200  1
  S  S20  1  0.92982750  0.32114650  0.95256050  1
  S  S21  1  0.07648000  0.81714600  0.31509800  1
  S  S22  1  0.82114650  0.57017250  0.54743950  1
  S  S23  1  0.67885350  0.92982750  0.04743950  1
  S  S24  1  0.81714600  0.92352000  0.68490200  1
  S  S25  1  0.42352000  0.68285400  0.81509800  1
  S  S26  1  0.57017250  0.17885350  0.45256050  1
  S  S27  1  0.68285400  0.57648000  0.18490200  1
