# generated using pymatgen
data_Mg(FeO2)2
_symmetry_space_group_name_H-M   'P 1'
_cell_length_a   10.35055400
_cell_length_b   6.00259400
_cell_length_c   14.63079430
_cell_angle_alpha   90.00000000
_cell_angle_beta   90.02415847
_cell_angle_gamma   90.00000000
_symmetry_Int_Tables_number   1
_chemical_formula_structural   Mg(FeO2)2
_chemical_formula_sum   'Mg12 Fe24 O48'
_cell_volume   909.01370515
_cell_formula_units_Z   12
loop_
 _symmetry_equiv_pos_site_id
 _symmetry_equiv_pos_as_xyz
  1  'x, y, z'
loop_
 _atom_site_type_symbol
 _atom_site_label
 _atom_site_symmetry_multiplicity
 _atom_site_fract_x
 _atom_site_fract_y
 _atom_site_fract_z
 _atom_site_occupancy
  Mg  Mg0  1  0.83731500  0.00000000  0.95821300  1
  Mg  Mg1  1  0.33388400  0.00000000  0.83188800  1
  Mg  Mg2  1  0.99991900  0.00000000  0.50031900  1
  Mg  Mg3  1  0.16924600  0.00000000  0.66474700  1
  Mg  Mg4  1  0.66705100  0.00000000  0.16824000  1
  Mg  Mg5  1  0.83057500  0.00000000  0.33629900  1
  Mg  Mg6  1  0.33731500  0.50000000  0.95821300  1
  Mg  Mg7  1  0.83388400  0.50000000  0.83188800  1
  Mg  Mg8  1  0.49991900  0.50000000  0.50031900  1
  Mg  Mg9  1  0.66924600  0.50000000  0.66474700  1
  Mg  Mg10  1  0.16705100  0.50000000  0.16824000  1
  Mg  Mg11  1  0.33057500  0.50000000  0.33629900  1
  Fe  Fe12  1  0.50521800  0.00000000  0.61844500  1
  Fe  Fe13  1  0.49948600  0.00000000  0.99572000  1
  Fe  Fe14  1  0.58169850  0.75156450  0.83167400  1
  Fe  Fe15  1  0.17277300  0.00000000  0.29362500  1
  Fe  Fe16  1  0.58169850  0.24843550  0.83167400  1
  Fe  Fe17  1  0.25006350  0.75003550  0.50022200  1
  Fe  Fe18  1  0.25006350  0.24996450  0.50022200  1
  Fe  Fe19  1  0.82715100  0.00000000  0.70835000  1
  Fe  Fe20  1  0.41576550  0.25330850  0.16873100  1
  Fe  Fe21  1  0.41576550  0.74669150  0.16873100  1
  Fe  Fe22  1  0.49497400  0.00000000  0.38017500  1
  Fe  Fe23  1  0.16196400  0.00000000  0.04148700  1
  Fe  Fe24  1  0.00521800  0.50000000  0.61844500  1
  Fe  Fe25  1  0.99948600  0.50000000  0.99572000  1
  Fe  Fe26  1  0.08169850  0.25156450  0.83167400  1
  Fe  Fe27  1  0.67277300  0.50000000  0.29362500  1
  Fe  Fe28  1  0.08169850  0.74843550  0.83167400  1
  Fe  Fe29  1  0.75006350  0.25003550  0.50022200  1
  Fe  Fe30  1  0.75006350  0.74996450  0.50022200  1
  Fe  Fe31  1  0.32715100  0.50000000  0.70835000  1
  Fe  Fe32  1  0.91576550  0.75330850  0.16873100  1
  Fe  Fe33  1  0.91576550  0.24669150  0.16873100  1
  Fe  Fe34  1  0.99497400  0.50000000  0.38017500  1
  Fe  Fe35  1  0.66196400  0.50000000  0.04148700  1
  O  O36  1  0.42712300  0.23109200  0.91325500  1
  O  O37  1  0.42712300  0.76890800  0.91325500  1
  O  O38  1  0.50254100  0.00000000  0.75175500  1
  O  O39  1  0.65496500  0.00000000  0.91234100  1
  O  O40  1  0.59497650  0.74031550  0.57722900  1
  O  O41  1  0.00631800  0.00000000  0.75187600  1
  O  O42  1  0.16430700  0.00000000  0.91031300  1
  O  O43  1  0.24343100  0.23948700  0.75297600  1
  O  O44  1  0.59497650  0.25968450  0.57722900  1
  O  O45  1  0.17392900  0.00000000  0.42660800  1
  O  O46  1  0.32576100  0.00000000  0.57449000  1
  O  O47  1  0.24343100  0.76051300  0.75297600  1
  O  O48  1  0.67372100  0.00000000  0.42524100  1
  O  O49  1  0.75587700  0.24013300  0.24822900  1
  O  O50  1  0.82604700  0.00000000  0.57410000  1
  O  O51  1  0.40550950  0.74100450  0.42248000  1
  O  O52  1  0.75587700  0.75986700  0.24822900  1
  O  O53  1  0.83812300  0.00000000  0.09527300  1
  O  O54  1  0.40550950  0.25899550  0.42248000  1
  O  O55  1  0.99412700  0.00000000  0.24927500  1
  O  O56  1  0.34205000  0.00000000  0.08577100  1
  O  O57  1  0.49677900  0.00000000  0.24534500  1
  O  O58  1  0.57643350  0.23588550  0.08525500  1
  O  O59  1  0.57643350  0.76411450  0.08525500  1
  O  O60  1  0.92712300  0.73109200  0.91325500  1
  O  O61  1  0.92712300  0.26890800  0.91325500  1
  O  O62  1  0.00254100  0.50000000  0.75175500  1
  O  O63  1  0.15496500  0.50000000  0.91234100  1
  O  O64  1  0.09497650  0.24031550  0.57722900  1
  O  O65  1  0.50631800  0.50000000  0.75187600  1
  O  O66  1  0.66430700  0.50000000  0.91031300  1
  O  O67  1  0.74343100  0.73948700  0.75297600  1
  O  O68  1  0.09497650  0.75968450  0.57722900  1
  O  O69  1  0.67392900  0.50000000  0.42660800  1
  O  O70  1  0.82576100  0.50000000  0.57449000  1
  O  O71  1  0.74343100  0.26051300  0.75297600  1
  O  O72  1  0.17372100  0.50000000  0.42524100  1
  O  O73  1  0.25587700  0.74013300  0.24822900  1
  O  O74  1  0.32604700  0.50000000  0.57410000  1
  O  O75  1  0.90550950  0.24100450  0.42248000  1
  O  O76  1  0.25587700  0.25986700  0.24822900  1
  O  O77  1  0.33812300  0.50000000  0.09527300  1
  O  O78  1  0.90550950  0.75899550  0.42248000  1
  O  O79  1  0.49412700  0.50000000  0.24927500  1
  O  O80  1  0.84205000  0.50000000  0.08577100  1
  O  O81  1  0.99677900  0.50000000  0.24534500  1
  O  O82  1  0.07643350  0.73588550  0.08525500  1
  O  O83  1  0.07643350  0.26411450  0.08525500  1
