# generated using pymatgen
data_As2Pb8O13
_symmetry_space_group_name_H-M   'P 1'
_cell_length_a   11.09653600
_cell_length_b   10.68754400
_cell_length_c   14.97911673
_cell_angle_alpha   90.00000000
_cell_angle_beta   97.83581244
_cell_angle_gamma   90.00000000
_symmetry_Int_Tables_number   1
_chemical_formula_structural   As2Pb8O13
_chemical_formula_sum   'As8 Pb32 O52'
_cell_volume   1759.85712488
_cell_formula_units_Z   4
loop_
 _symmetry_equiv_pos_site_id
 _symmetry_equiv_pos_as_xyz
  1  'x, y, z'
loop_
 _atom_site_type_symbol
 _atom_site_label
 _atom_site_symmetry_multiplicity
 _atom_site_fract_x
 _atom_site_fract_y
 _atom_site_fract_z
 _atom_site_occupancy
  As  As0  1  0.34295500  0.50000000  0.90290800  1
  As  As1  1  0.00000000  0.74774400  0.50000000  1
  As  As2  1  0.00000000  0.25225600  0.50000000  1
  As  As3  1  0.65704500  0.50000000  0.09709200  1
  As  As4  1  0.84295500  0.00000000  0.90290800  1
  As  As5  1  0.50000000  0.24774400  0.50000000  1
  As  As6  1  0.50000000  0.75225600  0.50000000  1
  As  As7  1  0.15704500  0.00000000  0.09709200  1
  Pb  Pb8  1  0.23995600  0.50000000  0.48141500  1
  Pb  Pb9  1  0.93449200  0.50000000  0.28409800  1
  Pb  Pb10  1  0.91554500  0.24651300  0.09865600  1
  Pb  Pb11  1  0.08445500  0.24651300  0.90134400  1
  Pb  Pb12  1  0.76004400  0.50000000  0.51858500  1
  Pb  Pb13  1  0.42416900  0.50000000  0.29933200  1
  Pb  Pb14  1  0.18914150  0.73158250  0.29452800  1
  Pb  Pb15  1  0.08445500  0.75348700  0.90134400  1
  Pb  Pb16  1  0.06550800  0.50000000  0.71590200  1
  Pb  Pb17  1  0.81085850  0.73158250  0.70547200  1
  Pb  Pb18  1  0.17437800  0.50000000  0.11654100  1
  Pb  Pb19  1  0.82562200  0.50000000  0.88345900  1
  Pb  Pb20  1  0.18914150  0.26841750  0.29452800  1
  Pb  Pb21  1  0.81085850  0.26841750  0.70547200  1
  Pb  Pb22  1  0.57583100  0.50000000  0.70066800  1
  Pb  Pb23  1  0.91554500  0.75348700  0.09865600  1
  Pb  Pb24  1  0.73995600  0.00000000  0.48141500  1
  Pb  Pb25  1  0.43449200  0.00000000  0.28409800  1
  Pb  Pb26  1  0.41554500  0.74651300  0.09865600  1
  Pb  Pb27  1  0.58445500  0.74651300  0.90134400  1
  Pb  Pb28  1  0.26004400  0.00000000  0.51858500  1
  Pb  Pb29  1  0.92416900  0.00000000  0.29933200  1
  Pb  Pb30  1  0.68914150  0.23158250  0.29452800  1
  Pb  Pb31  1  0.58445500  0.25348700  0.90134400  1
  Pb  Pb32  1  0.56550800  0.00000000  0.71590200  1
  Pb  Pb33  1  0.31085850  0.23158250  0.70547200  1
  Pb  Pb34  1  0.67437800  0.00000000  0.11654100  1
  Pb  Pb35  1  0.32562200  0.00000000  0.88345900  1
  Pb  Pb36  1  0.68914150  0.76841750  0.29452800  1
  Pb  Pb37  1  0.31085850  0.76841750  0.70547200  1
  Pb  Pb38  1  0.07583100  0.00000000  0.70066800  1
  Pb  Pb39  1  0.41554500  0.25348700  0.09865600  1
  O  O40  1  0.09630100  0.13283900  0.14028800  1
  O  O41  1  0.89670850  0.16120050  0.43169300  1
  O  O42  1  0.64145900  0.50000000  0.98110800  1
  O  O43  1  0.31138950  0.35811850  0.19377900  1
  O  O44  1  0.18878500  0.50000000  0.86367700  1
  O  O45  1  0.10329150  0.16120050  0.56830700  1
  O  O46  1  0.90369900  0.13283900  0.85971200  1
  O  O47  1  0.92335700  0.34613900  0.56836400  1
  O  O48  1  0.77208100  0.50000000  0.66734300  1
  O  O49  1  0.03125800  0.35949800  0.20912000  1
  O  O50  1  0.96874200  0.64050200  0.79088000  1
  O  O51  1  0.96874200  0.35949800  0.79088000  1
  O  O52  1  0.68861050  0.35811850  0.80622100  1
  O  O53  1  0.68861050  0.64188150  0.80622100  1
  O  O54  1  0.92335700  0.65386100  0.56836400  1
  O  O55  1  0.81121500  0.50000000  0.13632300  1
  O  O56  1  0.35854100  0.50000000  0.01889200  1
  O  O57  1  0.31138950  0.64188150  0.19377900  1
  O  O58  1  0.22791900  0.50000000  0.33265700  1
  O  O59  1  0.09630100  0.86716100  0.14028800  1
  O  O60  1  0.90369900  0.86716100  0.85971200  1
  O  O61  1  0.03125800  0.64050200  0.20912000  1
  O  O62  1  0.07664300  0.65386100  0.43163600  1
  O  O63  1  0.10329150  0.83879950  0.56830700  1
  O  O64  1  0.07664300  0.34613900  0.43163600  1
  O  O65  1  0.89670850  0.83879950  0.43169300  1
  O  O66  1  0.59630100  0.63283900  0.14028800  1
  O  O67  1  0.39670850  0.66120050  0.43169300  1
  O  O68  1  0.14145900  0.00000000  0.98110800  1
  O  O69  1  0.81138950  0.85811850  0.19377900  1
  O  O70  1  0.68878500  0.00000000  0.86367700  1
  O  O71  1  0.60329150  0.66120050  0.56830700  1
  O  O72  1  0.40369900  0.63283900  0.85971200  1
  O  O73  1  0.42335700  0.84613900  0.56836400  1
  O  O74  1  0.27208100  0.00000000  0.66734300  1
  O  O75  1  0.53125800  0.85949800  0.20912000  1
  O  O76  1  0.46874200  0.14050200  0.79088000  1
  O  O77  1  0.46874200  0.85949800  0.79088000  1
  O  O78  1  0.18861050  0.85811850  0.80622100  1
  O  O79  1  0.18861050  0.14188150  0.80622100  1
  O  O80  1  0.42335700  0.15386100  0.56836400  1
  O  O81  1  0.31121500  0.00000000  0.13632300  1
  O  O82  1  0.85854100  0.00000000  0.01889200  1
  O  O83  1  0.81138950  0.14188150  0.19377900  1
  O  O84  1  0.72791900  0.00000000  0.33265700  1
  O  O85  1  0.59630100  0.36716100  0.14028800  1
  O  O86  1  0.40369900  0.36716100  0.85971200  1
  O  O87  1  0.53125800  0.14050200  0.20912000  1
  O  O88  1  0.57664300  0.15386100  0.43163600  1
  O  O89  1  0.60329150  0.33879950  0.56830700  1
  O  O90  1  0.57664300  0.84613900  0.43163600  1
  O  O91  1  0.39670850  0.33879950  0.43169300  1
