# generated using pymatgen
data_TaBi3O7
_symmetry_space_group_name_H-M   'P 1'
_cell_length_a   3.76927900
_cell_length_b   3.92543488
_cell_length_c   12.88223313
_cell_angle_alpha   81.59719627
_cell_angle_beta   81.66709819
_cell_angle_gamma   61.92589977
_symmetry_Int_Tables_number   1
_chemical_formula_structural   TaBi3O7
_chemical_formula_sum   'Ta1 Bi3 O7'
_cell_volume   165.73971616
_cell_formula_units_Z   1
loop_
 _symmetry_equiv_pos_site_id
 _symmetry_equiv_pos_as_xyz
  1  'x, y, z'
loop_
 _atom_site_type_symbol
 _atom_site_label
 _atom_site_symmetry_multiplicity
 _atom_site_fract_x
 _atom_site_fract_y
 _atom_site_fract_z
 _atom_site_occupancy
  Ta  Ta0  1  0.45080700  0.54089800  0.50592700  1
  Bi  Bi1  1  0.00471600  0.94627800  0.01549300  1
  Bi  Bi2  1  0.75725100  0.71501200  0.73768500  1
  Bi  Bi3  1  0.25312200  0.18669500  0.27506900  1
  O  O4  1  0.47464000  0.35556100  0.65948900  1
  O  O5  1  0.19860300  0.11103500  0.46948700  1
  O  O6  1  0.08673900  0.97058600  0.82474700  1
  O  O7  1  0.94944300  0.87383700  0.19828700  1
  O  O8  1  0.84736300  0.72590400  0.54548000  1
  O  O9  1  0.55920500  0.50358700  0.35346800  1
  O  O10  1  0.32781100  0.28910700  0.03136700  1
