# generated using pymatgen
data_Ca11Al14O32
_symmetry_space_group_name_H-M   'P 1'
_cell_length_a   17.13346600
_cell_length_b   12.10092600
_cell_length_c   12.05848394
_cell_angle_alpha   90.00000000
_cell_angle_beta   134.74302059
_cell_angle_gamma   90.00000000
_symmetry_Int_Tables_number   1
_chemical_formula_structural   Ca11Al14O32
_chemical_formula_sum   'Ca22 Al28 O64'
_cell_volume   1775.74542041
_cell_formula_units_Z   2
loop_
 _symmetry_equiv_pos_site_id
 _symmetry_equiv_pos_as_xyz
  1  'x, y, z'
loop_
 _atom_site_type_symbol
 _atom_site_label
 _atom_site_symmetry_multiplicity
 _atom_site_fract_x
 _atom_site_fract_y
 _atom_site_fract_z
 _atom_site_occupancy
  Ca  Ca0  1  0.11258700  0.25338900  0.36421800  1
  Ca  Ca1  1  0.75276000  0.50112900  0.13709900  1
  Ca  Ca2  1  0.74724000  0.00112900  0.86290100  1
  Ca  Ca3  1  0.63367450  0.24536150  0.87879400  1
  Ca  Ca4  1  0.00000000  0.11736900  0.50000000  1
  Ca  Ca5  1  0.38741300  0.75338900  0.63578200  1
  Ca  Ca6  1  0.75025950  0.49968950  0.61341300  1
  Ca  Ca7  1  0.00000000  0.86421900  0.00000000  1
  Ca  Ca8  1  0.74974050  0.99968950  0.38658700  1
  Ca  Ca9  1  0.00000000  0.38951000  0.00000000  1
  Ca  Ca10  1  0.36632550  0.24536150  0.12120600  1
  Ca  Ca11  1  0.61258700  0.75338900  0.36421800  1
  Ca  Ca12  1  0.25276000  0.00112900  0.13709900  1
  Ca  Ca13  1  0.24724000  0.50112900  0.86290100  1
  Ca  Ca14  1  0.13367450  0.74536150  0.87879400  1
  Ca  Ca15  1  0.50000000  0.61736900  0.50000000  1
  Ca  Ca16  1  0.88741300  0.25338900  0.63578200  1
  Ca  Ca17  1  0.25025950  0.99968950  0.61341300  1
  Ca  Ca18  1  0.50000000  0.36421900  0.00000000  1
  Ca  Ca19  1  0.24974050  0.49968950  0.38658700  1
  Ca  Ca20  1  0.50000000  0.88951000  0.00000000  1
  Ca  Ca21  1  0.86632550  0.74536150  0.12120600  1
  Al  Al22  1  0.00000000  0.12560500  0.00000000  1
  Al  Al23  1  0.23260400  0.23343400  0.71567200  1
  Al  Al24  1  0.37461700  0.24905400  0.62273600  1
  Al  Al25  1  0.00000000  0.37862400  0.50000000  1
  Al  Al26  1  0.98312650  0.98337750  0.21608900  1
  Al  Al27  1  0.51687350  0.48337750  0.78391100  1
  Al  Al28  1  0.76739600  0.23343400  0.28432800  1
  Al  Al29  1  0.75082550  0.99958450  0.12656700  1
  Al  Al30  1  0.51736550  0.01666750  0.74816300  1
  Al  Al31  1  0.62538300  0.24905400  0.37726400  1
  Al  Al32  1  0.72644850  0.76694350  0.24046000  1
  Al  Al33  1  0.98263450  0.51666750  0.25183700  1
  Al  Al34  1  0.74917450  0.49958450  0.87343300  1
  Al  Al35  1  0.77355150  0.26694350  0.75954000  1
  Al  Al36  1  0.50000000  0.62560500  0.00000000  1
  Al  Al37  1  0.73260400  0.73343400  0.71567200  1
  Al  Al38  1  0.87461700  0.74905400  0.62273600  1
  Al  Al39  1  0.50000000  0.87862400  0.50000000  1
  Al  Al40  1  0.48312650  0.48337750  0.21608900  1
  Al  Al41  1  0.01687350  0.98337750  0.78391100  1
  Al  Al42  1  0.26739600  0.73343400  0.28432800  1
  Al  Al43  1  0.25082550  0.49958450  0.12656700  1
  Al  Al44  1  0.01736550  0.51666750  0.74816300  1
  Al  Al45  1  0.12538300  0.74905400  0.37726400  1
  Al  Al46  1  0.22644850  0.26694350  0.24046000  1
  Al  Al47  1  0.48263450  0.01666750  0.25183700  1
  Al  Al48  1  0.24917450  0.99958450  0.87343300  1
  Al  Al49  1  0.27355150  0.76694350  0.75954000  1
  O  O50  1  0.78530050  0.80259550  0.43113900  1
  O  O51  1  0.59485900  0.71722500  0.15560000  1
  O  O52  1  0.93799400  0.44848500  0.32851800  1
  O  O53  1  0.10072050  0.28661450  0.54600400  1
  O  O54  1  0.46765050  0.15013950  0.67377700  1
  O  O55  1  0.56200600  0.94848500  0.67148200  1
  O  O56  1  0.94459450  0.03465650  0.04391700  1
  O  O57  1  0.64734400  0.44317300  0.85865200  1
  O  O58  1  0.71849550  0.18526250  0.80679800  1
  O  O59  1  0.55540550  0.53465650  0.95608300  1
  O  O60  1  0.89927950  0.28661450  0.45399600  1
  O  O61  1  0.78251250  0.69524450  0.63108400  1
  O  O62  1  0.68056200  0.31336300  0.11534300  1
  O  O63  1  0.85265600  0.94317300  0.14134800  1
  O  O64  1  0.45678800  0.35493400  0.76257100  1
  O  O65  1  0.80725750  0.10047550  0.27175300  1
  O  O66  1  0.64990000  0.05281900  0.93793600  1
  O  O67  1  0.06454550  0.06831550  0.38107100  1
  O  O68  1  0.93545450  0.06831550  0.61892900  1
  O  O69  1  0.69274250  0.60047550  0.72824700  1
  O  O70  1  0.71748750  0.19524450  0.36891600  1
  O  O71  1  0.54321200  0.35493400  0.23742900  1
  O  O72  1  0.71469950  0.30259550  0.56886100  1
  O  O73  1  0.69189750  0.90423650  0.16032900  1
  O  O74  1  0.81943800  0.81336300  0.88465700  1
  O  O75  1  0.43169900  0.93546600  0.74776900  1
  O  O76  1  0.03234950  0.65013950  0.32622300  1
  O  O77  1  0.06830100  0.43546600  0.25223100  1
  O  O78  1  0.85010000  0.55281900  0.06206400  1
  O  O79  1  0.90514100  0.21722500  0.84440000  1
  O  O80  1  0.80810250  0.40423650  0.83967100  1
  O  O81  1  0.28150450  0.18526250  0.19320200  1
  O  O82  1  0.28530050  0.30259550  0.43113900  1
  O  O83  1  0.09485900  0.21722500  0.15560000  1
  O  O84  1  0.43799400  0.94848500  0.32851800  1
  O  O85  1  0.60072050  0.78661450  0.54600400  1
  O  O86  1  0.96765050  0.65013950  0.67377700  1
  O  O87  1  0.06200600  0.44848500  0.67148200  1
  O  O88  1  0.44459450  0.53465650  0.04391700  1
  O  O89  1  0.14734400  0.94317300  0.85865200  1
  O  O90  1  0.21849550  0.68526250  0.80679800  1
  O  O91  1  0.05540550  0.03465650  0.95608300  1
  O  O92  1  0.39927950  0.78661450  0.45399600  1
  O  O93  1  0.28251250  0.19524450  0.63108400  1
  O  O94  1  0.18056200  0.81336300  0.11534300  1
  O  O95  1  0.35265600  0.44317300  0.14134800  1
  O  O96  1  0.95678800  0.85493400  0.76257100  1
  O  O97  1  0.30725750  0.60047550  0.27175300  1
  O  O98  1  0.14990000  0.55281900  0.93793600  1
  O  O99  1  0.56454550  0.56831550  0.38107100  1
  O  O100  1  0.43545450  0.56831550  0.61892900  1
  O  O101  1  0.19274250  0.10047550  0.72824700  1
  O  O102  1  0.21748750  0.69524450  0.36891600  1
  O  O103  1  0.04321200  0.85493400  0.23742900  1
  O  O104  1  0.21469950  0.80259550  0.56886100  1
  O  O105  1  0.19189750  0.40423650  0.16032900  1
  O  O106  1  0.31943800  0.31336300  0.88465700  1
  O  O107  1  0.93169900  0.43546600  0.74776900  1
  O  O108  1  0.53234950  0.15013950  0.32622300  1
  O  O109  1  0.56830100  0.93546600  0.25223100  1
  O  O110  1  0.35010000  0.05281900  0.06206400  1
  O  O111  1  0.40514100  0.71722500  0.84440000  1
  O  O112  1  0.30810250  0.90423650  0.83967100  1
  O  O113  1  0.78150450  0.68526250  0.19320200  1
