# generated using pymatgen
data_BaTi2O5
_symmetry_space_group_name_H-M   'P 1'
_cell_length_a   17.07018200
_cell_length_b   3.91524600
_cell_length_c   9.69479512
_cell_angle_alpha   90.00000000
_cell_angle_beta   102.88710356
_cell_angle_gamma   90.00000000
_symmetry_Int_Tables_number   1
_chemical_formula_structural   BaTi2O5
_chemical_formula_sum   'Ba6 Ti12 O30'
_cell_volume   631.62083884
_cell_formula_units_Z   6
loop_
 _symmetry_equiv_pos_site_id
 _symmetry_equiv_pos_as_xyz
  1  'x, y, z'
loop_
 _atom_site_type_symbol
 _atom_site_label
 _atom_site_symmetry_multiplicity
 _atom_site_fract_x
 _atom_site_fract_y
 _atom_site_fract_z
 _atom_site_occupancy
  Ba  Ba0  1  0.00000000  0.50000000  0.50000000  1
  Ba  Ba1  1  0.86867000  0.50000000  0.01319500  1
  Ba  Ba2  1  0.63133000  0.00000000  0.98680500  1
  Ba  Ba3  1  0.50000000  0.00000000  0.50000000  1
  Ba  Ba4  1  0.36867000  0.00000000  0.01319500  1
  Ba  Ba5  1  0.13133000  0.50000000  0.98680500  1
  Ti  Ti6  1  0.83273600  0.00000000  0.30138800  1
  Ti  Ti7  1  0.66726400  0.50000000  0.69861200  1
  Ti  Ti8  1  0.70502800  0.50000000  0.37354100  1
  Ti  Ti9  1  0.79497200  0.00000000  0.62645900  1
  Ti  Ti10  1  0.53792200  0.50000000  0.20884300  1
  Ti  Ti11  1  0.96207800  0.00000000  0.79115700  1
  Ti  Ti12  1  0.33273600  0.50000000  0.30138800  1
  Ti  Ti13  1  0.16726400  0.00000000  0.69861200  1
  Ti  Ti14  1  0.20502800  0.00000000  0.37354100  1
  Ti  Ti15  1  0.29497200  0.50000000  0.62645900  1
  Ti  Ti16  1  0.03792200  0.00000000  0.20884300  1
  Ti  Ti17  1  0.46207800  0.50000000  0.79115700  1
  O  O18  1  0.00000000  0.00000000  0.00000000  1
  O  O19  1  0.94175100  0.00000000  0.28929800  1
  O  O20  1  0.55824900  0.50000000  0.71070200  1
  O  O21  1  0.78942800  0.00000000  0.12132600  1
  O  O22  1  0.71057200  0.50000000  0.87867400  1
  O  O23  1  0.73572100  0.00000000  0.39982500  1
  O  O24  1  0.76427900  0.50000000  0.60017500  1
  O  O25  1  0.67563800  0.00000000  0.66234800  1
  O  O26  1  0.82436200  0.50000000  0.33765200  1
  O  O27  1  0.96647700  0.50000000  0.79327500  1
  O  O28  1  0.53352300  0.00000000  0.20672500  1
  O  O29  1  0.89328300  0.00000000  0.57734600  1
  O  O30  1  0.60671700  0.50000000  0.42265400  1
  O  O31  1  0.84782100  0.00000000  0.81217800  1
  O  O32  1  0.65217900  0.50000000  0.18782200  1
  O  O33  1  0.50000000  0.50000000  0.00000000  1
  O  O34  1  0.44175100  0.50000000  0.28929800  1
  O  O35  1  0.05824900  0.00000000  0.71070200  1
  O  O36  1  0.28942800  0.50000000  0.12132600  1
  O  O37  1  0.21057200  0.00000000  0.87867400  1
  O  O38  1  0.23572100  0.50000000  0.39982500  1
  O  O39  1  0.26427900  0.00000000  0.60017500  1
  O  O40  1  0.17563800  0.50000000  0.66234800  1
  O  O41  1  0.32436200  0.00000000  0.33765200  1
  O  O42  1  0.46647700  0.00000000  0.79327500  1
  O  O43  1  0.03352300  0.50000000  0.20672500  1
  O  O44  1  0.39328300  0.50000000  0.57734600  1
  O  O45  1  0.10671700  0.00000000  0.42265400  1
  O  O46  1  0.34782100  0.50000000  0.81217800  1
  O  O47  1  0.15217900  0.00000000  0.18782200  1
