# generated using pymatgen
data_SrZrO3
_symmetry_space_group_name_H-M   'P 1'
_cell_length_a   8.26869200
_cell_length_b   8.35091800
_cell_length_c   8.33699900
_cell_angle_alpha   90.00000000
_cell_angle_beta   90.00000000
_cell_angle_gamma   90.00000000
_symmetry_Int_Tables_number   1
_chemical_formula_structural   SrZrO3
_chemical_formula_sum   'Sr8 Zr8 O24'
_cell_volume   575.67952573
_cell_formula_units_Z   8
loop_
 _symmetry_equiv_pos_site_id
 _symmetry_equiv_pos_as_xyz
  1  'x, y, z'
loop_
 _atom_site_type_symbol
 _atom_site_label
 _atom_site_symmetry_multiplicity
 _atom_site_fract_x
 _atom_site_fract_y
 _atom_site_fract_z
 _atom_site_occupancy
  Sr  Sr0  1  0.50000000  0.51244600  0.75000000  1
  Sr  Sr1  1  0.50000000  0.48755400  0.25000000  1
  Sr  Sr2  1  0.50000000  0.00514100  0.75000000  1
  Sr  Sr3  1  0.50000000  0.99485900  0.25000000  1
  Sr  Sr4  1  0.00000000  0.01244600  0.75000000  1
  Sr  Sr5  1  0.00000000  0.98755400  0.25000000  1
  Sr  Sr6  1  0.00000000  0.50514100  0.75000000  1
  Sr  Sr7  1  0.00000000  0.49485900  0.25000000  1
  Zr  Zr8  1  0.25000000  0.75000000  0.00000000  1
  Zr  Zr9  1  0.25000000  0.75000000  0.50000000  1
  Zr  Zr10  1  0.25000000  0.25000000  0.00000000  1
  Zr  Zr11  1  0.25000000  0.25000000  0.50000000  1
  Zr  Zr12  1  0.75000000  0.25000000  0.00000000  1
  Zr  Zr13  1  0.75000000  0.25000000  0.50000000  1
  Zr  Zr14  1  0.75000000  0.75000000  0.00000000  1
  Zr  Zr15  1  0.75000000  0.75000000  0.50000000  1
  O  O16  1  0.70268500  0.74458900  0.75000000  1
  O  O17  1  0.29731500  0.25541100  0.25000000  1
  O  O18  1  0.70268500  0.25541100  0.25000000  1
  O  O19  1  0.29731500  0.74458900  0.75000000  1
  O  O20  1  0.50000000  0.29072200  0.54477200  1
  O  O21  1  0.50000000  0.70927800  0.04477200  1
  O  O22  1  0.50000000  0.70927800  0.45522800  1
  O  O23  1  0.50000000  0.29072200  0.95522800  1
  O  O24  1  0.29406600  0.00000000  0.00000000  1
  O  O25  1  0.70593400  0.00000000  0.50000000  1
  O  O26  1  0.70593400  0.00000000  0.00000000  1
  O  O27  1  0.29406600  0.00000000  0.50000000  1
  O  O28  1  0.20268500  0.24458900  0.75000000  1
  O  O29  1  0.79731500  0.75541100  0.25000000  1
  O  O30  1  0.20268500  0.75541100  0.25000000  1
  O  O31  1  0.79731500  0.24458900  0.75000000  1
  O  O32  1  0.00000000  0.79072200  0.54477200  1
  O  O33  1  0.00000000  0.20927800  0.04477200  1
  O  O34  1  0.00000000  0.20927800  0.45522800  1
  O  O35  1  0.00000000  0.79072200  0.95522800  1
  O  O36  1  0.79406600  0.50000000  0.00000000  1
  O  O37  1  0.20593400  0.50000000  0.50000000  1
  O  O38  1  0.20593400  0.50000000  0.00000000  1
  O  O39  1  0.79406600  0.50000000  0.50000000  1
