# generated using pymatgen
data_TlBiS2
_symmetry_space_group_name_H-M   'P 1'
_cell_length_a   5.95717200
_cell_length_b   5.95717200
_cell_length_c   12.29395600
_cell_angle_alpha   90.00000000
_cell_angle_beta   90.00000000
_cell_angle_gamma   90.00000000
_symmetry_Int_Tables_number   1
_chemical_formula_structural   TlBiS2
_chemical_formula_sum   'Tl4 Bi4 S8'
_cell_volume   436.28665947
_cell_formula_units_Z   4
loop_
 _symmetry_equiv_pos_site_id
 _symmetry_equiv_pos_as_xyz
  1  'x, y, z'
loop_
 _atom_site_type_symbol
 _atom_site_label
 _atom_site_symmetry_multiplicity
 _atom_site_fract_x
 _atom_site_fract_y
 _atom_site_fract_z
 _atom_site_occupancy
  Tl  Tl0  1  0.00000000  0.00000000  0.00000000  1
  Tl  Tl1  1  0.00000000  0.50000000  0.25000000  1
  Tl  Tl2  1  0.50000000  0.50000000  0.50000000  1
  Tl  Tl3  1  0.50000000  0.00000000  0.75000000  1
  Bi  Bi4  1  0.50000000  0.00000000  0.25000000  1
  Bi  Bi5  1  0.50000000  0.50000000  0.00000000  1
  Bi  Bi6  1  0.00000000  0.50000000  0.75000000  1
  Bi  Bi7  1  0.00000000  0.00000000  0.50000000  1
  S  S8  1  0.50000000  0.50000000  0.22777300  1
  S  S9  1  0.00000000  0.00000000  0.27222700  1
  S  S10  1  0.50000000  0.00000000  0.02222700  1
  S  S11  1  0.50000000  0.00000000  0.47777300  1
  S  S12  1  0.00000000  0.00000000  0.72777300  1
  S  S13  1  0.50000000  0.50000000  0.77222700  1
  S  S14  1  0.00000000  0.50000000  0.52222700  1
  S  S15  1  0.00000000  0.50000000  0.97777300  1
