# generated using pymatgen
data_K2(NbBr3)3
_symmetry_space_group_name_H-M   'P 1'
_cell_length_a   10.79532800
_cell_length_b   17.82641000
_cell_length_c   10.31827297
_cell_angle_alpha   90.00000000
_cell_angle_beta   114.62473737
_cell_angle_gamma   90.00000000
_symmetry_Int_Tables_number   1
_chemical_formula_structural   K2(NbBr3)3
_chemical_formula_sum   'K8 Nb12 Br36'
_cell_volume   1805.08444929
_cell_formula_units_Z   4
loop_
 _symmetry_equiv_pos_site_id
 _symmetry_equiv_pos_as_xyz
  1  'x, y, z'
loop_
 _atom_site_type_symbol
 _atom_site_label
 _atom_site_symmetry_multiplicity
 _atom_site_fract_x
 _atom_site_fract_y
 _atom_site_fract_z
 _atom_site_occupancy
  K  K0  1  0.38986800  0.33923700  0.16776100  1
  K  K1  1  0.61013200  0.33923700  0.83223900  1
  K  K2  1  0.61013200  0.66076300  0.83223900  1
  K  K3  1  0.38986800  0.66076300  0.16776100  1
  K  K4  1  0.88986800  0.83923700  0.16776100  1
  K  K5  1  0.11013200  0.83923700  0.83223900  1
  K  K6  1  0.11013200  0.16076300  0.83223900  1
  K  K7  1  0.88986800  0.16076300  0.16776100  1
  Nb  Nb8  1  0.37203150  0.08351650  0.36662500  1
  Nb  Nb9  1  0.62796850  0.08351650  0.63337500  1
  Nb  Nb10  1  0.62796850  0.91648350  0.63337500  1
  Nb  Nb11  1  0.37203150  0.91648350  0.36662500  1
  Nb  Nb12  1  0.61545100  0.00000000  0.37700400  1
  Nb  Nb13  1  0.38454900  0.00000000  0.62299600  1
  Nb  Nb14  1  0.87203150  0.58351650  0.36662500  1
  Nb  Nb15  1  0.12796850  0.58351650  0.63337500  1
  Nb  Nb16  1  0.12796850  0.41648350  0.63337500  1
  Nb  Nb17  1  0.87203150  0.41648350  0.36662500  1
  Nb  Nb18  1  0.11545100  0.50000000  0.37700400  1
  Nb  Nb19  1  0.88454900  0.50000000  0.62299600  1
  Br  Br20  1  0.30358550  0.69725150  0.81991900  1
  Br  Br21  1  0.69641450  0.69725150  0.18008100  1
  Br  Br22  1  0.81579200  0.00000000  0.82554900  1
  Br  Br23  1  0.18420800  0.00000000  0.17445100  1
  Br  Br24  1  0.51691550  0.10185850  0.81296800  1
  Br  Br25  1  0.48308450  0.10185850  0.18703200  1
  Br  Br26  1  0.48308450  0.89814150  0.18703200  1
  Br  Br27  1  0.51691550  0.89814150  0.81296800  1
  Br  Br28  1  0.20287350  0.10332150  0.48726100  1
  Br  Br29  1  0.79712650  0.10332150  0.51273900  1
  Br  Br30  1  0.79712650  0.89667850  0.51273900  1
  Br  Br31  1  0.20287350  0.89667850  0.48726100  1
  Br  Br32  1  0.50000000  0.79484900  0.50000000  1
  Br  Br33  1  0.50000000  0.20515100  0.50000000  1
  Br  Br34  1  0.77064500  0.00000000  0.21257300  1
  Br  Br35  1  0.22935500  0.00000000  0.78742700  1
  Br  Br36  1  0.30358550  0.30274850  0.81991900  1
  Br  Br37  1  0.69641450  0.30274850  0.18008100  1
  Br  Br38  1  0.80358550  0.19725150  0.81991900  1
  Br  Br39  1  0.19641450  0.19725150  0.18008100  1
  Br  Br40  1  0.31579200  0.50000000  0.82554900  1
  Br  Br41  1  0.68420800  0.50000000  0.17445100  1
  Br  Br42  1  0.01691550  0.60185850  0.81296800  1
  Br  Br43  1  0.98308450  0.60185850  0.18703200  1
  Br  Br44  1  0.98308450  0.39814150  0.18703200  1
  Br  Br45  1  0.01691550  0.39814150  0.81296800  1
  Br  Br46  1  0.70287350  0.60332150  0.48726100  1
  Br  Br47  1  0.29712650  0.60332150  0.51273900  1
  Br  Br48  1  0.29712650  0.39667850  0.51273900  1
  Br  Br49  1  0.70287350  0.39667850  0.48726100  1
  Br  Br50  1  0.00000000  0.29484900  0.50000000  1
  Br  Br51  1  0.00000000  0.70515100  0.50000000  1
  Br  Br52  1  0.27064500  0.50000000  0.21257300  1
  Br  Br53  1  0.72935500  0.50000000  0.78742700  1
  Br  Br54  1  0.80358550  0.80274850  0.81991900  1
  Br  Br55  1  0.19641450  0.80274850  0.18008100  1
