# generated using pymatgen
data_Tl4SnTe3
_symmetry_space_group_name_H-M   'P 1'
_cell_length_a   8.94082000
_cell_length_b   8.94082000
_cell_length_c   13.36387000
_cell_angle_alpha   90.00000000
_cell_angle_beta   90.00000000
_cell_angle_gamma   90.00000000
_symmetry_Int_Tables_number   1
_chemical_formula_structural   Tl4SnTe3
_chemical_formula_sum   'Tl16 Sn4 Te12'
_cell_volume   1068.28454503
_cell_formula_units_Z   4
loop_
 _symmetry_equiv_pos_site_id
 _symmetry_equiv_pos_as_xyz
  1  'x, y, z'
loop_
 _atom_site_type_symbol
 _atom_site_label
 _atom_site_symmetry_multiplicity
 _atom_site_fract_x
 _atom_site_fract_y
 _atom_site_fract_z
 _atom_site_occupancy
  Tl  Tl0  1  0.64561250  0.14561250  0.34160750  1
  Tl  Tl1  1  0.85438750  0.35438750  0.15839250  1
  Tl  Tl2  1  0.85438750  0.64561250  0.34160750  1
  Tl  Tl3  1  0.14561250  0.35438750  0.34160750  1
  Tl  Tl4  1  0.64561250  0.85438750  0.15839250  1
  Tl  Tl5  1  0.35438750  0.14561250  0.15839250  1
  Tl  Tl6  1  0.14561250  0.64561250  0.15839250  1
  Tl  Tl7  1  0.35438750  0.85438750  0.34160750  1
  Tl  Tl8  1  0.14561250  0.64561250  0.84160750  1
  Tl  Tl9  1  0.35438750  0.85438750  0.65839250  1
  Tl  Tl10  1  0.35438750  0.14561250  0.84160750  1
  Tl  Tl11  1  0.64561250  0.85438750  0.84160750  1
  Tl  Tl12  1  0.14561250  0.35438750  0.65839250  1
  Tl  Tl13  1  0.85438750  0.64561250  0.65839250  1
  Tl  Tl14  1  0.64561250  0.14561250  0.65839250  1
  Tl  Tl15  1  0.85438750  0.35438750  0.84160750  1
  Sn  Sn16  1  0.00000000  0.00000000  0.00000000  1
  Sn  Sn17  1  0.50000000  0.50000000  0.00000000  1
  Sn  Sn18  1  0.50000000  0.50000000  0.50000000  1
  Sn  Sn19  1  0.00000000  0.00000000  0.50000000  1
  Te  Te20  1  0.33401250  0.83401250  0.00000000  1
  Te  Te21  1  0.83401250  0.66598750  0.00000000  1
  Te  Te22  1  0.16598750  0.33401250  0.00000000  1
  Te  Te23  1  0.50000000  0.50000000  0.25000000  1
  Te  Te24  1  0.00000000  0.00000000  0.25000000  1
  Te  Te25  1  0.16598750  0.66598750  0.50000000  1
  Te  Te26  1  0.83401250  0.33401250  0.50000000  1
  Te  Te27  1  0.33401250  0.16598750  0.50000000  1
  Te  Te28  1  0.66598750  0.83401250  0.50000000  1
  Te  Te29  1  0.00000000  0.00000000  0.75000000  1
  Te  Te30  1  0.50000000  0.50000000  0.75000000  1
  Te  Te31  1  0.66598750  0.16598750  0.00000000  1
