# generated using pymatgen
data_SnHgF6
_symmetry_space_group_name_H-M   'P 1'
_cell_length_a   5.62486638
_cell_length_b   5.62486638
_cell_length_c   15.30535397
_cell_angle_alpha   90.00000000
_cell_angle_beta   90.00000000
_cell_angle_gamma   120.00000000
_symmetry_Int_Tables_number   1
_chemical_formula_structural   SnHgF6
_chemical_formula_sum   'Sn3 Hg3 F18'
_cell_volume   419.37103370
_cell_formula_units_Z   3
loop_
 _symmetry_equiv_pos_site_id
 _symmetry_equiv_pos_as_xyz
  1  'x, y, z'
loop_
 _atom_site_type_symbol
 _atom_site_label
 _atom_site_symmetry_multiplicity
 _atom_site_fract_x
 _atom_site_fract_y
 _atom_site_fract_z
 _atom_site_occupancy
  Sn  Sn0  1  0.00000000  0.00000000  0.00000000  1
  Sn  Sn1  1  0.66666667  0.33333333  0.33333333  1
  Sn  Sn2  1  0.33333333  0.66666667  0.66666667  1
  Hg  Hg3  1  0.33333333  0.66666667  0.16666667  1
  Hg  Hg4  1  1.00000000  0.00000000  0.50000000  1
  Hg  Hg5  1  0.66666667  0.33333333  0.83333333  1
  F  F6  1  0.03705667  0.72858433  0.07549133  1
  F  F7  1  0.27141567  0.30847233  0.07549133  1
  F  F8  1  0.69152767  0.96294333  0.07549133  1
  F  F9  1  0.97513900  0.37039000  0.25784200  1
  F  F10  1  0.39525100  0.02486100  0.25784200  1
  F  F11  1  0.62961000  0.60474900  0.25784200  1
  F  F12  1  0.70372333  0.06191767  0.40882467  1
  F  F13  1  0.93808233  0.64180567  0.40882467  1
  F  F14  1  0.35819433  0.29627667  0.40882467  1
  F  F15  1  0.64180567  0.70372333  0.59117533  1
  F  F16  1  0.06191767  0.35819433  0.59117533  1
  F  F17  1  0.29627667  0.93808233  0.59117533  1
  F  F18  1  0.37039000  0.39525100  0.74215800  1
  F  F19  1  0.60474900  0.97513900  0.74215800  1
  F  F20  1  0.02486100  0.62961000  0.74215800  1
  F  F21  1  0.30847233  0.03705667  0.92450867  1
  F  F22  1  0.72858433  0.69152767  0.92450867  1
  F  F23  1  0.96294333  0.27141567  0.92450867  1
