# generated using pymatgen
data_Sr(YS2)2
_symmetry_space_group_name_H-M   'P 1'
_cell_length_a   8.54805800
_cell_length_b   8.54805800
_cell_length_c   8.52612800
_cell_angle_alpha   90.00000000
_cell_angle_beta   90.00000000
_cell_angle_gamma   90.00000000
_symmetry_Int_Tables_number   1
_chemical_formula_structural   Sr(YS2)2
_chemical_formula_sum   'Sr4 Y8 S16'
_cell_volume   622.99816691
_cell_formula_units_Z   4
loop_
 _symmetry_equiv_pos_site_id
 _symmetry_equiv_pos_as_xyz
  1  'x, y, z'
loop_
 _atom_site_type_symbol
 _atom_site_label
 _atom_site_symmetry_multiplicity
 _atom_site_fract_x
 _atom_site_fract_y
 _atom_site_fract_z
 _atom_site_occupancy
  Sr  Sr0  1  0.50000000  0.00000000  0.75000000  1
  Sr  Sr1  1  0.00000000  0.00000000  0.50000000  1
  Sr  Sr2  1  0.00000000  0.50000000  0.25000000  1
  Sr  Sr3  1  0.50000000  0.50000000  0.00000000  1
  Y  Y4  1  0.75000000  0.62018700  0.62500000  1
  Y  Y5  1  0.37981300  0.75000000  0.37500000  1
  Y  Y6  1  0.25000000  0.37981300  0.62500000  1
  Y  Y7  1  0.62018700  0.25000000  0.37500000  1
  Y  Y8  1  0.25000000  0.12018700  0.12500000  1
  Y  Y9  1  0.87981300  0.25000000  0.87500000  1
  Y  Y10  1  0.75000000  0.87981300  0.12500000  1
  Y  Y11  1  0.12018700  0.75000000  0.87500000  1
  S  S12  1  0.67353050  0.57254850  0.31555350  1
  S  S13  1  0.57254850  0.17353050  0.06555350  1
  S  S14  1  0.57254850  0.32646950  0.68444650  1
  S  S15  1  0.82646950  0.92745150  0.81555350  1
  S  S16  1  0.92745150  0.32646950  0.56555350  1
  S  S17  1  0.67353050  0.92745150  0.43444650  1
  S  S18  1  0.82646950  0.57254850  0.93444650  1
  S  S19  1  0.92745150  0.17353050  0.18444650  1
  S  S20  1  0.17353050  0.07254850  0.81555350  1
  S  S21  1  0.07254850  0.67353050  0.56555350  1
  S  S22  1  0.07254850  0.82646950  0.18444650  1
  S  S23  1  0.32646950  0.42745150  0.31555350  1
  S  S24  1  0.42745150  0.82646950  0.06555350  1
  S  S25  1  0.17353050  0.42745150  0.93444650  1
  S  S26  1  0.32646950  0.07254850  0.43444650  1
  S  S27  1  0.42745150  0.67353050  0.68444650  1
