# generated using pymatgen
data_Mg(GaO2)2
_symmetry_space_group_name_H-M   'P 1'
_cell_length_a   10.24455600
_cell_length_b   5.98155800
_cell_length_c   14.49515608
_cell_angle_alpha   90.00000000
_cell_angle_beta   90.09050228
_cell_angle_gamma   90.00000000
_symmetry_Int_Tables_number   1
_chemical_formula_structural   Mg(GaO2)2
_chemical_formula_sum   'Mg12 Ga24 O48'
_cell_volume   888.23894992
_cell_formula_units_Z   12
loop_
 _symmetry_equiv_pos_site_id
 _symmetry_equiv_pos_as_xyz
  1  'x, y, z'
loop_
 _atom_site_type_symbol
 _atom_site_label
 _atom_site_symmetry_multiplicity
 _atom_site_fract_x
 _atom_site_fract_y
 _atom_site_fract_z
 _atom_site_occupancy
  Mg  Mg0  1  0.66169400  0.00000000  0.04132200  1
  Mg  Mg1  1  0.16558500  0.00000000  0.16764900  1
  Mg  Mg2  1  0.50011500  0.00000000  0.49982000  1
  Mg  Mg3  1  0.33365100  0.00000000  0.33305000  1
  Mg  Mg4  1  0.83265800  0.00000000  0.83201100  1
  Mg  Mg5  1  0.66696600  0.00000000  0.66617700  1
  Mg  Mg6  1  0.16169400  0.50000000  0.04132200  1
  Mg  Mg7  1  0.66558500  0.50000000  0.16764900  1
  Mg  Mg8  1  0.00011500  0.50000000  0.49982000  1
  Mg  Mg9  1  0.83365100  0.50000000  0.33305000  1
  Mg  Mg10  1  0.33265800  0.50000000  0.83201100  1
  Mg  Mg11  1  0.16696600  0.50000000  0.66617700  1
  Ga  Ga12  1  0.99365600  0.00000000  0.37954500  1
  Ga  Ga13  1  0.41793600  0.74680000  0.16754900  1
  Ga  Ga14  1  0.00036100  0.00000000  0.00446300  1
  Ga  Ga15  1  0.41793600  0.25320000  0.16754900  1
  Ga  Ga16  1  0.25014700  0.24961800  0.49970400  1
  Ga  Ga17  1  0.32674800  0.00000000  0.70902700  1
  Ga  Ga18  1  0.25014700  0.75038200  0.49970400  1
  Ga  Ga19  1  0.58480450  0.24664650  0.83169100  1
  Ga  Ga20  1  0.67326900  0.00000000  0.28851200  1
  Ga  Ga21  1  0.58480450  0.75335350  0.83169100  1
  Ga  Ga22  1  0.00673800  0.00000000  0.62165300  1
  Ga  Ga23  1  0.34037700  0.00000000  0.95913300  1
  Ga  Ga24  1  0.49365600  0.50000000  0.37954500  1
  Ga  Ga25  1  0.91793600  0.24680000  0.16754900  1
  Ga  Ga26  1  0.50036100  0.50000000  0.00446300  1
  Ga  Ga27  1  0.91793600  0.75320000  0.16754900  1
  Ga  Ga28  1  0.75014700  0.74961800  0.49970400  1
  Ga  Ga29  1  0.82674800  0.50000000  0.70902700  1
  Ga  Ga30  1  0.75014700  0.25038200  0.49970400  1
  Ga  Ga31  1  0.08480450  0.74664650  0.83169100  1
  Ga  Ga32  1  0.17326900  0.50000000  0.28851200  1
  Ga  Ga33  1  0.08480450  0.25335350  0.83169100  1
  Ga  Ga34  1  0.50673800  0.50000000  0.62165300  1
  Ga  Ga35  1  0.84037700  0.50000000  0.95913300  1
  O  O36  1  0.57104500  0.73023700  0.08642900  1
  O  O37  1  0.57104500  0.26976300  0.08642900  1
  O  O38  1  0.99686700  0.00000000  0.24844700  1
  O  O39  1  0.84578200  0.00000000  0.08784900  1
  O  O40  1  0.40857000  0.24028000  0.42086900  1
  O  O41  1  0.49545800  0.00000000  0.24494500  1
  O  O42  1  0.25808100  0.24134300  0.24554700  1
  O  O43  1  0.32940000  0.00000000  0.57714500  1
  O  O44  1  0.40857000  0.75972000  0.42086900  1
  O  O45  1  0.33667400  0.00000000  0.08941200  1
  O  O46  1  0.17239000  0.00000000  0.42125700  1
  O  O47  1  0.25808100  0.75865700  0.24554700  1
  O  O48  1  0.74349250  0.24269150  0.75287600  1
  O  O49  1  0.82840100  0.00000000  0.57920100  1
  O  O50  1  0.59142250  0.24061850  0.57943600  1
  O  O51  1  0.74349250  0.75730850  0.75287600  1
  O  O52  1  0.66022600  0.00000000  0.90321600  1
  O  O53  1  0.67069900  0.00000000  0.42167800  1
  O  O54  1  0.50303300  0.00000000  0.75295400  1
  O  O55  1  0.59142250  0.75938150  0.57943600  1
  O  O56  1  0.15923300  0.00000000  0.91545300  1
  O  O57  1  0.42502800  0.73545000  0.91572100  1
  O  O58  1  0.00515000  0.00000000  0.75608600  1
  O  O59  1  0.42502800  0.26455000  0.91572100  1
  O  O60  1  0.07104500  0.23023700  0.08642900  1
  O  O61  1  0.07104500  0.76976300  0.08642900  1
  O  O62  1  0.49686700  0.50000000  0.24844700  1
  O  O63  1  0.34578200  0.50000000  0.08784900  1
  O  O64  1  0.90857000  0.74028000  0.42086900  1
  O  O65  1  0.99545800  0.50000000  0.24494500  1
  O  O66  1  0.75808100  0.74134300  0.24554700  1
  O  O67  1  0.82940000  0.50000000  0.57714500  1
  O  O68  1  0.90857000  0.25972000  0.42086900  1
  O  O69  1  0.83667400  0.50000000  0.08941200  1
  O  O70  1  0.67239000  0.50000000  0.42125700  1
  O  O71  1  0.75808100  0.25865700  0.24554700  1
  O  O72  1  0.24349250  0.74269150  0.75287600  1
  O  O73  1  0.32840100  0.50000000  0.57920100  1
  O  O74  1  0.09142250  0.74061850  0.57943600  1
  O  O75  1  0.24349250  0.25730850  0.75287600  1
  O  O76  1  0.16022600  0.50000000  0.90321600  1
  O  O77  1  0.17069900  0.50000000  0.42167800  1
  O  O78  1  0.00303300  0.50000000  0.75295400  1
  O  O79  1  0.09142250  0.25938150  0.57943600  1
  O  O80  1  0.65923300  0.50000000  0.91545300  1
  O  O81  1  0.92502800  0.23545000  0.91572100  1
  O  O82  1  0.50515000  0.50000000  0.75608600  1
  O  O83  1  0.92502800  0.76455000  0.91572100  1
