# generated using pymatgen
data_LiYSe2
_symmetry_space_group_name_H-M   'P 1'
_cell_length_a   5.69927800
_cell_length_b   5.69927800
_cell_length_c   11.59159000
_cell_angle_alpha   90.00000000
_cell_angle_beta   90.00000000
_cell_angle_gamma   90.00000000
_symmetry_Int_Tables_number   1
_chemical_formula_structural   LiYSe2
_chemical_formula_sum   'Li4 Y4 Se8'
_cell_volume   376.51535708
_cell_formula_units_Z   4
loop_
 _symmetry_equiv_pos_site_id
 _symmetry_equiv_pos_as_xyz
  1  'x, y, z'
loop_
 _atom_site_type_symbol
 _atom_site_label
 _atom_site_symmetry_multiplicity
 _atom_site_fract_x
 _atom_site_fract_y
 _atom_site_fract_z
 _atom_site_occupancy
  Li  Li0  1  0.50000000  0.00000000  0.25000000  1
  Li  Li1  1  0.50000000  0.50000000  0.00000000  1
  Li  Li2  1  0.00000000  0.50000000  0.75000000  1
  Li  Li3  1  0.00000000  0.00000000  0.50000000  1
  Y  Y4  1  0.00000000  0.00000000  0.00000000  1
  Y  Y5  1  0.00000000  0.50000000  0.25000000  1
  Y  Y6  1  0.50000000  0.50000000  0.50000000  1
  Y  Y7  1  0.50000000  0.00000000  0.75000000  1
  Se  Se8  1  0.50000000  0.50000000  0.25320600  1
  Se  Se9  1  0.00000000  0.50000000  0.49679400  1
  Se  Se10  1  0.00000000  0.50000000  0.00320600  1
  Se  Se11  1  0.00000000  0.00000000  0.24679400  1
  Se  Se12  1  0.00000000  0.00000000  0.75320600  1
  Se  Se13  1  0.50000000  0.00000000  0.99679400  1
  Se  Se14  1  0.50000000  0.00000000  0.50320600  1
  Se  Se15  1  0.50000000  0.50000000  0.74679400  1
