# generated using pymatgen
data_Si3CCl7
_symmetry_space_group_name_H-M   'P 1'
_cell_length_a   16.42090400
_cell_length_b   9.01896600
_cell_length_c   18.16619034
_cell_angle_alpha   90.00000000
_cell_angle_beta   104.56616556
_cell_angle_gamma   90.00000000
_symmetry_Int_Tables_number   1
_chemical_formula_structural   Si3CCl7
_chemical_formula_sum   'Si24 C8 Cl56'
_cell_volume   2603.92967416
_cell_formula_units_Z   8
loop_
 _symmetry_equiv_pos_site_id
 _symmetry_equiv_pos_as_xyz
  1  'x, y, z'
loop_
 _atom_site_type_symbol
 _atom_site_label
 _atom_site_symmetry_multiplicity
 _atom_site_fract_x
 _atom_site_fract_y
 _atom_site_fract_z
 _atom_site_occupancy
  Si  Si0  1  0.62623400  0.01210100  0.90703300  1
  Si  Si1  1  0.95526050  0.80347650  0.68711200  1
  Si  Si2  1  0.95526050  0.19652350  0.18711200  1
  Si  Si3  1  0.56391500  0.96584400  0.22148400  1
  Si  Si4  1  0.54473950  0.30347650  0.81288800  1
  Si  Si5  1  0.87376600  0.51210100  0.59296700  1
  Si  Si6  1  0.87376600  0.48789900  0.09296700  1
  Si  Si7  1  0.62623400  0.98789900  0.40703300  1
  Si  Si8  1  0.93608500  0.46584400  0.27851600  1
  Si  Si9  1  0.93608500  0.53415600  0.77851600  1
  Si  Si10  1  0.54473950  0.69652350  0.31288800  1
  Si  Si11  1  0.56391500  0.03415600  0.72148400  1
  Si  Si12  1  0.12623400  0.51210100  0.90703300  1
  Si  Si13  1  0.45526050  0.30347650  0.68711200  1
  Si  Si14  1  0.45526050  0.69652350  0.18711200  1
  Si  Si15  1  0.06391500  0.46584400  0.22148400  1
  Si  Si16  1  0.04473950  0.80347650  0.81288800  1
  Si  Si17  1  0.37376600  0.01210100  0.59296700  1
  Si  Si18  1  0.37376600  0.98789900  0.09296700  1
  Si  Si19  1  0.12623400  0.48789900  0.40703300  1
  Si  Si20  1  0.43608500  0.96584400  0.27851600  1
  Si  Si21  1  0.43608500  0.03415600  0.77851600  1
  Si  Si22  1  0.04473950  0.19652350  0.31288800  1
  Si  Si23  1  0.06391500  0.53415600  0.72148400  1
  C  C24  1  0.55153100  0.90977400  0.32059800  1
  C  C25  1  0.94846900  0.59022600  0.67940200  1
  C  C26  1  0.94846900  0.40977400  0.17940200  1
  C  C27  1  0.55153100  0.09022600  0.82059800  1
  C  C28  1  0.05153100  0.40977400  0.32059800  1
  C  C29  1  0.44846900  0.09022600  0.67940200  1
  C  C30  1  0.44846900  0.90977400  0.17940200  1
  C  C31  1  0.05153100  0.59022600  0.82059800  1
  Cl  Cl32  1  0.59093450  0.18586550  0.21579300  1
  Cl  Cl33  1  0.84745950  0.64118550  0.81952400  1
  Cl  Cl34  1  0.84745950  0.35881450  0.31952400  1
  Cl  Cl35  1  0.65254050  0.85881450  0.18047600  1
  Cl  Cl36  1  0.66030900  0.40005100  0.82520300  1
  Cl  Cl37  1  0.83969100  0.90005100  0.67479700  1
  Cl  Cl38  1  0.65254050  0.14118550  0.68047600  1
  Cl  Cl39  1  0.66030900  0.59994900  0.32520300  1
  Cl  Cl40  1  0.99289550  0.90728650  0.89086000  1
  Cl  Cl41  1  0.50710450  0.40728650  0.60914000  1
  Cl  Cl42  1  0.50710450  0.59271350  0.10914000  1
  Cl  Cl43  1  0.99289550  0.09271350  0.39086000  1
  Cl  Cl44  1  0.59838600  0.79922800  0.93032000  1
  Cl  Cl45  1  0.90161400  0.29922800  0.56968000  1
  Cl  Cl46  1  0.90161400  0.70077200  0.06968000  1
  Cl  Cl47  1  0.59838600  0.20077200  0.43032000  1
  Cl  Cl48  1  0.74517050  0.01191450  0.89032800  1
  Cl  Cl49  1  0.75482950  0.51191450  0.60967200  1
  Cl  Cl50  1  0.75482950  0.48808550  0.10967200  1
  Cl  Cl51  1  0.74517050  0.98808550  0.39032800  1
  Cl  Cl52  1  0.62809950  0.13625250  0.00159600  1
  Cl  Cl53  1  0.87190050  0.63625250  0.49840400  1
  Cl  Cl54  1  0.87190050  0.36374750  0.99840400  1
  Cl  Cl55  1  0.62809950  0.86374750  0.50159600  1
  Cl  Cl56  1  0.90906550  0.68586550  0.28420700  1
  Cl  Cl57  1  0.90906550  0.31413450  0.78420700  1
  Cl  Cl58  1  0.59093450  0.81413450  0.71579300  1
  Cl  Cl59  1  0.83969100  0.09994900  0.17479700  1
  Cl  Cl60  1  0.09093450  0.68586550  0.21579300  1
  Cl  Cl61  1  0.34745950  0.14118550  0.81952400  1
  Cl  Cl62  1  0.34745950  0.85881450  0.31952400  1
  Cl  Cl63  1  0.15254050  0.35881450  0.18047600  1
  Cl  Cl64  1  0.16030900  0.90005100  0.82520300  1
  Cl  Cl65  1  0.33969100  0.40005100  0.67479700  1
  Cl  Cl66  1  0.15254050  0.64118550  0.68047600  1
  Cl  Cl67  1  0.16030900  0.09994900  0.32520300  1
  Cl  Cl68  1  0.49289550  0.40728650  0.89086000  1
  Cl  Cl69  1  0.00710450  0.90728650  0.60914000  1
  Cl  Cl70  1  0.00710450  0.09271350  0.10914000  1
  Cl  Cl71  1  0.49289550  0.59271350  0.39086000  1
  Cl  Cl72  1  0.09838600  0.29922800  0.93032000  1
  Cl  Cl73  1  0.40161400  0.79922800  0.56968000  1
  Cl  Cl74  1  0.40161400  0.20077200  0.06968000  1
  Cl  Cl75  1  0.09838600  0.70077200  0.43032000  1
  Cl  Cl76  1  0.24517050  0.51191450  0.89032800  1
  Cl  Cl77  1  0.25482950  0.01191450  0.60967200  1
  Cl  Cl78  1  0.25482950  0.98808550  0.10967200  1
  Cl  Cl79  1  0.24517050  0.48808550  0.39032800  1
  Cl  Cl80  1  0.12809950  0.63625250  0.00159600  1
  Cl  Cl81  1  0.37190050  0.13625250  0.49840400  1
  Cl  Cl82  1  0.37190050  0.86374750  0.99840400  1
  Cl  Cl83  1  0.12809950  0.36374750  0.50159600  1
  Cl  Cl84  1  0.40906550  0.18586550  0.28420700  1
  Cl  Cl85  1  0.40906550  0.81413450  0.78420700  1
  Cl  Cl86  1  0.09093450  0.31413450  0.71579300  1
  Cl  Cl87  1  0.33969100  0.59994900  0.17479700  1
