# generated using pymatgen
data_TaHO3
_symmetry_space_group_name_H-M   'P 1'
_cell_length_a   7.75523400
_cell_length_b   7.75523400
_cell_length_c   10.23589600
_cell_angle_alpha   90.00000000
_cell_angle_beta   90.00000000
_cell_angle_gamma   90.00000000
_symmetry_Int_Tables_number   1
_chemical_formula_structural   TaHO3
_chemical_formula_sum   'Ta8 H8 O24'
_cell_volume   615.62419144
_cell_formula_units_Z   8
loop_
 _symmetry_equiv_pos_site_id
 _symmetry_equiv_pos_as_xyz
  1  'x, y, z'
loop_
 _atom_site_type_symbol
 _atom_site_label
 _atom_site_symmetry_multiplicity
 _atom_site_fract_x
 _atom_site_fract_y
 _atom_site_fract_z
 _atom_site_occupancy
  Ta  Ta0  1  0.75000000  0.50000000  0.37500000  1
  Ta  Ta1  1  0.00000000  0.25000000  0.12500000  1
  Ta  Ta2  1  0.25000000  0.50000000  0.37500000  1
  Ta  Ta3  1  0.00000000  0.75000000  0.12500000  1
  Ta  Ta4  1  0.25000000  0.00000000  0.87500000  1
  Ta  Ta5  1  0.50000000  0.75000000  0.62500000  1
  Ta  Ta6  1  0.75000000  0.00000000  0.87500000  1
  Ta  Ta7  1  0.50000000  0.25000000  0.62500000  1
  H  H8  1  0.00000000  0.00000000  0.69887800  1
  H  H9  1  0.00000000  0.00000000  0.30112200  1
  H  H10  1  0.50000000  0.00000000  0.44887800  1
  H  H11  1  0.50000000  0.00000000  0.05112200  1
  H  H12  1  0.50000000  0.50000000  0.19887800  1
  H  H13  1  0.50000000  0.50000000  0.80112200  1
  H  H14  1  0.00000000  0.50000000  0.94887800  1
  H  H15  1  0.00000000  0.50000000  0.55112200  1
  O  O16  1  0.00000000  0.00000000  0.79393600  1
  O  O17  1  0.67526000  0.32474000  0.50000000  1
  O  O18  1  0.32474000  0.32474000  0.50000000  1
  O  O19  1  0.17526000  0.17526000  0.00000000  1
  O  O20  1  0.00000000  0.50000000  0.04393600  1
  O  O21  1  0.17526000  0.32474000  0.25000000  1
  O  O22  1  0.32474000  0.67526000  0.50000000  1
  O  O23  1  0.00000000  0.00000000  0.20606400  1
  O  O24  1  0.82474000  0.32474000  0.25000000  1
  O  O25  1  0.17526000  0.67526000  0.25000000  1
  O  O26  1  0.82474000  0.67526000  0.25000000  1
  O  O27  1  0.00000000  0.50000000  0.45606400  1
  O  O28  1  0.50000000  0.50000000  0.29393600  1
  O  O29  1  0.17526000  0.82474000  0.00000000  1
  O  O30  1  0.82474000  0.82474000  0.00000000  1
  O  O31  1  0.67526000  0.67526000  0.50000000  1
  O  O32  1  0.50000000  0.00000000  0.54393600  1
  O  O33  1  0.67526000  0.82474000  0.75000000  1
  O  O34  1  0.82474000  0.17526000  0.00000000  1
  O  O35  1  0.50000000  0.50000000  0.70606400  1
  O  O36  1  0.32474000  0.82474000  0.75000000  1
  O  O37  1  0.67526000  0.17526000  0.75000000  1
  O  O38  1  0.32474000  0.17526000  0.75000000  1
  O  O39  1  0.50000000  0.00000000  0.95606400  1
