# generated using pymatgen
data_Sr2SnS4
_symmetry_space_group_name_H-M   'P 1'
_cell_length_a   7.32276800
_cell_length_b   10.52287600
_cell_length_c   10.11599900
_cell_angle_alpha   90.00000000
_cell_angle_beta   90.00000000
_cell_angle_gamma   90.00000000
_symmetry_Int_Tables_number   1
_chemical_formula_structural   Sr2SnS4
_chemical_formula_sum   'Sr8 Sn4 S16'
_cell_volume   779.50428259
_cell_formula_units_Z   4
loop_
 _symmetry_equiv_pos_site_id
 _symmetry_equiv_pos_as_xyz
  1  'x, y, z'
loop_
 _atom_site_type_symbol
 _atom_site_label
 _atom_site_symmetry_multiplicity
 _atom_site_fract_x
 _atom_site_fract_y
 _atom_site_fract_z
 _atom_site_occupancy
  Sr  Sr0  1  0.79101400  0.00000000  0.50000000  1
  Sr  Sr1  1  0.79101400  0.00000000  0.00000000  1
  Sr  Sr2  1  0.33284750  0.81109450  0.75000000  1
  Sr  Sr3  1  0.33284750  0.18890550  0.25000000  1
  Sr  Sr4  1  0.29101400  0.50000000  0.50000000  1
  Sr  Sr5  1  0.29101400  0.50000000  0.00000000  1
  Sr  Sr6  1  0.83284750  0.31109450  0.75000000  1
  Sr  Sr7  1  0.83284750  0.68890550  0.25000000  1
  Sn  Sn8  1  0.32034150  0.22330250  0.75000000  1
  Sn  Sn9  1  0.32034150  0.77669750  0.25000000  1
  Sn  Sn10  1  0.82034150  0.72330250  0.75000000  1
  Sn  Sn11  1  0.82034150  0.27669750  0.25000000  1
  S  S12  1  0.62627250  0.72865350  0.55653400  1
  S  S13  1  0.62627250  0.27134650  0.44346600  1
  S  S14  1  0.62627250  0.72865350  0.94346600  1
  S  S15  1  0.62627250  0.27134650  0.05653400  1
  S  S16  1  0.55577850  0.06221950  0.75000000  1
  S  S17  1  0.55577850  0.93778050  0.25000000  1
  S  S18  1  0.47684350  0.57128050  0.25000000  1
  S  S19  1  0.47684350  0.42871950  0.75000000  1
  S  S20  1  0.12627250  0.22865350  0.55653400  1
  S  S21  1  0.12627250  0.77134650  0.44346600  1
  S  S22  1  0.12627250  0.22865350  0.94346600  1
  S  S23  1  0.12627250  0.77134650  0.05653400  1
  S  S24  1  0.05577850  0.56221950  0.75000000  1
  S  S25  1  0.05577850  0.43778050  0.25000000  1
  S  S26  1  0.97684350  0.07128050  0.25000000  1
  S  S27  1  0.97684350  0.92871950  0.75000000  1
