# generated using pymatgen
data_Tl9BiTe6
_symmetry_space_group_name_H-M   'P 1'
_cell_length_a   8.98325400
_cell_length_b   8.98325400
_cell_length_c   13.49393400
_cell_angle_alpha   90.00000000
_cell_angle_beta   90.00000000
_cell_angle_gamma   90.00000000
_symmetry_Int_Tables_number   1
_chemical_formula_structural   Tl9BiTe6
_chemical_formula_sum   'Tl18 Bi2 Te12'
_cell_volume   1088.94498855
_cell_formula_units_Z   2
loop_
 _symmetry_equiv_pos_site_id
 _symmetry_equiv_pos_as_xyz
  1  'x, y, z'
loop_
 _atom_site_type_symbol
 _atom_site_label
 _atom_site_symmetry_multiplicity
 _atom_site_fract_x
 _atom_site_fract_y
 _atom_site_fract_z
 _atom_site_occupancy
  Tl  Tl0  1  0.14672800  0.64664600  0.34204000  1
  Tl  Tl1  1  0.85335400  0.64672800  0.15796000  1
  Tl  Tl2  1  0.00000000  0.00000000  0.00000000  1
  Tl  Tl3  1  0.85327200  0.35335400  0.34204000  1
  Tl  Tl4  1  0.14664600  0.35327200  0.15796000  1
  Tl  Tl5  1  0.35335400  0.14672800  0.34204000  1
  Tl  Tl6  1  0.64672800  0.14664600  0.15796000  1
  Tl  Tl7  1  0.64664600  0.85327200  0.34204000  1
  Tl  Tl8  1  0.35327200  0.85335400  0.15796000  1
  Tl  Tl9  1  0.64672800  0.14664600  0.84204000  1
  Tl  Tl10  1  0.35335400  0.14672800  0.65796000  1
  Tl  Tl11  1  0.50000000  0.50000000  0.50000000  1
  Tl  Tl12  1  0.35327200  0.85335400  0.84204000  1
  Tl  Tl13  1  0.64664600  0.85327200  0.65796000  1
  Tl  Tl14  1  0.85335400  0.64672800  0.84204000  1
  Tl  Tl15  1  0.14672800  0.64664600  0.65796000  1
  Tl  Tl16  1  0.14664600  0.35327200  0.84204000  1
  Tl  Tl17  1  0.85327200  0.35335400  0.65796000  1
  Bi  Bi18  1  0.50000000  0.50000000  0.00000000  1
  Bi  Bi19  1  0.00000000  0.00000000  0.50000000  1
  Te  Te20  1  0.50000000  0.50000000  0.23887900  1
  Te  Te21  1  0.65197100  0.82635300  0.00000000  1
  Te  Te22  1  0.17364700  0.65197100  0.00000000  1
  Te  Te23  1  0.00000000  0.00000000  0.26112100  1
  Te  Te24  1  0.82635300  0.34802900  0.00000000  1
  Te  Te25  1  0.34802900  0.17364700  0.00000000  1
  Te  Te26  1  0.00000000  0.00000000  0.73887900  1
  Te  Te27  1  0.15197100  0.32635300  0.50000000  1
  Te  Te28  1  0.67364700  0.15197100  0.50000000  1
  Te  Te29  1  0.50000000  0.50000000  0.76112100  1
  Te  Te30  1  0.32635300  0.84802900  0.50000000  1
  Te  Te31  1  0.84802900  0.67364700  0.50000000  1
