# generated using pymatgen
data_Li3Cr(PO4)2
_symmetry_space_group_name_H-M   'P 1'
_cell_length_a   8.19655000
_cell_length_b   10.15117400
_cell_length_c   8.50648094
_cell_angle_alpha   90.00000000
_cell_angle_beta   108.70941305
_cell_angle_gamma   90.00000000
_symmetry_Int_Tables_number   1
_chemical_formula_structural   Li3Cr(PO4)2
_chemical_formula_sum   'Li12 Cr4 P8 O32'
_cell_volume   670.37767400
_cell_formula_units_Z   4
loop_
 _symmetry_equiv_pos_site_id
 _symmetry_equiv_pos_as_xyz
  1  'x, y, z'
loop_
 _atom_site_type_symbol
 _atom_site_label
 _atom_site_symmetry_multiplicity
 _atom_site_fract_x
 _atom_site_fract_y
 _atom_site_fract_z
 _atom_site_occupancy
  Li  Li0  1  0.38529800  0.66374100  0.65070500  1
  Li  Li1  1  0.17837900  0.65677600  0.90291600  1
  Li  Li2  1  0.36205600  0.35075200  0.07174900  1
  Li  Li3  1  0.61470200  0.16374100  0.34929500  1
  Li  Li4  1  0.82162100  0.15677600  0.09708400  1
  Li  Li5  1  0.39691700  0.84427800  0.15841100  1
  Li  Li6  1  0.63794400  0.85075200  0.92825100  1
  Li  Li7  1  0.34649400  0.15690800  0.58657300  1
  Li  Li8  1  0.65350600  0.65690800  0.41342700  1
  Li  Li9  1  0.54167600  0.41947700  0.51728600  1
  Li  Li10  1  0.45832400  0.91947700  0.48271400  1
  Li  Li11  1  0.60308300  0.34427800  0.84158900  1
  Cr  Cr12  1  0.88080000  0.86940900  0.64205900  1
  Cr  Cr13  1  0.87407300  0.64670800  0.12054900  1
  Cr  Cr14  1  0.12592700  0.14670800  0.87945100  1
  Cr  Cr15  1  0.11920000  0.36940900  0.35794100  1
  P  P16  1  0.78836200  0.59563800  0.79574300  1
  P  P17  1  0.71208500  0.41056600  0.22117000  1
  P  P18  1  0.28791500  0.91056600  0.77883000  1
  P  P19  1  0.78691900  0.90935000  0.30689500  1
  P  P20  1  0.71975300  0.08328800  0.72425200  1
  P  P21  1  0.21308100  0.40935000  0.69310500  1
  P  P22  1  0.21163800  0.09563800  0.20425700  1
  P  P23  1  0.28024700  0.58328800  0.27574800  1
  O  O24  1  0.95886700  0.89420600  0.45156800  1
  O  O25  1  0.80738900  0.68286100  0.65228600  1
  O  O26  1  0.20236500  0.32340400  0.84153800  1
  O  O27  1  0.30648000  0.66709600  0.13889700  1
  O  O28  1  0.65080100  0.35360500  0.35826400  1
  O  O29  1  0.57486000  0.10582100  0.55706500  1
  O  O30  1  0.03368600  0.08920100  0.05916900  1
  O  O31  1  0.88321800  0.34409700  0.21003100  1
  O  O32  1  0.41945000  0.88898200  0.95061000  1
  O  O33  1  0.58055000  0.38898200  0.04939000  1
  O  O34  1  0.25075300  0.06253000  0.74360800  1
  O  O35  1  0.11678200  0.84409700  0.78996900  1
  O  O36  1  0.19261100  0.18286100  0.34771400  1
  O  O37  1  0.74924700  0.56253000  0.25639200  1
  O  O38  1  0.04113300  0.39420600  0.54843200  1
  O  O39  1  0.72306200  0.93066500  0.76380800  1
  O  O40  1  0.32257900  0.16339600  0.10696500  1
  O  O41  1  0.90222300  0.09837000  0.69904000  1
  O  O42  1  0.74201600  0.05001700  0.24627100  1
  O  O43  1  0.42514000  0.60582100  0.44293500  1
  O  O44  1  0.35215700  0.35246300  0.61840700  1
  O  O45  1  0.79763500  0.82340400  0.15846200  1
  O  O46  1  0.64784300  0.85246300  0.38159300  1
  O  O47  1  0.28424200  0.96256500  0.27192000  1
  O  O48  1  0.27693800  0.43066500  0.23619200  1
  O  O49  1  0.67742100  0.66339600  0.89303500  1
  O  O50  1  0.96631400  0.58920100  0.94083100  1
  O  O51  1  0.25798400  0.55001700  0.75372900  1
  O  O52  1  0.69352000  0.16709600  0.86110300  1
  O  O53  1  0.71575800  0.46256500  0.72808000  1
  O  O54  1  0.09777700  0.59837000  0.30096000  1
  O  O55  1  0.34919900  0.85360500  0.64173600  1
