# generated using pymatgen
data_CaTiFe(PO4)3
_symmetry_space_group_name_H-M   'P 1'
_cell_length_a   8.66380749
_cell_length_b   8.66380749
_cell_length_c   21.94089749
_cell_angle_alpha   90.00000000
_cell_angle_beta   90.00000000
_cell_angle_gamma   120.00000000
_symmetry_Int_Tables_number   1
_chemical_formula_structural   CaTiFe(PO4)3
_chemical_formula_sum   'Ca6 Ti6 Fe6 P18 O72'
_cell_volume   1426.27282540
_cell_formula_units_Z   6
loop_
 _symmetry_equiv_pos_site_id
 _symmetry_equiv_pos_as_xyz
  1  'x, y, z'
loop_
 _atom_site_type_symbol
 _atom_site_label
 _atom_site_symmetry_multiplicity
 _atom_site_fract_x
 _atom_site_fract_y
 _atom_site_fract_z
 _atom_site_occupancy
  Ca  Ca0  1  0.66666667  0.33333333  0.33111433  1
  Ca  Ca1  1  0.33333333  0.66666667  0.16444767  1
  Ca  Ca2  1  0.33333333  0.66666667  0.66444767  1
  Ca  Ca3  1  0.00000000  0.00000000  0.49778100  1
  Ca  Ca4  1  0.00000000  0.00000000  0.99778100  1
  Ca  Ca5  1  0.66666667  0.33333333  0.83111433  1
  Ti  Ti6  1  0.00000000  0.00000000  0.14748900  1
  Ti  Ti7  1  0.33333333  0.66666667  0.31415567  1
  Ti  Ti8  1  0.66666667  0.33333333  0.48082233  1
  Ti  Ti9  1  0.00000000  0.00000000  0.64748900  1
  Ti  Ti10  1  0.33333333  0.66666667  0.81415567  1
  Ti  Ti11  1  0.66666667  0.33333333  0.98082233  1
  Fe  Fe12  1  0.33333333  0.66666667  0.01889467  1
  Fe  Fe13  1  0.66666667  0.33333333  0.18556133  1
  Fe  Fe14  1  0.00000000  0.00000000  0.35222800  1
  Fe  Fe15  1  0.33333333  0.66666667  0.51889467  1
  Fe  Fe16  1  0.66666667  0.33333333  0.68556133  1
  Fe  Fe17  1  0.00000000  0.00000000  0.85222800  1
  P  P18  1  0.37570633  0.33319067  0.08405667  1
  P  P19  1  0.66680933  0.04251567  0.08405667  1
  P  P20  1  0.95748433  0.62429367  0.08405667  1
  P  P21  1  0.70903967  0.70918233  0.25072333  1
  P  P22  1  0.00014267  0.29096033  0.25072333  1
  P  P23  1  0.29081767  0.99985733  0.25072333  1
  P  P24  1  0.04237300  0.66652400  0.41739000  1
  P  P25  1  0.33347600  0.37584900  0.41739000  1
  P  P26  1  0.62415100  0.95762700  0.41739000  1
  P  P27  1  0.37570633  0.04251567  0.58405667  1
  P  P28  1  0.66680933  0.62429367  0.58405667  1
  P  P29  1  0.95748433  0.33319067  0.58405667  1
  P  P30  1  0.70903967  0.99985733  0.75072333  1
  P  P31  1  0.00014267  0.70918233  0.75072333  1
  P  P32  1  0.29081767  0.29096033  0.75072333  1
  P  P33  1  0.04237300  0.37584900  0.91739000  1
  P  P34  1  0.33347600  0.95762700  0.91739000  1
  P  P35  1  0.62415100  0.66652400  0.91739000  1
  O  O36  1  0.19887567  0.01142133  0.30821133  1
  O  O37  1  0.81254567  0.80112433  0.30821133  1
  O  O38  1  0.18790133  0.16232367  0.08389567  1
  O  O39  1  0.98857867  0.18745433  0.30821133  1
  O  O40  1  0.47921233  0.34475467  0.14154467  1
  O  O41  1  0.35470733  0.49922967  0.08222767  1
  O  O42  1  0.83767633  0.02557767  0.08389567  1
  O  O43  1  0.50077033  0.85547767  0.08222767  1
  O  O44  1  0.80618800  0.82017400  0.19244300  1
  O  O45  1  0.14452233  0.64529267  0.08222767  1
  O  O46  1  0.68804067  0.52214433  0.24889433  1
  O  O47  1  0.01398600  0.19381200  0.19244300  1
  O  O48  1  0.65524533  0.13445767  0.14154467  1
  O  O49  1  0.97442233  0.81209867  0.08389567  1
  O  O50  1  0.52123467  0.69224433  0.25056233  1
  O  O51  1  0.86554233  0.52078767  0.14154467  1
  O  O52  1  0.17100967  0.47876533  0.25056233  1
  O  O53  1  0.83410367  0.31195933  0.24889433  1
  O  O54  1  0.30775567  0.82899033  0.25056233  1
  O  O55  1  0.17982600  0.98601400  0.19244300  1
  O  O56  1  0.68065267  0.15350733  0.02577633  1
  O  O57  1  0.47785567  0.16589633  0.24889433  1
  O  O58  1  0.84649267  0.52714533  0.02577633  1
  O  O59  1  0.47285467  0.31934733  0.02577633  1
  O  O60  1  0.86554233  0.34475467  0.64154467  1
  O  O61  1  0.47921233  0.13445767  0.64154467  1
  O  O62  1  0.85456800  0.49565700  0.41722900  1
  O  O63  1  0.65524533  0.52078767  0.64154467  1
  O  O64  1  0.14587900  0.67808800  0.47487800  1
  O  O65  1  0.02137400  0.83256300  0.41556100  1
  O  O66  1  0.50434300  0.35891100  0.41722900  1
  O  O67  1  0.16743700  0.18881100  0.41556100  1
  O  O68  1  0.47285467  0.15350733  0.52577633  1
  O  O69  1  0.81118900  0.97862600  0.41556100  1
  O  O70  1  0.35470733  0.85547767  0.58222767  1
  O  O71  1  0.68065267  0.52714533  0.52577633  1
  O  O72  1  0.32191200  0.46779100  0.47487800  1
  O  O73  1  0.64108900  0.14543200  0.41722900  1
  O  O74  1  0.18790133  0.02557767  0.58389567  1
  O  O75  1  0.53220900  0.85412100  0.47487800  1
  O  O76  1  0.83767633  0.81209867  0.58389567  1
  O  O77  1  0.50077033  0.64529267  0.58222767  1
  O  O78  1  0.97442233  0.16232367  0.58389567  1
  O  O79  1  0.84649267  0.31934733  0.52577633  1
  O  O80  1  0.34731933  0.48684067  0.35910967  1
  O  O81  1  0.14452233  0.49922967  0.58222767  1
  O  O82  1  0.51315933  0.86047867  0.35910967  1
  O  O83  1  0.13952133  0.65268067  0.35910967  1
  O  O84  1  0.53220900  0.67808800  0.97487800  1
  O  O85  1  0.14587900  0.46779100  0.97487800  1
  O  O86  1  0.52123467  0.82899033  0.75056233  1
  O  O87  1  0.32191200  0.85412100  0.97487800  1
  O  O88  1  0.81254567  0.01142133  0.80821133  1
  O  O89  1  0.68804067  0.16589633  0.74889433  1
  O  O90  1  0.17100967  0.69224433  0.75056233  1
  O  O91  1  0.83410367  0.52214433  0.74889433  1
  O  O92  1  0.13952133  0.48684067  0.85910967  1
  O  O93  1  0.47785567  0.31195933  0.74889433  1
  O  O94  1  0.02137400  0.18881100  0.91556100  1
  O  O95  1  0.34731933  0.86047867  0.85910967  1
  O  O96  1  0.98857867  0.80112433  0.80821133  1
  O  O97  1  0.30775567  0.47876533  0.75056233  1
  O  O98  1  0.85456800  0.35891100  0.91722900  1
  O  O99  1  0.19887567  0.18745433  0.80821133  1
  O  O100  1  0.50434300  0.14543200  0.91722900  1
  O  O101  1  0.16743700  0.97862600  0.91556100  1
  O  O102  1  0.64108900  0.49565700  0.91722900  1
  O  O103  1  0.51315933  0.65268067  0.85910967  1
  O  O104  1  0.01398600  0.82017400  0.69244300  1
  O  O105  1  0.81118900  0.83256300  0.91556100  1
  O  O106  1  0.17982600  0.19381200  0.69244300  1
  O  O107  1  0.80618800  0.98601400  0.69244300  1
