# generated using pymatgen
data_SrAl2O4
_symmetry_space_group_name_H-M   'P 1'
_cell_length_a   5.21388600
_cell_length_b   8.91760600
_cell_length_c   8.54738121
_cell_angle_alpha   90.00000000
_cell_angle_beta   93.51529787
_cell_angle_gamma   90.00000000
_symmetry_Int_Tables_number   1
_chemical_formula_structural   SrAl2O4
_chemical_formula_sum   'Sr4 Al8 O16'
_cell_volume   396.66599809
_cell_formula_units_Z   4
loop_
 _symmetry_equiv_pos_site_id
 _symmetry_equiv_pos_as_xyz
  1  'x, y, z'
loop_
 _atom_site_type_symbol
 _atom_site_label
 _atom_site_symmetry_multiplicity
 _atom_site_fract_x
 _atom_site_fract_y
 _atom_site_fract_z
 _atom_site_occupancy
  Sr  Sr0  1  0.79853300  0.50942100  0.97277800  1
  Sr  Sr1  1  0.20146700  0.00942100  0.02722200  1
  Sr  Sr2  1  0.74619900  0.50272000  0.51438300  1
  Sr  Sr3  1  0.25380100  0.00272000  0.48561700  1
  Al  Al4  1  0.20428300  0.33168000  0.31877900  1
  Al  Al5  1  0.79571700  0.83168000  0.68122100  1
  Al  Al6  1  0.77977400  0.83174100  0.29266900  1
  Al  Al7  1  0.22022600  0.33174100  0.70733100  1
  Al  Al8  1  0.27423800  0.66242600  0.20045000  1
  Al  Al9  1  0.72576200  0.16242600  0.79955000  1
  Al  Al10  1  0.28479700  0.66929500  0.81087600  1
  Al  Al11  1  0.71520300  0.16929500  0.18912400  1
  O  O12  1  0.35634300  0.61589100  0.00862500  1
  O  O13  1  0.64365700  0.11589100  0.99137500  1
  O  O14  1  0.11861400  0.28564600  0.51121100  1
  O  O15  1  0.88138600  0.78564600  0.48878900  1
  O  O16  1  0.09011500  0.83275500  0.79828800  1
  O  O17  1  0.90988500  0.33275500  0.20171200  1
  O  O18  1  0.06061600  0.20292400  0.82424500  1
  O  O19  1  0.93938400  0.70292400  0.17575500  1
  O  O20  1  0.09938500  0.51533800  0.73558600  1
  O  O21  1  0.90061500  0.01533800  0.26441400  1
  O  O22  1  0.64839600  0.00987900  0.67381500  1
  O  O23  1  0.35160400  0.50987900  0.32618500  1
  O  O24  1  0.43906300  0.82917700  0.26425200  1
  O  O25  1  0.56093700  0.32917700  0.73574800  1
  O  O26  1  0.58581600  0.68530600  0.72960000  1
  O  O27  1  0.41418400  0.18530600  0.27040000  1
