# generated using pymatgen
data_Cd(GaO2)2
_symmetry_space_group_name_H-M   'P 1'
_cell_length_a   8.74874200
_cell_length_b   8.74874200
_cell_length_c   8.74874200
_cell_angle_alpha   90.00000000
_cell_angle_beta   90.00000000
_cell_angle_gamma   90.00000000
_symmetry_Int_Tables_number   1
_chemical_formula_structural   Cd(GaO2)2
_chemical_formula_sum   'Cd8 Ga16 O32'
_cell_volume   669.63296967
_cell_formula_units_Z   8
loop_
 _symmetry_equiv_pos_site_id
 _symmetry_equiv_pos_as_xyz
  1  'x, y, z'
loop_
 _atom_site_type_symbol
 _atom_site_label
 _atom_site_symmetry_multiplicity
 _atom_site_fract_x
 _atom_site_fract_y
 _atom_site_fract_z
 _atom_site_occupancy
  Cd  Cd0  1  0.25000000  0.25000000  0.25000000  1
  Cd  Cd1  1  0.50000000  0.00000000  0.50000000  1
  Cd  Cd2  1  0.25000000  0.75000000  0.75000000  1
  Cd  Cd3  1  0.50000000  0.50000000  0.00000000  1
  Cd  Cd4  1  0.75000000  0.25000000  0.75000000  1
  Cd  Cd5  1  0.00000000  0.00000000  0.00000000  1
  Cd  Cd6  1  0.75000000  0.75000000  0.25000000  1
  Cd  Cd7  1  0.00000000  0.50000000  0.50000000  1
  Ga  Ga8  1  0.12500000  0.62500000  0.12500000  1
  Ga  Ga9  1  0.12500000  0.87500000  0.37500000  1
  Ga  Ga10  1  0.37500000  0.87500000  0.12500000  1
  Ga  Ga11  1  0.37500000  0.62500000  0.37500000  1
  Ga  Ga12  1  0.12500000  0.12500000  0.62500000  1
  Ga  Ga13  1  0.12500000  0.37500000  0.87500000  1
  Ga  Ga14  1  0.37500000  0.37500000  0.62500000  1
  Ga  Ga15  1  0.37500000  0.12500000  0.87500000  1
  Ga  Ga16  1  0.62500000  0.62500000  0.62500000  1
  Ga  Ga17  1  0.62500000  0.87500000  0.87500000  1
  Ga  Ga18  1  0.87500000  0.87500000  0.62500000  1
  Ga  Ga19  1  0.87500000  0.62500000  0.87500000  1
  Ga  Ga20  1  0.62500000  0.12500000  0.12500000  1
  Ga  Ga21  1  0.62500000  0.37500000  0.37500000  1
  Ga  Ga22  1  0.87500000  0.37500000  0.12500000  1
  Ga  Ga23  1  0.87500000  0.12500000  0.37500000  1
  O  O24  1  0.10689233  0.39310767  0.10689233  1
  O  O25  1  0.64310767  0.14310767  0.35689233  1
  O  O26  1  0.35689233  0.85689233  0.35689233  1
  O  O27  1  0.85689233  0.14310767  0.14310767  1
  O  O28  1  0.39310767  0.39310767  0.39310767  1
  O  O29  1  0.39310767  0.10689233  0.10689233  1
  O  O30  1  0.14310767  0.85689233  0.14310767  1
  O  O31  1  0.10689233  0.10689233  0.39310767  1
  O  O32  1  0.10689233  0.89310767  0.60689233  1
  O  O33  1  0.64310767  0.64310767  0.85689233  1
  O  O34  1  0.35689233  0.35689233  0.85689233  1
  O  O35  1  0.85689233  0.64310767  0.64310767  1
  O  O36  1  0.39310767  0.89310767  0.89310767  1
  O  O37  1  0.39310767  0.60689233  0.60689233  1
  O  O38  1  0.14310767  0.35689233  0.64310767  1
  O  O39  1  0.10689233  0.60689233  0.89310767  1
  O  O40  1  0.60689233  0.39310767  0.60689233  1
  O  O41  1  0.14310767  0.14310767  0.85689233  1
  O  O42  1  0.85689233  0.85689233  0.85689233  1
  O  O43  1  0.35689233  0.14310767  0.64310767  1
  O  O44  1  0.89310767  0.39310767  0.89310767  1
  O  O45  1  0.89310767  0.10689233  0.60689233  1
  O  O46  1  0.64310767  0.85689233  0.64310767  1
  O  O47  1  0.60689233  0.10689233  0.89310767  1
  O  O48  1  0.60689233  0.89310767  0.10689233  1
  O  O49  1  0.14310767  0.64310767  0.35689233  1
  O  O50  1  0.85689233  0.35689233  0.35689233  1
  O  O51  1  0.35689233  0.64310767  0.14310767  1
  O  O52  1  0.89310767  0.89310767  0.39310767  1
  O  O53  1  0.89310767  0.60689233  0.10689233  1
  O  O54  1  0.64310767  0.35689233  0.14310767  1
  O  O55  1  0.60689233  0.60689233  0.39310767  1
