# generated using pymatgen
data_Ca(PrS2)2
_symmetry_space_group_name_H-M   'P 1'
_cell_length_a   8.61289000
_cell_length_b   8.61289000
_cell_length_c   8.66529600
_cell_angle_alpha   90.00000000
_cell_angle_beta   90.00000000
_cell_angle_gamma   90.00000000
_symmetry_Int_Tables_number   1
_chemical_formula_structural   Ca(PrS2)2
_chemical_formula_sum   'Ca4 Pr8 S16'
_cell_volume   642.80789736
_cell_formula_units_Z   4
loop_
 _symmetry_equiv_pos_site_id
 _symmetry_equiv_pos_as_xyz
  1  'x, y, z'
loop_
 _atom_site_type_symbol
 _atom_site_label
 _atom_site_symmetry_multiplicity
 _atom_site_fract_x
 _atom_site_fract_y
 _atom_site_fract_z
 _atom_site_occupancy
  Ca  Ca0  1  0.00000000  0.00000000  0.00000000  1
  Ca  Ca1  1  0.00000000  0.50000000  0.25000000  1
  Ca  Ca2  1  0.50000000  0.50000000  0.50000000  1
  Ca  Ca3  1  0.50000000  0.00000000  0.75000000  1
  Pr  Pr4  1  0.62930500  0.25000000  0.12500000  1
  Pr  Pr5  1  0.25000000  0.37069500  0.87500000  1
  Pr  Pr6  1  0.87069500  0.25000000  0.62500000  1
  Pr  Pr7  1  0.25000000  0.12930500  0.37500000  1
  Pr  Pr8  1  0.12930500  0.75000000  0.62500000  1
  Pr  Pr9  1  0.75000000  0.87069500  0.37500000  1
  Pr  Pr10  1  0.37069500  0.75000000  0.12500000  1
  Pr  Pr11  1  0.75000000  0.62930500  0.87500000  1
  S  S12  1  0.92640000  0.17844100  0.30355700  1
  S  S13  1  0.07360000  0.67844100  0.94644300  1
  S  S14  1  0.17844100  0.07360000  0.69644300  1
  S  S15  1  0.32155900  0.07360000  0.05355700  1
  S  S16  1  0.42640000  0.82155900  0.44644300  1
  S  S17  1  0.32155900  0.42640000  0.19644300  1
  S  S18  1  0.57360000  0.32155900  0.80355700  1
  S  S19  1  0.17844100  0.42640000  0.55355700  1
  S  S20  1  0.42640000  0.67844100  0.80355700  1
  S  S21  1  0.57360000  0.17844100  0.44644300  1
  S  S22  1  0.67844100  0.57360000  0.19644300  1
  S  S23  1  0.82155900  0.57360000  0.55355700  1
  S  S24  1  0.92640000  0.32155900  0.94644300  1
  S  S25  1  0.82155900  0.92640000  0.69644300  1
  S  S26  1  0.07360000  0.82155900  0.30355700  1
  S  S27  1  0.67844100  0.92640000  0.05355700  1
