# generated using pymatgen
data_Sr2H5Rh
_symmetry_space_group_name_H-M   'P 1'
_cell_length_a   5.35820200
_cell_length_b   5.35820200
_cell_length_c   7.82723600
_cell_angle_alpha   90.00000000
_cell_angle_beta   90.00000000
_cell_angle_gamma   90.00000000
_symmetry_Int_Tables_number   1
_chemical_formula_structural   Sr2H5Rh
_chemical_formula_sum   'Sr4 H10 Rh2'
_cell_volume   224.72251816
_cell_formula_units_Z   2
loop_
 _symmetry_equiv_pos_site_id
 _symmetry_equiv_pos_as_xyz
  1  'x, y, z'
loop_
 _atom_site_type_symbol
 _atom_site_label
 _atom_site_symmetry_multiplicity
 _atom_site_fract_x
 _atom_site_fract_y
 _atom_site_fract_z
 _atom_site_occupancy
  Sr  Sr0  1  0.00000000  0.50000000  0.24874600  1
  Sr  Sr1  1  0.50000000  0.00000000  0.24874600  1
  Sr  Sr2  1  0.50000000  0.00000000  0.74874600  1
  Sr  Sr3  1  0.00000000  0.50000000  0.74874600  1
  H  H4  1  0.72269700  0.27730300  0.49487100  1
  H  H5  1  0.72269700  0.72269700  0.49487100  1
  H  H6  1  0.27730300  0.27730300  0.49487100  1
  H  H7  1  0.27730300  0.72269700  0.49487100  1
  H  H8  1  0.00000000  0.00000000  0.23795200  1
  H  H9  1  0.22269700  0.77730300  0.99487100  1
  H  H10  1  0.22269700  0.22269700  0.99487100  1
  H  H11  1  0.77730300  0.77730300  0.99487100  1
  H  H12  1  0.77730300  0.22269700  0.99487100  1
  H  H13  1  0.50000000  0.50000000  0.73795200  1
  Rh  Rh14  1  0.00000000  0.00000000  0.00807000  1
  Rh  Rh15  1  0.50000000  0.50000000  0.50807000  1
