# generated using pymatgen
data_Mo3(PO4)4
_symmetry_space_group_name_H-M   'P 1'
_cell_length_a   8.78882100
_cell_length_b   5.15703200
_cell_length_c   15.51266795
_cell_angle_alpha   90.00000000
_cell_angle_beta   118.65124757
_cell_angle_gamma   90.00000000
_symmetry_Int_Tables_number   1
_chemical_formula_structural   Mo3(PO4)4
_chemical_formula_sum   'Mo6 P8 O32'
_cell_volume   617.00832191
_cell_formula_units_Z   2
loop_
 _symmetry_equiv_pos_site_id
 _symmetry_equiv_pos_as_xyz
  1  'x, y, z'
loop_
 _atom_site_type_symbol
 _atom_site_label
 _atom_site_symmetry_multiplicity
 _atom_site_fract_x
 _atom_site_fract_y
 _atom_site_fract_z
 _atom_site_occupancy
  Mo  Mo0  1  0.80331600  0.03019300  0.79835200  1
  Mo  Mo1  1  0.80331600  0.46980700  0.29835200  1
  Mo  Mo2  1  0.19668400  0.53019300  0.70164800  1
  Mo  Mo3  1  0.50000000  0.50000000  0.00000000  1
  Mo  Mo4  1  0.19668400  0.96980700  0.20164800  1
  Mo  Mo5  1  0.50000000  0.00000000  0.50000000  1
  P  P6  1  0.53822200  0.00088800  0.15387000  1
  P  P7  1  0.46177800  0.99911200  0.84613000  1
  P  P8  1  0.07323700  0.99503500  0.38472200  1
  P  P9  1  0.92676300  0.00496500  0.61527800  1
  P  P10  1  0.92676300  0.49503500  0.11527800  1
  P  P11  1  0.07323700  0.50496500  0.88472200  1
  P  P12  1  0.53822200  0.49911200  0.65387000  1
  P  P13  1  0.46177800  0.50088800  0.34613000  1
  O  O14  1  0.04635600  0.21957500  0.61788100  1
  O  O15  1  0.46624400  0.83900300  0.93102200  1
  O  O16  1  0.46624400  0.66099700  0.43102200  1
  O  O17  1  0.04635600  0.28042500  0.11788100  1
  O  O18  1  0.32372500  0.61004900  0.24845700  1
  O  O19  1  0.74584900  0.02358800  0.52302000  1
  O  O20  1  0.99964900  0.76576900  0.10614800  1
  O  O21  1  0.67627500  0.11004900  0.25154300  1
  O  O22  1  0.35604400  0.02707300  0.14590000  1
  O  O23  1  0.74584900  0.47641200  0.02302000  1
  O  O24  1  0.00035100  0.23423100  0.89385200  1
  O  O25  1  0.32372500  0.88995100  0.74845700  1
  O  O26  1  0.58388500  0.78994800  0.64447100  1
  O  O27  1  0.90592400  0.49494300  0.20858600  1
  O  O28  1  0.41611500  0.21005200  0.35552900  1
  O  O29  1  0.25415100  0.52358800  0.97698000  1
  O  O30  1  0.58388500  0.71005200  0.14447100  1
  O  O31  1  0.99964900  0.73423100  0.60614800  1
  O  O32  1  0.00035100  0.26576900  0.39385200  1
  O  O33  1  0.95364400  0.78042500  0.38211900  1
  O  O34  1  0.35604400  0.47292700  0.64590000  1
  O  O35  1  0.09407600  0.50505700  0.79141400  1
  O  O36  1  0.90592400  0.00505700  0.70858600  1
  O  O37  1  0.64395600  0.97292700  0.85410000  1
  O  O38  1  0.25415100  0.97641200  0.47698000  1
  O  O39  1  0.64395600  0.52707300  0.35410000  1
  O  O40  1  0.53375600  0.16099700  0.06897800  1
  O  O41  1  0.53375600  0.33900300  0.56897800  1
  O  O42  1  0.95364400  0.71957500  0.88211900  1
  O  O43  1  0.67627500  0.38995100  0.75154300  1
  O  O44  1  0.41611500  0.28994800  0.85552900  1
  O  O45  1  0.09407600  0.99494300  0.29141400  1
