# generated using pymatgen
data_Mn2CrO4
_symmetry_space_group_name_H-M   'P 1'
_cell_length_a   8.38786058
_cell_length_b   8.55910827
_cell_length_c   6.08700667
_cell_angle_alpha   90.00000000
_cell_angle_beta   132.52994049
_cell_angle_gamma   90.00000000
_symmetry_Int_Tables_number   1
_chemical_formula_structural   Mn2CrO4
_chemical_formula_sum   'Mn8 Cr4 O16'
_cell_volume   322.03740600
_cell_formula_units_Z   4
loop_
 _symmetry_equiv_pos_site_id
 _symmetry_equiv_pos_as_xyz
  1  'x, y, z'
loop_
 _atom_site_type_symbol
 _atom_site_label
 _atom_site_symmetry_multiplicity
 _atom_site_fract_x
 _atom_site_fract_y
 _atom_site_fract_z
 _atom_site_occupancy
  Mn  Mn0  1  0.75000000  0.75000000  0.50000000  1
  Mn  Mn1  1  0.50000000  0.61916300  0.75000000  1
  Mn  Mn2  1  0.25000000  0.75000000  0.00000000  1
  Mn  Mn3  1  0.50000000  0.38083700  0.25000000  1
  Mn  Mn4  1  0.25000000  0.25000000  0.50000000  1
  Mn  Mn5  1  0.00000000  0.11916300  0.75000000  1
  Mn  Mn6  1  0.75000000  0.25000000  0.00000000  1
  Mn  Mn7  1  0.00000000  0.88083700  0.25000000  1
  Cr  Cr8  1  0.50000000  0.00000000  0.00000000  1
  Cr  Cr9  1  0.50000000  0.00000000  0.50000000  1
  Cr  Cr10  1  0.00000000  0.50000000  0.00000000  1
  Cr  Cr11  1  0.00000000  0.50000000  0.50000000  1
  O  O12  1  0.51670300  0.76236100  0.49741900  1
  O  O13  1  0.48329700  0.76236100  0.00258100  1
  O  O14  1  0.48329700  0.23763900  0.50258100  1
  O  O15  1  0.51670300  0.23763900  0.99741900  1
  O  O16  1  0.72011900  0.98329800  0.45602600  1
  O  O17  1  0.72011900  0.01670200  0.95602600  1
  O  O18  1  0.27988100  0.01670200  0.54397400  1
  O  O19  1  0.27988100  0.98329800  0.04397400  1
  O  O20  1  0.01670300  0.26236100  0.49741900  1
  O  O21  1  0.98329700  0.26236100  0.00258100  1
  O  O22  1  0.98329700  0.73763900  0.50258100  1
  O  O23  1  0.01670300  0.73763900  0.99741900  1
  O  O24  1  0.22011900  0.48329800  0.45602600  1
  O  O25  1  0.22011900  0.51670200  0.95602600  1
  O  O26  1  0.77988100  0.51670200  0.54397400  1
  O  O27  1  0.77988100  0.48329800  0.04397400  1
