# generated using pymatgen
data_CdGeP2
_symmetry_space_group_name_H-M   'P 1'
_cell_length_a   5.81093600
_cell_length_b   5.81093600
_cell_length_c   10.97204800
_cell_angle_alpha   90.00000000
_cell_angle_beta   90.00000000
_cell_angle_gamma   90.00000000
_symmetry_Int_Tables_number   1
_chemical_formula_structural   CdGeP2
_chemical_formula_sum   'Cd4 Ge4 P8'
_cell_volume   370.49289461
_cell_formula_units_Z   4
loop_
 _symmetry_equiv_pos_site_id
 _symmetry_equiv_pos_as_xyz
  1  'x, y, z'
loop_
 _atom_site_type_symbol
 _atom_site_label
 _atom_site_symmetry_multiplicity
 _atom_site_fract_x
 _atom_site_fract_y
 _atom_site_fract_z
 _atom_site_occupancy
  Cd  Cd0  1  0.00000000  0.00000000  0.00000000  1
  Cd  Cd1  1  0.00000000  0.50000000  0.25000000  1
  Cd  Cd2  1  0.50000000  0.50000000  0.50000000  1
  Cd  Cd3  1  0.50000000  0.00000000  0.75000000  1
  Ge  Ge4  1  0.50000000  0.00000000  0.25000000  1
  Ge  Ge5  1  0.50000000  0.50000000  0.00000000  1
  Ge  Ge6  1  0.00000000  0.50000000  0.75000000  1
  Ge  Ge7  1  0.00000000  0.00000000  0.50000000  1
  P  P8  1  0.25000000  0.21737300  0.37500000  1
  P  P9  1  0.71737300  0.25000000  0.12500000  1
  P  P10  1  0.75000000  0.78262700  0.37500000  1
  P  P11  1  0.28262700  0.75000000  0.12500000  1
  P  P12  1  0.75000000  0.71737300  0.87500000  1
  P  P13  1  0.21737300  0.75000000  0.62500000  1
  P  P14  1  0.25000000  0.28262700  0.87500000  1
  P  P15  1  0.78262700  0.25000000  0.62500000  1
