# generated using pymatgen
data_TaBiO4
_symmetry_space_group_name_H-M   'P 1'
_cell_length_a   5.05025200
_cell_length_b   5.73732300
_cell_length_c   11.88860300
_cell_angle_alpha   90.00000000
_cell_angle_beta   90.00000000
_cell_angle_gamma   90.00000000
_symmetry_Int_Tables_number   1
_chemical_formula_structural   TaBiO4
_chemical_formula_sum   'Ta4 Bi4 O16'
_cell_volume   344.47140353
_cell_formula_units_Z   4
loop_
 _symmetry_equiv_pos_site_id
 _symmetry_equiv_pos_as_xyz
  1  'x, y, z'
loop_
 _atom_site_type_symbol
 _atom_site_label
 _atom_site_symmetry_multiplicity
 _atom_site_fract_x
 _atom_site_fract_y
 _atom_site_fract_z
 _atom_site_occupancy
  Ta  Ta0  1  0.75000000  0.86403900  0.25000000  1
  Ta  Ta1  1  0.75000000  0.63596100  0.75000000  1
  Ta  Ta2  1  0.25000000  0.13596100  0.75000000  1
  Ta  Ta3  1  0.25000000  0.36403900  0.25000000  1
  Bi  Bi4  1  0.21945800  0.75000000  0.50000000  1
  Bi  Bi5  1  0.28054200  0.75000000  0.00000000  1
  Bi  Bi6  1  0.78054200  0.25000000  0.50000000  1
  Bi  Bi7  1  0.71945800  0.25000000  0.00000000  1
  O  O8  1  0.09097400  0.08343600  0.59766700  1
  O  O9  1  0.09097400  0.41656400  0.40233300  1
  O  O10  1  0.40902600  0.08343600  0.90233300  1
  O  O11  1  0.40902600  0.41656400  0.09766700  1
  O  O12  1  0.90902600  0.91656400  0.40233300  1
  O  O13  1  0.90902600  0.58343600  0.59766700  1
  O  O14  1  0.59097400  0.91656400  0.09766700  1
  O  O15  1  0.59097400  0.58343600  0.90233300  1
  O  O16  1  0.50583600  0.14550900  0.30379700  1
  O  O17  1  0.50583600  0.35449100  0.69620300  1
  O  O18  1  0.99416400  0.14550900  0.19620300  1
  O  O19  1  0.99416400  0.35449100  0.80379700  1
  O  O20  1  0.49416400  0.85449100  0.69620300  1
  O  O21  1  0.49416400  0.64550900  0.30379700  1
  O  O22  1  0.00583600  0.85449100  0.80379700  1
  O  O23  1  0.00583600  0.64550900  0.19620300  1
