# generated using pymatgen
data_LuNiBi
_symmetry_space_group_name_H-M   'P 1'
_cell_length_a   6.40186200
_cell_length_b   6.40186200
_cell_length_c   6.40186200
_cell_angle_alpha   90.00000000
_cell_angle_beta   90.00000000
_cell_angle_gamma   90.00000000
_symmetry_Int_Tables_number   1
_chemical_formula_structural   LuNiBi
_chemical_formula_sum   'Lu4 Ni4 Bi4'
_cell_volume   262.37286913
_cell_formula_units_Z   4
loop_
 _symmetry_equiv_pos_site_id
 _symmetry_equiv_pos_as_xyz
  1  'x, y, z'
loop_
 _atom_site_type_symbol
 _atom_site_label
 _atom_site_symmetry_multiplicity
 _atom_site_fract_x
 _atom_site_fract_y
 _atom_site_fract_z
 _atom_site_occupancy
  Lu  Lu0  1  0.50000000  0.00000000  0.00000000  1
  Lu  Lu1  1  0.50000000  0.50000000  0.50000000  1
  Lu  Lu2  1  0.00000000  0.00000000  0.50000000  1
  Lu  Lu3  1  0.00000000  0.50000000  0.00000000  1
  Ni  Ni4  1  0.25000000  0.25000000  0.75000000  1
  Ni  Ni5  1  0.25000000  0.75000000  0.25000000  1
  Ni  Ni6  1  0.75000000  0.25000000  0.25000000  1
  Ni  Ni7  1  0.75000000  0.75000000  0.75000000  1
  Bi  Bi8  1  0.00000000  0.00000000  0.00000000  1
  Bi  Bi9  1  0.00000000  0.50000000  0.50000000  1
  Bi  Bi10  1  0.50000000  0.00000000  0.50000000  1
  Bi  Bi11  1  0.50000000  0.50000000  0.00000000  1
