# generated using pymatgen
data_NaAsSe2
_symmetry_space_group_name_H-M   'P 1'
_cell_length_a   5.59299600
_cell_length_b   5.59299600
_cell_length_c   11.75891600
_cell_angle_alpha   90.00000000
_cell_angle_beta   90.00000000
_cell_angle_gamma   90.00000000
_symmetry_Int_Tables_number   1
_chemical_formula_structural   NaAsSe2
_chemical_formula_sum   'Na4 As4 Se8'
_cell_volume   367.83775679
_cell_formula_units_Z   4
loop_
 _symmetry_equiv_pos_site_id
 _symmetry_equiv_pos_as_xyz
  1  'x, y, z'
loop_
 _atom_site_type_symbol
 _atom_site_label
 _atom_site_symmetry_multiplicity
 _atom_site_fract_x
 _atom_site_fract_y
 _atom_site_fract_z
 _atom_site_occupancy
  Na  Na0  1  0.00000000  0.00000000  0.00000000  1
  Na  Na1  1  0.00000000  0.50000000  0.25000000  1
  Na  Na2  1  0.50000000  0.50000000  0.50000000  1
  Na  Na3  1  0.50000000  0.00000000  0.75000000  1
  As  As4  1  0.50000000  0.00000000  0.25000000  1
  As  As5  1  0.50000000  0.50000000  0.00000000  1
  As  As6  1  0.00000000  0.50000000  0.75000000  1
  As  As7  1  0.00000000  0.00000000  0.50000000  1
  Se  Se8  1  0.50000000  0.00000000  0.48064200  1
  Se  Se9  1  0.50000000  0.00000000  0.01935800  1
  Se  Se10  1  0.50000000  0.50000000  0.23064200  1
  Se  Se11  1  0.00000000  0.00000000  0.26935800  1
  Se  Se12  1  0.00000000  0.50000000  0.98064200  1
  Se  Se13  1  0.00000000  0.50000000  0.51935800  1
  Se  Se14  1  0.00000000  0.00000000  0.73064200  1
  Se  Se15  1  0.50000000  0.50000000  0.76935800  1
