# generated using pymatgen
data_Sm3GaO6
_symmetry_space_group_name_H-M   'P 1'
_cell_length_a   9.14741000
_cell_length_b   11.46647000
_cell_length_c   5.56792300
_cell_angle_alpha   90.00000000
_cell_angle_beta   90.00000000
_cell_angle_gamma   90.00000000
_symmetry_Int_Tables_number   1
_chemical_formula_structural   Sm3GaO6
_chemical_formula_sum   'Sm12 Ga4 O24'
_cell_volume   584.01110463
_cell_formula_units_Z   4
loop_
 _symmetry_equiv_pos_site_id
 _symmetry_equiv_pos_as_xyz
  1  'x, y, z'
loop_
 _atom_site_type_symbol
 _atom_site_label
 _atom_site_symmetry_multiplicity
 _atom_site_fract_x
 _atom_site_fract_y
 _atom_site_fract_z
 _atom_site_occupancy
  Sm  Sm0  1  0.50000000  0.89722000  0.07701500  1
  Sm  Sm1  1  0.50000000  0.10278000  0.57701500  1
  Sm  Sm2  1  0.19324250  0.10578650  0.03143800  1
  Sm  Sm3  1  0.80675750  0.89421350  0.53143800  1
  Sm  Sm4  1  0.80675750  0.10578650  0.03143800  1
  Sm  Sm5  1  0.19324250  0.89421350  0.53143800  1
  Sm  Sm6  1  0.00000000  0.39722000  0.07701500  1
  Sm  Sm7  1  0.00000000  0.60278000  0.57701500  1
  Sm  Sm8  1  0.69324250  0.60578650  0.03143800  1
  Sm  Sm9  1  0.30675750  0.39421350  0.53143800  1
  Sm  Sm10  1  0.30675750  0.60578650  0.03143800  1
  Sm  Sm11  1  0.69324250  0.39421350  0.53143800  1
  Ga  Ga12  1  0.50000000  0.69302800  0.49881800  1
  Ga  Ga13  1  0.50000000  0.30697200  0.99881800  1
  Ga  Ga14  1  0.00000000  0.19302800  0.49881800  1
  Ga  Ga15  1  0.00000000  0.80697200  0.99881800  1
  O  O16  1  0.50000000  0.71510000  0.83009800  1
  O  O17  1  0.50000000  0.28490000  0.33009800  1
  O  O18  1  0.50000000  0.54114500  0.36475700  1
  O  O19  1  0.50000000  0.45885500  0.86475700  1
  O  O20  1  0.34022850  0.01443950  0.30245900  1
  O  O21  1  0.65977150  0.98556050  0.80245900  1
  O  O22  1  0.65977150  0.01443950  0.30245900  1
  O  O23  1  0.34022850  0.98556050  0.80245900  1
  O  O24  1  0.65562650  0.23750050  0.82656400  1
  O  O25  1  0.34437350  0.76249950  0.32656400  1
  O  O26  1  0.34437350  0.23750050  0.82656400  1
  O  O27  1  0.65562650  0.76249950  0.32656400  1
  O  O28  1  0.00000000  0.21510000  0.83009800  1
  O  O29  1  0.00000000  0.78490000  0.33009800  1
  O  O30  1  0.00000000  0.04114500  0.36475700  1
  O  O31  1  0.00000000  0.95885500  0.86475700  1
  O  O32  1  0.84022850  0.51443950  0.30245900  1
  O  O33  1  0.15977150  0.48556050  0.80245900  1
  O  O34  1  0.15977150  0.51443950  0.30245900  1
  O  O35  1  0.84022850  0.48556050  0.80245900  1
  O  O36  1  0.15562650  0.73750050  0.82656400  1
  O  O37  1  0.84437350  0.26249950  0.32656400  1
  O  O38  1  0.84437350  0.73750050  0.82656400  1
  O  O39  1  0.15562650  0.26249950  0.32656400  1
