# generated using pymatgen
data_Fe(PO3)4
_symmetry_space_group_name_H-M   'P 1'
_cell_length_a   16.82922343
_cell_length_b   12.37337928
_cell_length_c   5.16826585
_cell_angle_alpha   90.00000000
_cell_angle_beta   97.48224078
_cell_angle_gamma   90.00000000
_symmetry_Int_Tables_number   1
_chemical_formula_structural   Fe(PO3)4
_chemical_formula_sum   'Fe4 P16 O48'
_cell_volume   1067.04691364
_cell_formula_units_Z   4
loop_
 _symmetry_equiv_pos_site_id
 _symmetry_equiv_pos_as_xyz
  1  'x, y, z'
loop_
 _atom_site_type_symbol
 _atom_site_label
 _atom_site_symmetry_multiplicity
 _atom_site_fract_x
 _atom_site_fract_y
 _atom_site_fract_z
 _atom_site_occupancy
  Fe  Fe0  1  0.75000000  0.75000000  0.00000000  1
  Fe  Fe1  1  0.25000000  0.75000000  0.00000000  1
  Fe  Fe2  1  0.25000000  0.25000000  0.00000000  1
  Fe  Fe3  1  0.75000000  0.25000000  0.00000000  1
  P  P4  1  0.32190150  0.62057550  0.53032300  1
  P  P5  1  0.92655100  0.71511900  0.81253700  1
  P  P6  1  0.67809850  0.62057550  0.46967700  1
  P  P7  1  0.32190150  0.37942450  0.53032300  1
  P  P8  1  0.92655100  0.28488100  0.81253700  1
  P  P9  1  0.07344900  0.28488100  0.18746300  1
  P  P10  1  0.07344900  0.71511900  0.18746300  1
  P  P11  1  0.67809850  0.37942450  0.46967700  1
  P  P12  1  0.82190150  0.12057550  0.53032300  1
  P  P13  1  0.42655100  0.21511900  0.81253700  1
  P  P14  1  0.17809850  0.12057550  0.46967700  1
  P  P15  1  0.82190150  0.87942450  0.53032300  1
  P  P16  1  0.42655100  0.78488100  0.81253700  1
  P  P17  1  0.57344900  0.78488100  0.18746300  1
  P  P18  1  0.57344900  0.21511900  0.18746300  1
  P  P19  1  0.17809850  0.87942450  0.46967700  1
  O  O20  1  0.30153250  0.36919350  0.24026300  1
  O  O21  1  0.14102850  0.69198350  0.02992900  1
  O  O22  1  0.69846750  0.36919350  0.75973700  1
  O  O23  1  0.90497450  0.81739750  0.62326900  1
  O  O24  1  0.04862950  0.38096450  0.33636400  1
  O  O25  1  0.25849000  0.65285000  0.69600500  1
  O  O26  1  0.00000000  0.76894300  0.00000000  1
  O  O27  1  0.74151000  0.65285000  0.30399500  1
  O  O28  1  0.85897150  0.69198350  0.97007100  1
  O  O29  1  0.30153250  0.63080650  0.24026300  1
  O  O30  1  0.14102850  0.30801650  0.02992900  1
  O  O31  1  0.35184300  0.50000000  0.60073900  1
  O  O32  1  0.64815700  0.50000000  0.39926100  1
  O  O33  1  0.69846750  0.63080650  0.75973700  1
  O  O34  1  0.09502550  0.81739750  0.37673100  1
  O  O35  1  0.00000000  0.23105700  0.00000000  1
  O  O36  1  0.95137050  0.38096450  0.66363600  1
  O  O37  1  0.25849000  0.34715000  0.69600500  1
  O  O38  1  0.85897150  0.30801650  0.97007100  1
  O  O39  1  0.74151000  0.34715000  0.30399500  1
  O  O40  1  0.95137050  0.61903550  0.66363600  1
  O  O41  1  0.09502550  0.18260250  0.37673100  1
  O  O42  1  0.90497450  0.18260250  0.62326900  1
  O  O43  1  0.04862950  0.61903550  0.33636400  1
  O  O44  1  0.80153250  0.86919350  0.24026300  1
  O  O45  1  0.64102850  0.19198350  0.02992900  1
  O  O46  1  0.19846750  0.86919350  0.75973700  1
  O  O47  1  0.40497450  0.31739750  0.62326900  1
  O  O48  1  0.54862950  0.88096450  0.33636400  1
  O  O49  1  0.75849000  0.15285000  0.69600500  1
  O  O50  1  0.50000000  0.26894300  0.00000000  1
  O  O51  1  0.24151000  0.15285000  0.30399500  1
  O  O52  1  0.35897150  0.19198350  0.97007100  1
  O  O53  1  0.80153250  0.13080650  0.24026300  1
  O  O54  1  0.64102850  0.80801650  0.02992900  1
  O  O55  1  0.85184300  0.00000000  0.60073900  1
  O  O56  1  0.14815700  0.00000000  0.39926100  1
  O  O57  1  0.19846750  0.13080650  0.75973700  1
  O  O58  1  0.59502550  0.31739750  0.37673100  1
  O  O59  1  0.50000000  0.73105700  0.00000000  1
  O  O60  1  0.45137050  0.88096450  0.66363600  1
  O  O61  1  0.75849000  0.84715000  0.69600500  1
  O  O62  1  0.35897150  0.80801650  0.97007100  1
  O  O63  1  0.24151000  0.84715000  0.30399500  1
  O  O64  1  0.45137050  0.11903550  0.66363600  1
  O  O65  1  0.59502550  0.68260250  0.37673100  1
  O  O66  1  0.40497450  0.68260250  0.62326900  1
  O  O67  1  0.54862950  0.11903550  0.33636400  1
