# generated using pymatgen
data_LiFeP2O7
_symmetry_space_group_name_H-M   'P 1'
_cell_length_a   6.54659000
_cell_length_b   8.33908400
_cell_length_c   9.07749993
_cell_angle_alpha   90.00000000
_cell_angle_beta   103.81899579
_cell_angle_gamma   90.00000000
_symmetry_Int_Tables_number   1
_chemical_formula_structural   LiFeP2O7
_chemical_formula_sum   'Li4 Fe4 P8 O28'
_cell_volume   481.21996662
_cell_formula_units_Z   4
loop_
 _symmetry_equiv_pos_site_id
 _symmetry_equiv_pos_as_xyz
  1  'x, y, z'
loop_
 _atom_site_type_symbol
 _atom_site_label
 _atom_site_symmetry_multiplicity
 _atom_site_fract_x
 _atom_site_fract_y
 _atom_site_fract_z
 _atom_site_occupancy
  Li  Li0  1  0.50637750  0.19508850  0.99676100  1
  Li  Li1  1  0.50637750  0.80491150  0.49676100  1
  Li  Li2  1  0.00637750  0.69508850  0.99676100  1
  Li  Li3  1  0.00637750  0.30491150  0.49676100  1
  Fe  Fe4  1  0.49439650  0.81926550  0.00229300  1
  Fe  Fe5  1  0.49439650  0.18073450  0.50229300  1
  Fe  Fe6  1  0.99439650  0.31926550  0.00229300  1
  Fe  Fe7  1  0.99439650  0.68073450  0.50229300  1
  P  P8  1  0.21578700  0.99797400  0.70231600  1
  P  P9  1  0.78329200  0.00677000  0.79856400  1
  P  P10  1  0.78329200  0.99323000  0.29856400  1
  P  P11  1  0.21578700  0.00202600  0.20231600  1
  P  P12  1  0.71578700  0.49797400  0.70231600  1
  P  P13  1  0.28329200  0.50677000  0.79856400  1
  P  P14  1  0.28329200  0.49323000  0.29856400  1
  P  P15  1  0.71578700  0.50202600  0.20231600  1
  O  O16  1  0.62174700  0.00491500  0.64426100  1
  O  O17  1  0.50214950  0.48126650  0.25194200  1
  O  O18  1  0.19820000  0.15575800  0.10722000  1
  O  O19  1  0.38141700  0.00961800  0.35407300  1
  O  O20  1  0.77321450  0.14472750  0.39126600  1
  O  O21  1  0.77321450  0.85527250  0.89126600  1
  O  O22  1  0.77964400  0.83850100  0.39062200  1
  O  O23  1  0.24377350  0.14775650  0.61068100  1
  O  O24  1  0.38141700  0.99038200  0.85407300  1
  O  O25  1  0.50214950  0.51873350  0.75194200  1
  O  O26  1  0.19820000  0.84424200  0.60722000  1
  O  O27  1  0.62174700  0.99508500  0.14426100  1
  O  O28  1  0.24377350  0.85224350  0.11068100  1
  O  O29  1  0.77964400  0.16149900  0.89062200  1
  O  O30  1  0.12174700  0.50491500  0.64426100  1
  O  O31  1  0.00214950  0.98126650  0.25194200  1
  O  O32  1  0.69820000  0.65575800  0.10722000  1
  O  O33  1  0.88141700  0.50961800  0.35407300  1
  O  O34  1  0.27321450  0.64472750  0.39126600  1
  O  O35  1  0.27321450  0.35527250  0.89126600  1
  O  O36  1  0.27964400  0.33850100  0.39062200  1
  O  O37  1  0.74377350  0.64775650  0.61068100  1
  O  O38  1  0.88141700  0.49038200  0.85407300  1
  O  O39  1  0.00214950  0.01873350  0.75194200  1
  O  O40  1  0.69820000  0.34424200  0.60722000  1
  O  O41  1  0.12174700  0.49508500  0.14426100  1
  O  O42  1  0.74377350  0.35224350  0.11068100  1
  O  O43  1  0.27964400  0.66149900  0.89062200  1
