# generated using pymatgen
data_Ta2Se8I
_symmetry_space_group_name_H-M   'P 1'
_cell_length_a   9.79202400
_cell_length_b   9.79202400
_cell_length_c   12.99593400
_cell_angle_alpha   90.00000000
_cell_angle_beta   90.00000000
_cell_angle_gamma   90.00000000
_symmetry_Int_Tables_number   1
_chemical_formula_structural   Ta2Se8I
_chemical_formula_sum   'Ta8 Se32 I4'
_cell_volume   1246.09867895
_cell_formula_units_Z   4
loop_
 _symmetry_equiv_pos_site_id
 _symmetry_equiv_pos_as_xyz
  1  'x, y, z'
loop_
 _atom_site_type_symbol
 _atom_site_label
 _atom_site_symmetry_multiplicity
 _atom_site_fract_x
 _atom_site_fract_y
 _atom_site_fract_z
 _atom_site_occupancy
  Ta  Ta0  1  0.50000000  0.00000000  0.25000000  1
  Ta  Ta1  1  0.00000000  0.50000000  0.25000000  1
  Ta  Ta2  1  0.50000000  0.00000000  0.00000000  1
  Ta  Ta3  1  0.00000000  0.50000000  0.00000000  1
  Ta  Ta4  1  0.00000000  0.50000000  0.75000000  1
  Ta  Ta5  1  0.50000000  0.00000000  0.75000000  1
  Ta  Ta6  1  0.00000000  0.50000000  0.50000000  1
  Ta  Ta7  1  0.50000000  0.00000000  0.50000000  1
  Se  Se8  1  0.54549650  0.20995950  0.13017350  1
  Se  Se9  1  0.95450350  0.29004050  0.63017350  1
  Se  Se10  1  0.29004050  0.95450350  0.36982650  1
  Se  Se11  1  0.20995950  0.45450350  0.13017350  1
  Se  Se12  1  0.29004050  0.04549650  0.63017350  1
  Se  Se13  1  0.04549650  0.29004050  0.36982650  1
  Se  Se14  1  0.61838500  0.81545500  0.38006600  1
  Se  Se15  1  0.18454500  0.61838500  0.38006600  1
  Se  Se16  1  0.81545500  0.38161500  0.38006600  1
  Se  Se17  1  0.88161500  0.31545500  0.11993400  1
  Se  Se18  1  0.11838500  0.68454500  0.11993400  1
  Se  Se19  1  0.38161500  0.18454500  0.38006600  1
  Se  Se20  1  0.68454500  0.88161500  0.11993400  1
  Se  Se21  1  0.31545500  0.11838500  0.11993400  1
  Se  Se22  1  0.20995950  0.54549650  0.86982650  1
  Se  Se23  1  0.45450350  0.20995950  0.86982650  1
  Se  Se24  1  0.04549650  0.70995950  0.63017350  1
  Se  Se25  1  0.45450350  0.79004050  0.13017350  1
  Se  Se26  1  0.79004050  0.45450350  0.86982650  1
  Se  Se27  1  0.70995950  0.95450350  0.63017350  1
  Se  Se28  1  0.79004050  0.54549650  0.13017350  1
  Se  Se29  1  0.54549650  0.79004050  0.86982650  1
  Se  Se30  1  0.11838500  0.31545500  0.88006600  1
  Se  Se31  1  0.68454500  0.11838500  0.88006600  1
  Se  Se32  1  0.31545500  0.88161500  0.88006600  1
  Se  Se33  1  0.38161500  0.81545500  0.61993400  1
  Se  Se34  1  0.61838500  0.18454500  0.61993400  1
  Se  Se35  1  0.88161500  0.68454500  0.88006600  1
  Se  Se36  1  0.18454500  0.38161500  0.61993400  1
  Se  Se37  1  0.81545500  0.61838500  0.61993400  1
  Se  Se38  1  0.70995950  0.04549650  0.36982650  1
  Se  Se39  1  0.95450350  0.70995950  0.36982650  1
  I  I40  1  0.00000000  0.00000000  0.84554100  1
  I  I41  1  0.00000000  0.00000000  0.15445900  1
  I  I42  1  0.50000000  0.50000000  0.34554100  1
  I  I43  1  0.50000000  0.50000000  0.65445900  1
