# generated using pymatgen
data_LiTbSe2
_symmetry_space_group_name_H-M   'P 1'
_cell_length_a   5.71850000
_cell_length_b   5.71850000
_cell_length_c   11.57091200
_cell_angle_alpha   90.00000000
_cell_angle_beta   90.00000000
_cell_angle_gamma   90.00000000
_symmetry_Int_Tables_number   1
_chemical_formula_structural   LiTbSe2
_chemical_formula_sum   'Li4 Tb4 Se8'
_cell_volume   378.38319637
_cell_formula_units_Z   4
loop_
 _symmetry_equiv_pos_site_id
 _symmetry_equiv_pos_as_xyz
  1  'x, y, z'
loop_
 _atom_site_type_symbol
 _atom_site_label
 _atom_site_symmetry_multiplicity
 _atom_site_fract_x
 _atom_site_fract_y
 _atom_site_fract_z
 _atom_site_occupancy
  Li  Li0  1  0.50000000  0.50000000  0.00000000  1
  Li  Li1  1  0.50000000  0.00000000  0.25000000  1
  Li  Li2  1  0.00000000  0.00000000  0.50000000  1
  Li  Li3  1  0.00000000  0.50000000  0.75000000  1
  Tb  Tb4  1  0.00000000  0.00000000  0.00000000  1
  Tb  Tb5  1  0.00000000  0.50000000  0.25000000  1
  Tb  Tb6  1  0.50000000  0.50000000  0.50000000  1
  Tb  Tb7  1  0.50000000  0.00000000  0.75000000  1
  Se  Se8  1  0.50000000  0.50000000  0.25192700  1
  Se  Se9  1  0.00000000  0.50000000  0.00192700  1
  Se  Se10  1  0.00000000  0.00000000  0.24807300  1
  Se  Se11  1  0.00000000  0.50000000  0.49807300  1
  Se  Se12  1  0.00000000  0.00000000  0.75192700  1
  Se  Se13  1  0.50000000  0.00000000  0.50192700  1
  Se  Se14  1  0.50000000  0.50000000  0.74807300  1
  Se  Se15  1  0.50000000  0.00000000  0.99807300  1
