# generated using pymatgen
data_Ga(SbCl)4
_symmetry_space_group_name_H-M   'P 1'
_cell_length_a   10.13157400
_cell_length_b   13.52340200
_cell_length_c   18.30142300
_cell_angle_alpha   90.00000000
_cell_angle_beta   90.00000000
_cell_angle_gamma   90.00000000
_symmetry_Int_Tables_number   1
_chemical_formula_structural   Ga(SbCl)4
_chemical_formula_sum   'Ga8 Sb32 Cl32'
_cell_volume   2507.53924013
_cell_formula_units_Z   8
loop_
 _symmetry_equiv_pos_site_id
 _symmetry_equiv_pos_as_xyz
  1  'x, y, z'
loop_
 _atom_site_type_symbol
 _atom_site_label
 _atom_site_symmetry_multiplicity
 _atom_site_fract_x
 _atom_site_fract_y
 _atom_site_fract_z
 _atom_site_occupancy
  Ga  Ga0  1  0.53649300  0.37787100  0.81918500  1
  Ga  Ga1  1  0.46350700  0.87787100  0.18081500  1
  Ga  Ga2  1  0.96350700  0.37787100  0.31918500  1
  Ga  Ga3  1  0.03649300  0.87787100  0.68081500  1
  Ga  Ga4  1  0.51254000  0.06540300  0.50224000  1
  Ga  Ga5  1  0.48746000  0.56540300  0.49776000  1
  Ga  Ga6  1  0.98746000  0.06540300  0.00224000  1
  Ga  Ga7  1  0.01254000  0.56540300  0.99776000  1
  Sb  Sb8  1  0.88960600  0.17814500  0.67695400  1
  Sb  Sb9  1  0.11039400  0.67814500  0.32304600  1
  Sb  Sb10  1  0.61039400  0.17814500  0.17695400  1
  Sb  Sb11  1  0.38960600  0.67814500  0.82304600  1
  Sb  Sb12  1  0.06143700  0.23957200  0.55089100  1
  Sb  Sb13  1  0.93856300  0.73957200  0.44910900  1
  Sb  Sb14  1  0.43856300  0.23957200  0.05089100  1
  Sb  Sb15  1  0.56143700  0.73957200  0.94910900  1
  Sb  Sb16  1  0.96774700  0.31878000  0.79125500  1
  Sb  Sb17  1  0.03225300  0.81878000  0.20874500  1
  Sb  Sb18  1  0.53225300  0.31878000  0.29125500  1
  Sb  Sb19  1  0.46774700  0.81878000  0.70874500  1
  Sb  Sb20  1  0.05067100  0.45609000  0.56513600  1
  Sb  Sb21  1  0.94932900  0.95609000  0.43486400  1
  Sb  Sb22  1  0.44932900  0.45609000  0.06513600  1
  Sb  Sb23  1  0.55067100  0.95609000  0.93486400  1
  Sb  Sb24  1  0.17900800  0.22570200  0.69665200  1
  Sb  Sb25  1  0.82099200  0.72570200  0.30334800  1
  Sb  Sb26  1  0.32099200  0.22570200  0.19665200  1
  Sb  Sb27  1  0.67900800  0.72570200  0.80334800  1
  Sb  Sb28  1  0.87434300  0.47939100  0.69580300  1
  Sb  Sb29  1  0.12565700  0.97939100  0.30419700  1
  Sb  Sb30  1  0.62565700  0.47939100  0.19580300  1
  Sb  Sb31  1  0.37434300  0.97939100  0.80419700  1
  Sb  Sb32  1  0.79805400  0.33844400  0.58219800  1
  Sb  Sb33  1  0.20194600  0.83844400  0.41780200  1
  Sb  Sb34  1  0.70194600  0.33844400  0.08219800  1
  Sb  Sb35  1  0.29805400  0.83844400  0.91780200  1
  Sb  Sb36  1  0.16833400  0.44101300  0.71098300  1
  Sb  Sb37  1  0.83166600  0.94101300  0.28901700  1
  Sb  Sb38  1  0.33166600  0.44101300  0.21098300  1
  Sb  Sb39  1  0.66833400  0.94101300  0.78901700  1
  Cl  Cl40  1  0.53832800  0.90435900  0.49707700  1
  Cl  Cl41  1  0.46167200  0.40435900  0.50292300  1
  Cl  Cl42  1  0.96167200  0.90435900  0.99707700  1
  Cl  Cl43  1  0.03832800  0.40435900  0.00292300  1
  Cl  Cl44  1  0.34629700  0.37663500  0.87773300  1
  Cl  Cl45  1  0.65370300  0.87663500  0.12226700  1
  Cl  Cl46  1  0.15370300  0.37663500  0.37773300  1
  Cl  Cl47  1  0.84629700  0.87663500  0.62226700  1
  Cl  Cl48  1  0.60150600  0.22491700  0.80135200  1
  Cl  Cl49  1  0.39849400  0.72491700  0.19864800  1
  Cl  Cl50  1  0.89849400  0.22491700  0.30135200  1
  Cl  Cl51  1  0.10150600  0.72491700  0.69864800  1
  Cl  Cl52  1  0.32534900  0.10771700  0.44765700  1
  Cl  Cl53  1  0.67465100  0.60771700  0.55234300  1
  Cl  Cl54  1  0.17465100  0.10771700  0.94765700  1
  Cl  Cl55  1  0.82534900  0.60771700  0.05234300  1
  Cl  Cl56  1  0.51099800  0.11731200  0.61667300  1
  Cl  Cl57  1  0.48900200  0.61731200  0.38332700  1
  Cl  Cl58  1  0.98900200  0.11731200  0.11667300  1
  Cl  Cl59  1  0.01099800  0.61731200  0.88332700  1
  Cl  Cl60  1  0.67928700  0.13844700  0.44537600  1
  Cl  Cl61  1  0.32071300  0.63844700  0.55462400  1
  Cl  Cl62  1  0.82071300  0.13844700  0.94537600  1
  Cl  Cl63  1  0.17928700  0.63844700  0.05462400  1
  Cl  Cl64  1  0.51109900  0.45171400  0.71228300  1
  Cl  Cl65  1  0.48890100  0.95171400  0.28771700  1
  Cl  Cl66  1  0.98890100  0.45171400  0.21228300  1
  Cl  Cl67  1  0.01109900  0.95171400  0.78771700  1
  Cl  Cl68  1  0.68346600  0.46156800  0.88283100  1
  Cl  Cl69  1  0.31653400  0.96156800  0.11716900  1
  Cl  Cl70  1  0.81653400  0.46156800  0.38283100  1
  Cl  Cl71  1  0.18346600  0.96156800  0.61716900  1
