# generated using pymatgen
data_SrLaTiMnO6
_symmetry_space_group_name_H-M   'P 1'
_cell_length_a   5.68593414
_cell_length_b   5.64711200
_cell_length_c   9.50875470
_cell_angle_alpha   90.00000000
_cell_angle_beta   126.03130065
_cell_angle_gamma   90.00000000
_symmetry_Int_Tables_number   1
_chemical_formula_structural   SrLaTiMnO6
_chemical_formula_sum   'Sr2 La2 Ti2 Mn2 O12'
_cell_volume   246.90906787
_cell_formula_units_Z   2
loop_
 _symmetry_equiv_pos_site_id
 _symmetry_equiv_pos_as_xyz
  1  'x, y, z'
loop_
 _atom_site_type_symbol
 _atom_site_label
 _atom_site_symmetry_multiplicity
 _atom_site_fract_x
 _atom_site_fract_y
 _atom_site_fract_z
 _atom_site_occupancy
  Sr  Sr0  1  0.25213900  0.24277200  0.25076300  1
  Sr  Sr1  1  0.25213900  0.75722800  0.75076300  1
  La  La2  1  0.73876700  0.73692400  0.25001100  1
  La  La3  1  0.73876700  0.26307600  0.75001100  1
  Ti  Ti4  1  0.50048400  0.75185500  0.50187800  1
  Ti  Ti5  1  0.50048400  0.24814500  0.00187800  1
  Mn  Mn6  1  0.99713600  0.24911900  0.50001300  1
  Mn  Mn7  1  0.99713600  0.75088100  0.00001300  1
  O  O8  1  0.16694000  0.24602400  0.74532900  1
  O  O9  1  0.16694000  0.75397600  0.24532900  1
  O  O10  1  0.31340200  0.00840400  0.53839100  1
  O  O11  1  0.31340200  0.99159600  0.03839100  1
  O  O12  1  0.71771800  0.02277400  0.96045300  1
  O  O13  1  0.71771800  0.97722600  0.46045300  1
  O  O14  1  0.81605200  0.74300300  0.75426400  1
  O  O15  1  0.81605200  0.25699700  0.25426400  1
  O  O16  1  0.29461100  0.50980800  0.53649600  1
  O  O17  1  0.29461100  0.49019200  0.03649600  1
  O  O18  1  0.70275300  0.49561400  0.96241200  1
  O  O19  1  0.70275300  0.50438600  0.46241200  1
