# generated using pymatgen
data_Ga2S3
_symmetry_space_group_name_H-M   'P 1'
_cell_length_a   6.46997400
_cell_length_b   11.39927600
_cell_length_c   6.43139611
_cell_angle_alpha   90.00000000
_cell_angle_beta   108.42593379
_cell_angle_gamma   90.00000000
_symmetry_Int_Tables_number   1
_chemical_formula_structural   Ga2S3
_chemical_formula_sum   'Ga8 S12'
_cell_volume   450.01717553
_cell_formula_units_Z   4
loop_
 _symmetry_equiv_pos_site_id
 _symmetry_equiv_pos_as_xyz
  1  'x, y, z'
loop_
 _atom_site_type_symbol
 _atom_site_label
 _atom_site_symmetry_multiplicity
 _atom_site_fract_x
 _atom_site_fract_y
 _atom_site_fract_z
 _atom_site_occupancy
  Ga  Ga0  1  0.56466150  0.58356550  0.99709100  1
  Ga  Ga1  1  0.09444900  0.74656500  0.99759200  1
  Ga  Ga2  1  0.06466150  0.91643450  0.49709100  1
  Ga  Ga3  1  0.59444900  0.75343500  0.49759200  1
  Ga  Ga4  1  0.06466150  0.08356550  0.99709100  1
  Ga  Ga5  1  0.59444900  0.24656500  0.99759200  1
  Ga  Ga6  1  0.56466150  0.41643450  0.49709100  1
  Ga  Ga7  1  0.09444900  0.25343500  0.49759200  1
  S  S8  1  0.20274600  0.58486200  0.86758000  1
  S  S9  1  0.21903800  0.91996100  0.87996900  1
  S  S10  1  0.71903800  0.58003900  0.37996900  1
  S  S11  1  0.71077050  0.75095150  0.88276700  1
  S  S12  1  0.70274600  0.91513800  0.36758000  1
  S  S13  1  0.21077050  0.74904850  0.38276700  1
  S  S14  1  0.70274600  0.08486200  0.86758000  1
  S  S15  1  0.71903800  0.41996100  0.87996900  1
  S  S16  1  0.21903800  0.08003900  0.37996900  1
  S  S17  1  0.21077050  0.25095150  0.88276700  1
  S  S18  1  0.20274600  0.41513800  0.36758000  1
  S  S19  1  0.71077050  0.24904850  0.38276700  1
