# generated using pymatgen
data_Ca(TbS2)2
_symmetry_space_group_name_H-M   'P 1'
_cell_length_a   8.39599200
_cell_length_b   8.39599200
_cell_length_c   8.41236200
_cell_angle_alpha   90.00000000
_cell_angle_beta   90.00000000
_cell_angle_gamma   90.00000000
_symmetry_Int_Tables_number   1
_chemical_formula_structural   Ca(TbS2)2
_chemical_formula_sum   'Ca4 Tb8 S16'
_cell_volume   593.00995651
_cell_formula_units_Z   4
loop_
 _symmetry_equiv_pos_site_id
 _symmetry_equiv_pos_as_xyz
  1  'x, y, z'
loop_
 _atom_site_type_symbol
 _atom_site_label
 _atom_site_symmetry_multiplicity
 _atom_site_fract_x
 _atom_site_fract_y
 _atom_site_fract_z
 _atom_site_occupancy
  Ca  Ca0  1  0.00000000  0.50000000  0.25000000  1
  Ca  Ca1  1  0.00000000  0.00000000  0.00000000  1
  Ca  Ca2  1  0.50000000  0.00000000  0.75000000  1
  Ca  Ca3  1  0.50000000  0.50000000  0.50000000  1
  Tb  Tb4  1  0.25000000  0.87243500  0.37500000  1
  Tb  Tb5  1  0.37243500  0.25000000  0.12500000  1
  Tb  Tb6  1  0.25000000  0.62756500  0.87500000  1
  Tb  Tb7  1  0.12756500  0.25000000  0.62500000  1
  Tb  Tb8  1  0.75000000  0.37243500  0.87500000  1
  Tb  Tb9  1  0.87243500  0.75000000  0.62500000  1
  Tb  Tb10  1  0.75000000  0.12756500  0.37500000  1
  Tb  Tb11  1  0.62756500  0.75000000  0.12500000  1
  S  S12  1  0.67777650  0.07283650  0.05836950  1
  S  S13  1  0.17777650  0.92716350  0.69163050  1
  S  S14  1  0.07283650  0.32222350  0.94163050  1
  S  S15  1  0.42716350  0.17777650  0.44163050  1
  S  S16  1  0.07283650  0.17777650  0.30836950  1
  S  S17  1  0.32222350  0.57283650  0.19163050  1
  S  S18  1  0.82222350  0.42716350  0.55836950  1
  S  S19  1  0.42716350  0.32222350  0.80836950  1
  S  S20  1  0.17777650  0.57283650  0.55836950  1
  S  S21  1  0.67777650  0.42716350  0.19163050  1
  S  S22  1  0.57283650  0.82222350  0.44163050  1
  S  S23  1  0.92716350  0.67777650  0.94163050  1
  S  S24  1  0.57283650  0.67777650  0.80836950  1
  S  S25  1  0.82222350  0.07283650  0.69163050  1
  S  S26  1  0.32222350  0.92716350  0.05836950  1
  S  S27  1  0.92716350  0.82222350  0.30836950  1
