# generated using pymatgen
data_RbBO2
_symmetry_space_group_name_H-M   'P 1'
_cell_length_a   13.30688940
_cell_length_b   13.30688940
_cell_length_c   8.00477762
_cell_angle_alpha   90.00000000
_cell_angle_beta   90.00000000
_cell_angle_gamma   120.00000000
_symmetry_Int_Tables_number   1
_chemical_formula_structural   RbBO2
_chemical_formula_sum   'Rb18 B18 O36'
_cell_volume   1227.53249389
_cell_formula_units_Z   18
loop_
 _symmetry_equiv_pos_site_id
 _symmetry_equiv_pos_as_xyz
  1  'x, y, z'
loop_
 _atom_site_type_symbol
 _atom_site_label
 _atom_site_symmetry_multiplicity
 _atom_site_fract_x
 _atom_site_fract_y
 _atom_site_fract_z
 _atom_site_occupancy
  Rb  Rb0  1  0.10680167  0.33333333  0.08333333  1
  Rb  Rb1  1  0.00000000  0.44013500  0.75000000  1
  Rb  Rb2  1  0.89319833  0.22653167  0.41666667  1
  Rb  Rb3  1  0.55986500  0.00000000  0.25000000  1
  Rb  Rb4  1  0.66666667  0.89319833  0.58333333  1
  Rb  Rb5  1  0.77346833  0.10680167  0.91666667  1
  Rb  Rb6  1  0.77346833  0.66666667  0.41666667  1
  Rb  Rb7  1  0.66666667  0.77346833  0.08333333  1
  Rb  Rb8  1  0.55986500  0.55986500  0.75000000  1
  Rb  Rb9  1  0.22653167  0.33333333  0.58333333  1
  Rb  Rb10  1  0.33333333  0.22653167  0.91666667  1
  Rb  Rb11  1  0.44013500  0.44013500  0.25000000  1
  Rb  Rb12  1  0.44013500  0.00000000  0.75000000  1
  Rb  Rb13  1  0.33333333  0.10680167  0.41666667  1
  Rb  Rb14  1  0.22653167  0.89319833  0.08333333  1
  Rb  Rb15  1  0.89319833  0.66666667  0.91666667  1
  Rb  Rb16  1  0.00000000  0.55986500  0.25000000  1
  Rb  Rb17  1  0.10680167  0.77346833  0.58333333  1
  B  B18  1  0.77617667  0.33333333  0.08333333  1
  B  B19  1  0.00000000  0.10951000  0.75000000  1
  B  B20  1  0.22382333  0.55715667  0.41666667  1
  B  B21  1  0.89049000  0.00000000  0.25000000  1
  B  B22  1  0.66666667  0.22382333  0.58333333  1
  B  B23  1  0.44284333  0.77617667  0.91666667  1
  B  B24  1  0.44284333  0.66666667  0.41666667  1
  B  B25  1  0.66666667  0.44284333  0.08333333  1
  B  B26  1  0.89049000  0.89049000  0.75000000  1
  B  B27  1  0.55715667  0.33333333  0.58333333  1
  B  B28  1  0.33333333  0.55715667  0.91666667  1
  B  B29  1  0.10951000  0.10951000  0.25000000  1
  B  B30  1  0.10951000  0.00000000  0.75000000  1
  B  B31  1  0.33333333  0.77617667  0.41666667  1
  B  B32  1  0.55715667  0.22382333  0.08333333  1
  B  B33  1  0.22382333  0.66666667  0.91666667  1
  B  B34  1  0.00000000  0.89049000  0.25000000  1
  B  B35  1  0.77617667  0.44284333  0.58333333  1
  O  O36  1  0.54251033  0.87584367  0.91666667  1
  O  O37  1  0.66666667  0.12415633  0.58333333  1
  O  O38  1  0.79082300  1.00000000  0.25000000  1
  O  O39  1  0.12415633  0.45748967  0.41666667  1
  O  O40  1  0.00000000  0.20917700  0.75000000  1
  O  O41  1  0.87584367  0.33333333  0.08333333  1
  O  O42  1  0.77138367  0.33333333  0.58333333  1
  O  O43  1  0.22861633  0.56194967  0.91666667  1
  O  O44  1  0.00000000  0.10471700  0.25000000  1
  O  O45  1  0.89528300  0.00000000  0.75000000  1
  O  O46  1  0.43805033  0.77138367  0.41666667  1
  O  O47  1  0.66666667  0.22861633  0.08333333  1
  O  O48  1  0.20917700  0.20917700  0.25000000  1
  O  O49  1  0.33333333  0.45748967  0.91666667  1
  O  O50  1  0.45748967  0.33333333  0.58333333  1
  O  O51  1  0.79082300  0.79082300  0.75000000  1
  O  O52  1  0.66666667  0.54251033  0.08333333  1
  O  O53  1  0.54251033  0.66666667  0.41666667  1
  O  O54  1  0.43805033  0.66666667  0.91666667  1
  O  O55  1  0.89528300  0.89528300  0.25000000  1
  O  O56  1  0.66666667  0.43805033  0.58333333  1
  O  O57  1  0.56194967  0.33333333  0.08333333  1
  O  O58  1  0.10471700  0.10471700  0.75000000  1
  O  O59  1  0.33333333  0.56194967  0.41666667  1
  O  O60  1  0.87584367  0.54251033  0.58333333  1
  O  O61  1  0.00000000  0.79082300  0.25000000  1
  O  O62  1  0.12415633  0.66666667  0.91666667  1
  O  O63  1  0.45748967  0.12415633  0.08333333  1
  O  O64  1  0.33333333  0.87584367  0.41666667  1
  O  O65  1  0.20917700  0.00000000  0.75000000  1
  O  O66  1  0.10471700  0.00000000  0.25000000  1
  O  O67  1  0.56194967  0.22861633  0.58333333  1
  O  O68  1  0.33333333  0.77138367  0.91666667  1
  O  O69  1  0.22861633  0.66666667  0.41666667  1
  O  O70  1  0.77138367  0.43805033  0.08333333  1
  O  O71  1  0.00000000  0.89528300  0.75000000  1
