# generated using pymatgen
data_LiCo(PO3)4
_symmetry_space_group_name_H-M   'P 1'
_cell_length_a   9.53691000
_cell_length_b   13.86276000
_cell_length_c   7.66441300
_cell_angle_alpha   90.00000000
_cell_angle_beta   102.42044316
_cell_angle_gamma   90.00000000
_symmetry_Int_Tables_number   1
_chemical_formula_structural   LiCo(PO3)4
_chemical_formula_sum   'Li4 Co4 P16 O48'
_cell_volume   989.58032077
_cell_formula_units_Z   4
loop_
 _symmetry_equiv_pos_site_id
 _symmetry_equiv_pos_as_xyz
  1  'x, y, z'
loop_
 _atom_site_type_symbol
 _atom_site_label
 _atom_site_symmetry_multiplicity
 _atom_site_fract_x
 _atom_site_fract_y
 _atom_site_fract_z
 _atom_site_occupancy
  Li  Li0  1  0.34567700  0.85050400  0.77351500  1
  Li  Li1  1  0.34567700  0.14949600  0.27351500  1
  Li  Li2  1  0.84567700  0.35050400  0.77351500  1
  Li  Li3  1  0.84567700  0.64949600  0.27351500  1
  Co  Co4  1  0.49604100  0.36639600  0.74267700  1
  Co  Co5  1  0.49604100  0.63360400  0.24267700  1
  Co  Co6  1  0.99604100  0.86639600  0.74267700  1
  Co  Co7  1  0.99604100  0.13360400  0.24267700  1
  P  P8  1  0.40237550  0.83578450  0.38631500  1
  P  P9  1  0.59332950  0.83838550  0.14108500  1
  P  P10  1  0.12780250  0.92459750  0.15612600  1
  P  P11  1  0.12780250  0.07540250  0.65612600  1
  P  P12  1  0.87638100  0.07721400  0.82503400  1
  P  P13  1  0.87638100  0.92278600  0.32503400  1
  P  P14  1  0.59332950  0.16161450  0.64108500  1
  P  P15  1  0.40237550  0.16421550  0.88631500  1
  P  P16  1  0.90237550  0.33578450  0.38631500  1
  P  P17  1  0.09332950  0.33838550  0.14108500  1
  P  P18  1  0.62780250  0.42459750  0.15612600  1
  P  P19  1  0.62780250  0.57540250  0.65612600  1
  P  P20  1  0.37638100  0.57721400  0.82503400  1
  P  P21  1  0.37638100  0.42278600  0.32503400  1
  P  P22  1  0.09332950  0.66161450  0.64108500  1
  P  P23  1  0.90237550  0.66421550  0.88631500  1
  O  O24  1  0.63477500  0.73316700  0.18895200  1
  O  O25  1  0.50664800  0.85994300  0.96231200  1
  O  O26  1  0.88735700  0.96912200  0.83759700  1
  O  O27  1  0.37487500  0.26628700  0.81426500  1
  O  O28  1  0.13648400  0.12714200  0.48552500  1
  O  O29  1  0.37487500  0.73371300  0.31426500  1
  O  O30  1  0.37172450  0.36690450  0.49291600  1
  O  O31  1  0.37172450  0.63309550  0.99291600  1
  O  O32  1  0.52214900  0.88476700  0.29539400  1
  O  O33  1  0.73954600  0.89876000  0.17208800  1
  O  O34  1  0.73954600  0.10124000  0.67208800  1
  O  O35  1  0.43670400  0.14663700  0.08018700  1
  O  O36  1  0.50664800  0.14005700  0.46231200  1
  O  O37  1  0.13648400  0.87285800  0.98552500  1
  O  O38  1  0.88735700  0.03087800  0.33759700  1
  O  O39  1  0.11834800  0.96642700  0.65150400  1
  O  O40  1  0.50058900  0.37819000  0.23622000  1
  O  O41  1  0.11834800  0.03357300  0.15150400  1
  O  O42  1  0.63477500  0.26683300  0.68895200  1
  O  O43  1  0.52214900  0.11523300  0.79539400  1
  O  O44  1  0.50058900  0.62181000  0.73622000  1
  O  O45  1  0.26368400  0.09937300  0.80654900  1
  O  O46  1  0.26368400  0.90062700  0.30654900  1
  O  O47  1  0.43670400  0.85336300  0.58018700  1
  O  O48  1  0.13477500  0.23316700  0.18895200  1
  O  O49  1  0.00664800  0.35994300  0.96231200  1
  O  O50  1  0.38735700  0.46912200  0.83759700  1
  O  O51  1  0.87487500  0.76628700  0.81426500  1
  O  O52  1  0.63648400  0.62714200  0.48552500  1
  O  O53  1  0.87487500  0.23371300  0.31426500  1
  O  O54  1  0.87172450  0.86690450  0.49291600  1
  O  O55  1  0.87172450  0.13309550  0.99291600  1
  O  O56  1  0.02214900  0.38476700  0.29539400  1
  O  O57  1  0.23954600  0.39876000  0.17208800  1
  O  O58  1  0.23954600  0.60124000  0.67208800  1
  O  O59  1  0.93670400  0.64663700  0.08018700  1
  O  O60  1  0.00664800  0.64005700  0.46231200  1
  O  O61  1  0.63648400  0.37285800  0.98552500  1
  O  O62  1  0.38735700  0.53087800  0.33759700  1
  O  O63  1  0.61834800  0.46642700  0.65150400  1
  O  O64  1  0.00058900  0.87819000  0.23622000  1
  O  O65  1  0.61834800  0.53357300  0.15150400  1
  O  O66  1  0.13477500  0.76683300  0.68895200  1
  O  O67  1  0.02214900  0.61523300  0.79539400  1
  O  O68  1  0.00058900  0.12181000  0.73622000  1
  O  O69  1  0.76368400  0.59937300  0.80654900  1
  O  O70  1  0.76368400  0.40062700  0.30654900  1
  O  O71  1  0.93670400  0.35336300  0.58018700  1
