# generated using pymatgen
data_MgGeO3
_symmetry_space_group_name_H-M   'P 1'
_cell_length_a   5.01308010
_cell_length_b   5.01308010
_cell_length_c   13.92615667
_cell_angle_alpha   90.00000000
_cell_angle_beta   90.00000000
_cell_angle_gamma   120.00000000
_symmetry_Int_Tables_number   1
_chemical_formula_structural   MgGeO3
_chemical_formula_sum   'Mg6 Ge6 O18'
_cell_volume   303.08971314
_cell_formula_units_Z   6
loop_
 _symmetry_equiv_pos_site_id
 _symmetry_equiv_pos_as_xyz
  1  'x, y, z'
loop_
 _atom_site_type_symbol
 _atom_site_label
 _atom_site_symmetry_multiplicity
 _atom_site_fract_x
 _atom_site_fract_y
 _atom_site_fract_z
 _atom_site_occupancy
  Mg  Mg0  1  0.33333333  0.66666667  0.02563067  1
  Mg  Mg1  1  0.33333333  0.66666667  0.30770267  1
  Mg  Mg2  1  0.00000000  0.00000000  0.35896400  1
  Mg  Mg3  1  0.00000000  0.00000000  0.64103600  1
  Mg  Mg4  1  0.66666667  0.33333333  0.69229733  1
  Mg  Mg5  1  0.66666667  0.33333333  0.97436933  1
  Ge  Ge6  1  0.00000000  0.00000000  0.15332800  1
  Ge  Ge7  1  0.66666667  0.33333333  0.18000533  1
  Ge  Ge8  1  0.66666667  0.33333333  0.48666133  1
  Ge  Ge9  1  0.33333333  0.66666667  0.51333867  1
  Ge  Ge10  1  0.33333333  0.66666667  0.81999467  1
  Ge  Ge11  1  0.00000000  0.00000000  0.84667200  1
  O  O12  1  0.69159633  0.64854167  0.08905867  1
  O  O13  1  0.35145833  0.04305467  0.08905867  1
  O  O14  1  0.95694533  0.30840367  0.08905867  1
  O  O15  1  0.97507033  0.68479167  0.24427467  1
  O  O16  1  0.70972133  0.02492967  0.24427467  1
  O  O17  1  0.31520833  0.29027867  0.24427467  1
  O  O18  1  0.35826300  0.98187500  0.42239200  1
  O  O19  1  0.01812500  0.37638800  0.42239200  1
  O  O20  1  0.62361200  0.64173700  0.42239200  1
  O  O21  1  0.64173700  0.01812500  0.57760800  1
  O  O22  1  0.37638800  0.35826300  0.57760800  1
  O  O23  1  0.98187500  0.62361200  0.57760800  1
  O  O24  1  0.02492967  0.31520833  0.75572533  1
  O  O25  1  0.68479167  0.70972133  0.75572533  1
  O  O26  1  0.29027867  0.97507033  0.75572533  1
  O  O27  1  0.30840367  0.35145833  0.91094133  1
  O  O28  1  0.04305467  0.69159633  0.91094133  1
  O  O29  1  0.64854167  0.95694533  0.91094133  1
