# generated using pymatgen
data_Ba4Nd3F17
_symmetry_space_group_name_H-M   'P 1'
_cell_length_a   9.57483400
_cell_length_b   9.59189225
_cell_length_c   9.65578453
_cell_angle_alpha   73.01971413
_cell_angle_beta   72.87304186
_cell_angle_gamma   73.07708765
_symmetry_Int_Tables_number   1
_chemical_formula_structural   Ba4Nd3F17
_chemical_formula_sum   'Ba8 Nd6 F34'
_cell_volume   789.85741942
_cell_formula_units_Z   2
loop_
 _symmetry_equiv_pos_site_id
 _symmetry_equiv_pos_as_xyz
  1  'x, y, z'
loop_
 _atom_site_type_symbol
 _atom_site_label
 _atom_site_symmetry_multiplicity
 _atom_site_fract_x
 _atom_site_fract_y
 _atom_site_fract_z
 _atom_site_occupancy
  Ba  Ba0  1  0.89178200  0.04622200  0.31202300  1
  Ba  Ba1  1  0.26794900  0.26193900  0.26595500  1
  Ba  Ba2  1  0.04950800  0.31047000  0.89316900  1
  Ba  Ba3  1  0.69225000  0.10285700  0.95650200  1
  Ba  Ba4  1  0.30973500  0.89239200  0.05098300  1
  Ba  Ba5  1  0.94767100  0.68841400  0.11252000  1
  Ba  Ba6  1  0.73803800  0.73171900  0.73385600  1
  Ba  Ba7  1  0.11035500  0.94440400  0.68670300  1
  Nd  Nd8  1  0.46904700  0.15657200  0.61127500  1
  Nd  Nd9  1  0.60625900  0.47300600  0.16967500  1
  Nd  Nd10  1  0.84375100  0.38904300  0.53222400  1
  Nd  Nd11  1  0.18229200  0.61094800  0.46385400  1
  Nd  Nd12  1  0.38855300  0.53214300  0.84046800  1
  Nd  Nd13  1  0.52565000  0.82119700  0.39147000  1
  F  F14  1  0.99355600  0.00113200  0.00605300  1
  F  F15  1  0.45236000  0.01818800  0.17784300  1
  F  F16  1  0.13712500  0.13964000  0.13723800  1
  F  F17  1  0.35889600  0.04115100  0.49087800  1
  F  F18  1  0.02010600  0.17604300  0.45264100  1
  F  F19  1  0.25772100  0.08148200  0.78885200  1
  F  F20  1  0.78435200  0.26125200  0.08971900  1
  F  F21  1  0.49347800  0.35484000  0.04256500  1
  F  F22  1  0.17741700  0.45034900  0.02039100  1
  F  F23  1  0.54379400  0.26075300  0.35023100  1
  F  F24  1  0.70361600  0.20567800  0.58202100  1
  F  F25  1  0.26236400  0.34520000  0.54486300  1
  F  F26  1  0.04895600  0.48871300  0.35870100  1
  F  F27  1  0.41178100  0.29818000  0.79397400  1
  F  F28  1  0.91658800  0.21065500  0.74192600  1
  F  F29  1  0.33882500  0.54782200  0.23782500  1
  F  F30  1  0.79911300  0.41976200  0.29644100  1
  F  F31  1  0.19918400  0.59145900  0.70789800  1
  F  F32  1  0.46225900  0.57179400  0.44735700  1
  F  F33  1  0.65167700  0.45708300  0.73608600  1
  F  F34  1  0.08484500  0.78554500  0.26054600  1
  F  F35  1  0.59306500  0.71994000  0.17556100  1
  F  F36  1  0.96383800  0.50771300  0.64230300  1
  F  F37  1  0.74482800  0.65046700  0.45440000  1
  F  F38  1  0.27107200  0.83440700  0.40650400  1
  F  F39  1  0.44862900  0.74580800  0.65814400  1
  F  F40  1  0.82296400  0.54544900  0.98170600  1
  F  F41  1  0.51121400  0.64214800  0.95462900  1
  F  F42  1  0.20988400  0.74124300  0.91899600  1
  F  F43  1  0.73722500  0.91220000  0.21916000  1
  F  F44  1  0.98143800  0.81820200  0.54876000  1
  F  F45  1  0.64292500  0.95119700  0.51112200  1
  F  F46  1  0.86361200  0.86001900  0.86221900  1
  F  F47  1  0.54945100  0.98016100  0.82277400  1
