# generated using pymatgen
data_Cd(Ga3Te5)2
_symmetry_space_group_name_H-M   'P 1'
_cell_length_a   13.74692600
_cell_length_b   6.17044400
_cell_length_c   13.38282310
_cell_angle_alpha   90.00000000
_cell_angle_beta   91.15903348
_cell_angle_gamma   90.00000000
_symmetry_Int_Tables_number   1
_chemical_formula_structural   Cd(Ga3Te5)2
_chemical_formula_sum   'Cd2 Ga12 Te20'
_cell_volume   1134.96085389
_cell_formula_units_Z   2
loop_
 _symmetry_equiv_pos_site_id
 _symmetry_equiv_pos_as_xyz
  1  'x, y, z'
loop_
 _atom_site_type_symbol
 _atom_site_label
 _atom_site_symmetry_multiplicity
 _atom_site_fract_x
 _atom_site_fract_y
 _atom_site_fract_z
 _atom_site_occupancy
  Cd  Cd0  1  0.00000000  0.10026500  0.50000000  1
  Cd  Cd1  1  0.50000000  0.60026500  0.50000000  1
  Ga  Ga2  1  0.59783050  0.59455450  0.19851200  1
  Ga  Ga3  1  0.80380500  0.08986600  0.10122400  1
  Ga  Ga4  1  0.90216950  0.09455450  0.80148800  1
  Ga  Ga5  1  0.69619500  0.58986600  0.89877600  1
  Ga  Ga6  1  0.79844150  0.59719250  0.60027300  1
  Ga  Ga7  1  0.70155850  0.09719250  0.39972700  1
  Ga  Ga8  1  0.09783050  0.09455450  0.19851200  1
  Ga  Ga9  1  0.30380500  0.58986600  0.10122400  1
  Ga  Ga10  1  0.40216950  0.59455450  0.80148800  1
  Ga  Ga11  1  0.19619500  0.08986600  0.89877600  1
  Ga  Ga12  1  0.29844150  0.09719250  0.60027300  1
  Ga  Ga13  1  0.20155850  0.59719250  0.39972700  1
  Te  Te14  1  0.64489850  0.86220950  0.04575000  1
  Te  Te15  1  0.94923600  0.84414600  0.15607200  1
  Te  Te16  1  0.55076400  0.34414600  0.84392800  1
  Te  Te17  1  0.85510150  0.36220950  0.95425000  1
  Te  Te18  1  0.95640500  0.38177000  0.66324200  1
  Te  Te19  1  0.74113450  0.86445450  0.74880100  1
  Te  Te20  1  0.84676450  0.81546550  0.43511800  1
  Te  Te21  1  0.65323550  0.31546550  0.56488200  1
  Te  Te22  1  0.75886550  0.36445450  0.25119900  1
  Te  Te23  1  0.54359500  0.88177000  0.33675800  1
  Te  Te24  1  0.14489850  0.36220950  0.04575000  1
  Te  Te25  1  0.44923600  0.34414600  0.15607200  1
  Te  Te26  1  0.05076400  0.84414600  0.84392800  1
  Te  Te27  1  0.35510150  0.86220950  0.95425000  1
  Te  Te28  1  0.45640500  0.88177000  0.66324200  1
  Te  Te29  1  0.24113450  0.36445450  0.74880100  1
  Te  Te30  1  0.34676450  0.31546550  0.43511800  1
  Te  Te31  1  0.15323550  0.81546550  0.56488200  1
  Te  Te32  1  0.25886550  0.86445450  0.25119900  1
  Te  Te33  1  0.04359500  0.38177000  0.33675800  1
