# generated using pymatgen
data_Ag3AuSe2
_symmetry_space_group_name_H-M   'P 1'
_cell_length_a   10.13924800
_cell_length_b   10.13924800
_cell_length_c   10.13924800
_cell_angle_alpha   90.00000000
_cell_angle_beta   90.00000000
_cell_angle_gamma   90.00000000
_symmetry_Int_Tables_number   1
_chemical_formula_structural   Ag3AuSe2
_chemical_formula_sum   'Ag24 Au8 Se16'
_cell_volume   1042.35880018
_cell_formula_units_Z   8
loop_
 _symmetry_equiv_pos_site_id
 _symmetry_equiv_pos_as_xyz
  1  'x, y, z'
loop_
 _atom_site_type_symbol
 _atom_site_label
 _atom_site_symmetry_multiplicity
 _atom_site_fract_x
 _atom_site_fract_y
 _atom_site_fract_z
 _atom_site_occupancy
  Ag  Ag0  1  0.37809700  0.50000000  0.75000000  1
  Ag  Ag1  1  0.50000000  0.75000000  0.37809700  1
  Ag  Ag2  1  0.75000000  0.37809700  0.50000000  1
  Ag  Ag3  1  0.75000000  0.12809700  0.00000000  1
  Ag  Ag4  1  0.25000000  0.12190300  0.50000000  1
  Ag  Ag5  1  0.25000000  0.37190300  0.00000000  1
  Ag  Ag6  1  0.00000000  0.75000000  0.12809700  1
  Ag  Ag7  1  0.00000000  0.25000000  0.37190300  1
  Ag  Ag8  1  0.12809700  0.00000000  0.75000000  1
  Ag  Ag9  1  0.37190300  0.00000000  0.25000000  1
  Ag  Ag10  1  0.12190300  0.50000000  0.25000000  1
  Ag  Ag11  1  0.50000000  0.25000000  0.12190300  1
  Ag  Ag12  1  0.87809700  0.00000000  0.25000000  1
  Ag  Ag13  1  0.00000000  0.25000000  0.87809700  1
  Ag  Ag14  1  0.25000000  0.87809700  0.00000000  1
  Ag  Ag15  1  0.25000000  0.62809700  0.50000000  1
  Ag  Ag16  1  0.75000000  0.62190300  0.00000000  1
  Ag  Ag17  1  0.75000000  0.87190300  0.50000000  1
  Ag  Ag18  1  0.50000000  0.25000000  0.62809700  1
  Ag  Ag19  1  0.50000000  0.75000000  0.87190300  1
  Ag  Ag20  1  0.62809700  0.50000000  0.25000000  1
  Ag  Ag21  1  0.87190300  0.50000000  0.75000000  1
  Ag  Ag22  1  0.62190300  0.00000000  0.75000000  1
  Ag  Ag23  1  0.00000000  0.75000000  0.62190300  1
  Au  Au24  1  0.12500000  0.12500000  0.12500000  1
  Au  Au25  1  0.37500000  0.12500000  0.87500000  1
  Au  Au26  1  0.12500000  0.87500000  0.37500000  1
  Au  Au27  1  0.87500000  0.37500000  0.12500000  1
  Au  Au28  1  0.62500000  0.62500000  0.62500000  1
  Au  Au29  1  0.87500000  0.62500000  0.37500000  1
  Au  Au30  1  0.62500000  0.37500000  0.87500000  1
  Au  Au31  1  0.37500000  0.87500000  0.62500000  1
  Se  Se32  1  0.23244500  0.73244500  0.76755500  1
  Se  Se33  1  0.76755500  0.23244500  0.73244500  1
  Se  Se34  1  0.01755500  0.51755500  0.98244500  1
  Se  Se35  1  0.51755500  0.98244500  0.01755500  1
  Se  Se36  1  0.48244500  0.48244500  0.48244500  1
  Se  Se37  1  0.98244500  0.01755500  0.51755500  1
  Se  Se38  1  0.26755500  0.26755500  0.26755500  1
  Se  Se39  1  0.73244500  0.76755500  0.23244500  1
  Se  Se40  1  0.73244500  0.23244500  0.26755500  1
  Se  Se41  1  0.26755500  0.73244500  0.23244500  1
  Se  Se42  1  0.51755500  0.01755500  0.48244500  1
  Se  Se43  1  0.01755500  0.48244500  0.51755500  1
  Se  Se44  1  0.98244500  0.98244500  0.98244500  1
  Se  Se45  1  0.48244500  0.51755500  0.01755500  1
  Se  Se46  1  0.76755500  0.76755500  0.76755500  1
  Se  Se47  1  0.23244500  0.26755500  0.73244500  1
