# generated using pymatgen
data_Na2PtO3
_symmetry_space_group_name_H-M   'P 1'
_cell_length_a   5.74717000
_cell_length_b   9.50744000
_cell_length_c   5.46909899
_cell_angle_alpha   90.00000000
_cell_angle_beta   111.22325544
_cell_angle_gamma   90.00000000
_symmetry_Int_Tables_number   1
_chemical_formula_structural   Na2PtO3
_chemical_formula_sum   'Na8 Pt4 O12'
_cell_volume   278.56835504
_cell_formula_units_Z   4
loop_
 _symmetry_equiv_pos_site_id
 _symmetry_equiv_pos_as_xyz
  1  'x, y, z'
loop_
 _atom_site_type_symbol
 _atom_site_label
 _atom_site_symmetry_multiplicity
 _atom_site_fract_x
 _atom_site_fract_y
 _atom_site_fract_z
 _atom_site_occupancy
  Na  Na0  1  0.50000000  0.58549700  0.75000000  1
  Na  Na1  1  0.50000000  0.25948700  0.75000000  1
  Na  Na2  1  0.50000000  0.41450300  0.25000000  1
  Na  Na3  1  0.50000000  0.74051300  0.25000000  1
  Na  Na4  1  0.00000000  0.08549700  0.75000000  1
  Na  Na5  1  0.00000000  0.75948700  0.75000000  1
  Na  Na6  1  0.00000000  0.91450300  0.25000000  1
  Na  Na7  1  0.00000000  0.24051300  0.25000000  1
  Pt  Pt8  1  0.50000000  0.91511800  0.75000000  1
  Pt  Pt9  1  0.50000000  0.08488200  0.25000000  1
  Pt  Pt10  1  0.00000000  0.41511800  0.75000000  1
  Pt  Pt11  1  0.00000000  0.58488200  0.25000000  1
  O  O12  1  0.69807100  0.06914800  0.00207500  1
  O  O13  1  0.30192900  0.93085200  0.99792500  1
  O  O14  1  0.30192900  0.06914800  0.49792500  1
  O  O15  1  0.75000000  0.75000000  0.00000000  1
  O  O16  1  0.69807100  0.93085200  0.50207500  1
  O  O17  1  0.75000000  0.25000000  0.50000000  1
  O  O18  1  0.19807100  0.56914800  0.00207500  1
  O  O19  1  0.80192900  0.43085200  0.99792500  1
  O  O20  1  0.80192900  0.56914800  0.49792500  1
  O  O21  1  0.25000000  0.25000000  0.00000000  1
  O  O22  1  0.19807100  0.43085200  0.50207500  1
  O  O23  1  0.25000000  0.75000000  0.50000000  1
