# generated using pymatgen
data_TlSb5S8
_symmetry_space_group_name_H-M   'P 1'
_cell_length_a   8.56401500
_cell_length_b   19.67596600
_cell_length_c   12.53067115
_cell_angle_alpha   90.00000000
_cell_angle_beta   132.85983813
_cell_angle_gamma   90.00000000
_symmetry_Int_Tables_number   1
_chemical_formula_structural   TlSb5S8
_chemical_formula_sum   'Tl4 Sb20 S32'
_cell_volume   1547.75981096
_cell_formula_units_Z   4
loop_
 _symmetry_equiv_pos_site_id
 _symmetry_equiv_pos_as_xyz
  1  'x, y, z'
loop_
 _atom_site_type_symbol
 _atom_site_label
 _atom_site_symmetry_multiplicity
 _atom_site_fract_x
 _atom_site_fract_y
 _atom_site_fract_z
 _atom_site_occupancy
  Tl  Tl0  1  0.00929900  0.54919000  0.00160900  1
  Tl  Tl1  1  0.00929900  0.45081000  0.50160900  1
  Tl  Tl2  1  0.08146300  0.94785700  0.27305400  1
  Tl  Tl3  1  0.08146300  0.05214300  0.77305400  1
  Sb  Sb4  1  0.21511300  0.71383500  0.45595400  1
  Sb  Sb5  1  0.21511300  0.28616500  0.95595400  1
  Sb  Sb6  1  0.58225300  0.54193200  0.55298000  1
  Sb  Sb7  1  0.58225300  0.45806800  0.05298000  1
  Sb  Sb8  1  0.38780500  0.78479800  0.26493600  1
  Sb  Sb9  1  0.38780500  0.21520200  0.76493600  1
  Sb  Sb10  1  0.81290800  0.73550100  0.01559100  1
  Sb  Sb11  1  0.81290800  0.26449900  0.51559100  1
  Sb  Sb12  1  0.64301000  0.63095500  0.20904600  1
  Sb  Sb13  1  0.64301000  0.36904500  0.70904600  1
  Sb  Sb14  1  0.01398500  0.87066600  0.53678400  1
  Sb  Sb15  1  0.01398500  0.12933400  0.03678400  1
  Sb  Sb16  1  0.57996900  0.95622900  0.80826900  1
  Sb  Sb17  1  0.57996900  0.04377100  0.30826900  1
  Sb  Sb18  1  0.40483200  0.84597800  0.97087400  1
  Sb  Sb19  1  0.40483200  0.15402200  0.47087400  1
  Sb  Sb20  1  0.80347000  0.77057400  0.70796500  1
  Sb  Sb21  1  0.80347000  0.22942600  0.20796500  1
  Sb  Sb22  1  0.15783800  0.64968700  0.73467300  1
  Sb  Sb23  1  0.15783800  0.35031300  0.23467300  1
  S  S24  1  0.82725400  0.72248700  0.53618300  1
  S  S25  1  0.82725400  0.27751300  0.03618300  1
  S  S26  1  0.78172800  0.77095200  0.18757100  1
  S  S27  1  0.78172800  0.22904800  0.68757100  1
  S  S28  1  0.44608900  0.80231200  0.80529800  1
  S  S29  1  0.44608900  0.19768800  0.30529800  1
  S  S30  1  0.60694300  0.59559900  0.00482900  1
  S  S31  1  0.60694300  0.40440100  0.50482900  1
  S  S32  1  0.54774700  0.50752400  0.21832000  1
  S  S33  1  0.54774700  0.49247600  0.71832000  1
  S  S34  1  0.19873500  0.98296200  0.58731400  1
  S  S35  1  0.19873500  0.01703800  0.08731400  1
  S  S36  1  0.65047900  0.91640900  0.31667300  1
  S  S37  1  0.65047900  0.08359100  0.81667300  1
  S  S38  1  0.56255400  0.96297200  0.99574100  1
  S  S39  1  0.56255400  0.03702800  0.49574100  1
  S  S40  1  0.17124700  0.70777600  0.91640100  1
  S  S41  1  0.17124700  0.29222400  0.41640100  1
  S  S42  1  0.00748700  0.88817500  0.72968500  1
  S  S43  1  0.00748700  0.11182500  0.22968500  1
  S  S44  1  0.42911600  0.83216400  0.46335600  1
  S  S45  1  0.42911600  0.16783600  0.96335600  1
  S  S46  1  0.57328000  0.65924600  0.66607100  1
  S  S47  1  0.57328000  0.34075400  0.16607100  1
  S  S48  1  0.98094400  0.54041000  0.71446700  1
  S  S49  1  0.98094400  0.45959000  0.21446700  1
  S  S50  1  0.21551900  0.67657600  0.26301200  1
  S  S51  1  0.21551900  0.32342400  0.76301200  1
  S  S52  1  0.02628000  0.60231100  0.41883100  1
  S  S53  1  0.02628000  0.39768900  0.91883100  1
  S  S54  1  0.02975200  0.83706300  0.05221300  1
  S  S55  1  0.02975200  0.16293700  0.55221300  1
