# generated using pymatgen
data_Mg(FeO2)2
_symmetry_space_group_name_H-M   'P 1'
_cell_length_a   6.01139400
_cell_length_b   6.02722200
_cell_length_c   8.51963200
_cell_angle_alpha   90.00000000
_cell_angle_beta   90.00000000
_cell_angle_gamma   90.00000000
_symmetry_Int_Tables_number   1
_chemical_formula_structural   Mg(FeO2)2
_chemical_formula_sum   'Mg4 Fe8 O16'
_cell_volume   308.68335917
_cell_formula_units_Z   4
loop_
 _symmetry_equiv_pos_site_id
 _symmetry_equiv_pos_as_xyz
  1  'x, y, z'
loop_
 _atom_site_type_symbol
 _atom_site_label
 _atom_site_symmetry_multiplicity
 _atom_site_fract_x
 _atom_site_fract_y
 _atom_site_fract_z
 _atom_site_occupancy
  Mg  Mg0  1  0.75000000  0.25000000  0.25000000  1
  Mg  Mg1  1  0.25000000  0.25000000  0.25000000  1
  Mg  Mg2  1  0.25000000  0.75000000  0.75000000  1
  Mg  Mg3  1  0.75000000  0.75000000  0.75000000  1
  Fe  Fe4  1  0.00000000  0.75000000  0.36714400  1
  Fe  Fe5  1  0.00000000  0.25000000  0.63285600  1
  Fe  Fe6  1  0.00000000  0.00000000  0.00000000  1
  Fe  Fe7  1  0.50000000  0.00000000  0.50000000  1
  Fe  Fe8  1  0.50000000  0.25000000  0.86714400  1
  Fe  Fe9  1  0.50000000  0.75000000  0.13285600  1
  Fe  Fe10  1  0.50000000  0.50000000  0.50000000  1
  Fe  Fe11  1  0.00000000  0.50000000  0.00000000  1
  O  O12  1  0.26471500  0.25000000  0.49660300  1
  O  O13  1  0.73528500  0.25000000  0.49660300  1
  O  O14  1  0.50000000  0.01000700  0.26100300  1
  O  O15  1  0.73528500  0.75000000  0.50339700  1
  O  O16  1  0.00000000  0.01000700  0.23899700  1
  O  O17  1  0.26471500  0.75000000  0.50339700  1
  O  O18  1  0.00000000  0.98999300  0.76100300  1
  O  O19  1  0.50000000  0.98999300  0.73899700  1
  O  O20  1  0.76471500  0.75000000  0.99660300  1
  O  O21  1  0.23528500  0.75000000  0.99660300  1
  O  O22  1  0.00000000  0.51000700  0.76100300  1
  O  O23  1  0.23528500  0.25000000  0.00339700  1
  O  O24  1  0.50000000  0.51000700  0.73899700  1
  O  O25  1  0.76471500  0.25000000  0.00339700  1
  O  O26  1  0.50000000  0.48999300  0.26100300  1
  O  O27  1  0.00000000  0.48999300  0.23899700  1
