# generated using pymatgen
data_Rb2Te5
_symmetry_space_group_name_H-M   'P 1'
_cell_length_a   11.69641400
_cell_length_b   9.40885000
_cell_length_c   5.91587363
_cell_angle_alpha   90.00000000
_cell_angle_beta   118.07963795
_cell_angle_gamma   90.00000000
_symmetry_Int_Tables_number   1
_chemical_formula_structural   Rb2Te5
_chemical_formula_sum   'Rb4 Te10'
_cell_volume   574.40946853
_cell_formula_units_Z   2
loop_
 _symmetry_equiv_pos_site_id
 _symmetry_equiv_pos_as_xyz
  1  'x, y, z'
loop_
 _atom_site_type_symbol
 _atom_site_label
 _atom_site_symmetry_multiplicity
 _atom_site_fract_x
 _atom_site_fract_y
 _atom_site_fract_z
 _atom_site_occupancy
  Rb  Rb0  1  0.81592100  0.50000000  0.64139000  1
  Rb  Rb1  1  0.18407900  0.50000000  0.35861000  1
  Rb  Rb2  1  0.31592100  0.00000000  0.64139000  1
  Rb  Rb3  1  0.68407900  0.00000000  0.35861000  1
  Te  Te4  1  0.00000000  0.00000000  0.00000000  1
  Te  Te5  1  0.09260900  0.23569600  0.76421900  1
  Te  Te6  1  0.90739100  0.23569600  0.23578100  1
  Te  Te7  1  0.90739100  0.76430400  0.23578100  1
  Te  Te8  1  0.09260900  0.76430400  0.76421900  1
  Te  Te9  1  0.50000000  0.50000000  0.00000000  1
  Te  Te10  1  0.59260900  0.73569600  0.76421900  1
  Te  Te11  1  0.40739100  0.73569600  0.23578100  1
  Te  Te12  1  0.40739100  0.26430400  0.23578100  1
  Te  Te13  1  0.59260900  0.26430400  0.76421900  1
