# generated using pymatgen
data_RbTaO3
_symmetry_space_group_name_H-M   'P 1'
_cell_length_a   9.72187400
_cell_length_b   8.59380400
_cell_length_c   8.27244152
_cell_angle_alpha   90.00000000
_cell_angle_beta   94.73675310
_cell_angle_gamma   90.00000000
_symmetry_Int_Tables_number   1
_chemical_formula_structural   RbTaO3
_chemical_formula_sum   'Rb8 Ta8 O24'
_cell_volume   688.78442699
_cell_formula_units_Z   8
loop_
 _symmetry_equiv_pos_site_id
 _symmetry_equiv_pos_as_xyz
  1  'x, y, z'
loop_
 _atom_site_type_symbol
 _atom_site_label
 _atom_site_symmetry_multiplicity
 _atom_site_fract_x
 _atom_site_fract_y
 _atom_site_fract_z
 _atom_site_occupancy
  Rb  Rb0  1  0.33624100  0.00000000  0.76182900  1
  Rb  Rb1  1  0.66375900  0.00000000  0.23817100  1
  Rb  Rb2  1  0.50000000  0.73535300  0.50000000  1
  Rb  Rb3  1  0.50000000  0.26464700  0.50000000  1
  Rb  Rb4  1  0.83624100  0.50000000  0.76182900  1
  Rb  Rb5  1  0.16375900  0.50000000  0.23817100  1
  Rb  Rb6  1  0.00000000  0.23535300  0.50000000  1
  Rb  Rb7  1  0.00000000  0.76464700  0.50000000  1
  Ta  Ta8  1  0.50000000  0.68933700  0.00000000  1
  Ta  Ta9  1  0.50000000  0.31066300  0.00000000  1
  Ta  Ta10  1  0.25959900  0.00000000  0.19518400  1
  Ta  Ta11  1  0.74040100  0.00000000  0.80481600  1
  Ta  Ta12  1  0.00000000  0.18933700  0.00000000  1
  Ta  Ta13  1  0.00000000  0.81066300  0.00000000  1
  Ta  Ta14  1  0.75959900  0.50000000  0.19518400  1
  Ta  Ta15  1  0.24040100  0.50000000  0.80481600  1
  O  O16  1  0.87760000  0.00000000  0.05232100  1
  O  O17  1  0.12240000  0.00000000  0.94767900  1
  O  O18  1  0.38611200  0.16000200  0.10203800  1
  O  O19  1  0.61388800  0.16000200  0.89796200  1
  O  O20  1  0.61388800  0.83999800  0.89796200  1
  O  O21  1  0.38611200  0.83999800  0.10203800  1
  O  O22  1  0.67066600  0.00000000  0.59194000  1
  O  O23  1  0.32933400  0.00000000  0.40806000  1
  O  O24  1  0.38103900  0.66713000  0.78965100  1
  O  O25  1  0.61896100  0.66713000  0.21034900  1
  O  O26  1  0.61896100  0.33287000  0.21034900  1
  O  O27  1  0.38103900  0.33287000  0.78965100  1
  O  O28  1  0.37760000  0.50000000  0.05232100  1
  O  O29  1  0.62240000  0.50000000  0.94767900  1
  O  O30  1  0.88611200  0.66000200  0.10203800  1
  O  O31  1  0.11388800  0.66000200  0.89796200  1
  O  O32  1  0.11388800  0.33999800  0.89796200  1
  O  O33  1  0.88611200  0.33999800  0.10203800  1
  O  O34  1  0.17066600  0.50000000  0.59194000  1
  O  O35  1  0.82933400  0.50000000  0.40806000  1
  O  O36  1  0.88103900  0.16713000  0.78965100  1
  O  O37  1  0.11896100  0.16713000  0.21034900  1
  O  O38  1  0.11896100  0.83287000  0.21034900  1
  O  O39  1  0.88103900  0.83287000  0.78965100  1
