# generated using pymatgen
data_SrHfO3
_symmetry_space_group_name_H-M   'P 1'
_cell_length_a   5.78189600
_cell_length_b   5.78189600
_cell_length_c   8.33048200
_cell_angle_alpha   90.00000000
_cell_angle_beta   90.00000000
_cell_angle_gamma   90.00000000
_symmetry_Int_Tables_number   1
_chemical_formula_structural   SrHfO3
_chemical_formula_sum   'Sr4 Hf4 O12'
_cell_volume   278.49069030
_cell_formula_units_Z   4
loop_
 _symmetry_equiv_pos_site_id
 _symmetry_equiv_pos_as_xyz
  1  'x, y, z'
loop_
 _atom_site_type_symbol
 _atom_site_label
 _atom_site_symmetry_multiplicity
 _atom_site_fract_x
 _atom_site_fract_y
 _atom_site_fract_z
 _atom_site_occupancy
  Sr  Sr0  1  0.50000000  0.00000000  0.25000000  1
  Sr  Sr1  1  0.00000000  0.50000000  0.25000000  1
  Sr  Sr2  1  0.00000000  0.50000000  0.75000000  1
  Sr  Sr3  1  0.50000000  0.00000000  0.75000000  1
  Hf  Hf4  1  0.50000000  0.50000000  0.00000000  1
  Hf  Hf5  1  0.00000000  0.00000000  0.00000000  1
  Hf  Hf6  1  0.00000000  0.00000000  0.50000000  1
  Hf  Hf7  1  0.50000000  0.50000000  0.50000000  1
  O  O8  1  0.19776700  0.69776700  0.00000000  1
  O  O9  1  0.30223300  0.19776700  0.00000000  1
  O  O10  1  0.69776700  0.80223300  0.00000000  1
  O  O11  1  0.80223300  0.30223300  0.00000000  1
  O  O12  1  0.50000000  0.50000000  0.25000000  1
  O  O13  1  0.00000000  0.00000000  0.25000000  1
  O  O14  1  0.69776700  0.19776700  0.50000000  1
  O  O15  1  0.80223300  0.69776700  0.50000000  1
  O  O16  1  0.19776700  0.30223300  0.50000000  1
  O  O17  1  0.30223300  0.80223300  0.50000000  1
  O  O18  1  0.00000000  0.00000000  0.75000000  1
  O  O19  1  0.50000000  0.50000000  0.75000000  1
