# generated using pymatgen
data_LiV(PO3)4
_symmetry_space_group_name_H-M   'P 1'
_cell_length_a   16.96461800
_cell_length_b   12.10192400
_cell_length_c   5.24603725
_cell_angle_alpha   90.00000000
_cell_angle_beta   100.33375788
_cell_angle_gamma   90.00000000
_symmetry_Int_Tables_number   1
_chemical_formula_structural   LiV(PO3)4
_chemical_formula_sum   'Li4 V4 P16 O48'
_cell_volume   1059.56511893
_cell_formula_units_Z   4
loop_
 _symmetry_equiv_pos_site_id
 _symmetry_equiv_pos_as_xyz
  1  'x, y, z'
loop_
 _atom_site_type_symbol
 _atom_site_label
 _atom_site_symmetry_multiplicity
 _atom_site_fract_x
 _atom_site_fract_y
 _atom_site_fract_z
 _atom_site_occupancy
  Li  Li0  1  0.42918000  0.00000000  0.40245000  1
  Li  Li1  1  0.57082000  0.00000000  0.59755000  1
  Li  Li2  1  0.92918000  0.50000000  0.40245000  1
  Li  Li3  1  0.07082000  0.50000000  0.59755000  1
  V  V4  1  0.25000000  0.25000000  0.00000000  1
  V  V5  1  0.25000000  0.75000000  0.00000000  1
  V  V6  1  0.75000000  0.75000000  0.00000000  1
  V  V7  1  0.75000000  0.25000000  0.00000000  1
  P  P8  1  0.18219050  0.87866050  0.46995900  1
  P  P9  1  0.57566950  0.79090850  0.17802700  1
  P  P10  1  0.81780950  0.12133950  0.53004100  1
  P  P11  1  0.81780950  0.87866050  0.53004100  1
  P  P12  1  0.18219050  0.12133950  0.46995900  1
  P  P13  1  0.57566950  0.20909150  0.17802700  1
  P  P14  1  0.42433050  0.79090850  0.82197300  1
  P  P15  1  0.42433050  0.20909150  0.82197300  1
  P  P16  1  0.68219050  0.37866050  0.46995900  1
  P  P17  1  0.07566950  0.29090850  0.17802700  1
  P  P18  1  0.31780950  0.62133950  0.53004100  1
  P  P19  1  0.31780950  0.37866050  0.53004100  1
  P  P20  1  0.68219050  0.62133950  0.46995900  1
  P  P21  1  0.07566950  0.70909150  0.17802700  1
  P  P22  1  0.92433050  0.29090850  0.82197300  1
  P  P23  1  0.92433050  0.70909150  0.82197300  1
  O  O24  1  0.79565750  0.12669250  0.23891600  1
  O  O25  1  0.60199800  0.69102000  0.37996700  1
  O  O26  1  0.50000000  0.26815500  0.00000000  1
  O  O27  1  0.20434250  0.87330750  0.76108400  1
  O  O28  1  0.20434250  0.12669250  0.76108400  1
  O  O29  1  0.75385350  0.85079250  0.68443800  1
  O  O30  1  0.79565750  0.87330750  0.23891600  1
  O  O31  1  0.60199800  0.30898000  0.37996700  1
  O  O32  1  0.39800200  0.30898000  0.62003300  1
  O  O33  1  0.36078400  0.19316900  0.98947600  1
  O  O34  1  0.85308100  0.00000000  0.60774100  1
  O  O35  1  0.24614650  0.14920750  0.31556200  1
  O  O36  1  0.63921600  0.80683100  0.01052400  1
  O  O37  1  0.44953450  0.88776450  0.68252300  1
  O  O38  1  0.63921600  0.19316900  0.01052400  1
  O  O39  1  0.39800200  0.69102000  0.62003300  1
  O  O40  1  0.36078400  0.80683100  0.98947600  1
  O  O41  1  0.50000000  0.73184500  0.00000000  1
  O  O42  1  0.24614650  0.85079250  0.31556200  1
  O  O43  1  0.55046550  0.11223550  0.31747700  1
  O  O44  1  0.75385350  0.14920750  0.68443800  1
  O  O45  1  0.44953450  0.11223550  0.68252300  1
  O  O46  1  0.55046550  0.88776450  0.31747700  1
  O  O47  1  0.14691900  0.00000000  0.39225900  1
  O  O48  1  0.29565750  0.62669250  0.23891600  1
  O  O49  1  0.10199800  0.19102000  0.37996700  1
  O  O50  1  0.00000000  0.76815500  0.00000000  1
  O  O51  1  0.70434250  0.37330750  0.76108400  1
  O  O52  1  0.70434250  0.62669250  0.76108400  1
  O  O53  1  0.25385350  0.35079250  0.68443800  1
  O  O54  1  0.29565750  0.37330750  0.23891600  1
  O  O55  1  0.10199800  0.80898000  0.37996700  1
  O  O56  1  0.89800200  0.80898000  0.62003300  1
  O  O57  1  0.86078400  0.69316900  0.98947600  1
  O  O58  1  0.35308100  0.50000000  0.60774100  1
  O  O59  1  0.74614650  0.64920750  0.31556200  1
  O  O60  1  0.13921600  0.30683100  0.01052400  1
  O  O61  1  0.94953450  0.38776450  0.68252300  1
  O  O62  1  0.13921600  0.69316900  0.01052400  1
  O  O63  1  0.89800200  0.19102000  0.62003300  1
  O  O64  1  0.86078400  0.30683100  0.98947600  1
  O  O65  1  0.00000000  0.23184500  0.00000000  1
  O  O66  1  0.74614650  0.35079250  0.31556200  1
  O  O67  1  0.05046550  0.61223550  0.31747700  1
  O  O68  1  0.25385350  0.64920750  0.68443800  1
  O  O69  1  0.94953450  0.61223550  0.68252300  1
  O  O70  1  0.05046550  0.38776450  0.31747700  1
  O  O71  1  0.64691900  0.50000000  0.39225900  1
