# generated using pymatgen
data_KAlO
_symmetry_space_group_name_H-M   'P 1'
_cell_length_a   9.01176000
_cell_length_b   5.41740200
_cell_length_c   9.67984374
_cell_angle_alpha   90.00000000
_cell_angle_beta   109.95886978
_cell_angle_gamma   90.00000000
_symmetry_Int_Tables_number   1
_chemical_formula_structural   KAlO
_chemical_formula_sum   'K8 Al8 O8'
_cell_volume   444.18939863
_cell_formula_units_Z   8
loop_
 _symmetry_equiv_pos_site_id
 _symmetry_equiv_pos_as_xyz
  1  'x, y, z'
loop_
 _atom_site_type_symbol
 _atom_site_label
 _atom_site_symmetry_multiplicity
 _atom_site_fract_x
 _atom_site_fract_y
 _atom_site_fract_z
 _atom_site_occupancy
  K  K0  1  0.81088600  0.77195700  0.18764600  1
  K  K1  1  0.81088600  0.22804300  0.68764600  1
  K  K2  1  0.68686100  0.26473900  0.31115500  1
  K  K3  1  0.68686100  0.73526100  0.81115500  1
  K  K4  1  0.31088600  0.27195700  0.18764600  1
  K  K5  1  0.31088600  0.72804300  0.68764600  1
  K  K6  1  0.18686100  0.76473900  0.31115500  1
  K  K7  1  0.18686100  0.23526100  0.81115500  1
  Al  Al8  1  0.42084550  0.77735750  0.04909700  1
  Al  Al9  1  0.92084550  0.72264250  0.54909700  1
  Al  Al10  1  0.57222950  0.77520950  0.44550200  1
  Al  Al11  1  0.07222950  0.72479050  0.94550200  1
  Al  Al12  1  0.92084550  0.27735750  0.04909700  1
  Al  Al13  1  0.42084550  0.22264250  0.54909700  1
  Al  Al14  1  0.07222950  0.27520950  0.44550200  1
  Al  Al15  1  0.57222950  0.22479050  0.94550200  1
  O  O16  1  0.51604300  0.78017100  0.24697200  1
  O  O17  1  0.96963600  0.01435700  0.48612800  1
  O  O18  1  0.46963600  0.48564300  0.98612800  1
  O  O19  1  0.01604300  0.71982900  0.74697200  1
  O  O20  1  0.01604300  0.28017100  0.24697200  1
  O  O21  1  0.46963600  0.51435700  0.48612800  1
  O  O22  1  0.96963600  0.98564300  0.98612800  1
  O  O23  1  0.51604300  0.21982900  0.74697200  1
