# generated using pymatgen
data_Er10Ti6O27
_symmetry_space_group_name_H-M   'P 1'
_cell_length_a   12.74742200
_cell_length_b   7.56666000
_cell_length_c   12.12584449
_cell_angle_alpha   90.00000000
_cell_angle_beta   112.03355571
_cell_angle_gamma   90.00000000
_symmetry_Int_Tables_number   1
_chemical_formula_structural   Er10Ti6O27
_chemical_formula_sum   'Er20 Ti12 O54'
_cell_volume   1084.18049008
_cell_formula_units_Z   2
loop_
 _symmetry_equiv_pos_site_id
 _symmetry_equiv_pos_as_xyz
  1  'x, y, z'
loop_
 _atom_site_type_symbol
 _atom_site_label
 _atom_site_symmetry_multiplicity
 _atom_site_fract_x
 _atom_site_fract_y
 _atom_site_fract_z
 _atom_site_occupancy
  Er  Er0  1  0.74660450  0.73594950  0.01819100  1
  Er  Er1  1  0.24660450  0.76405050  0.01819100  1
  Er  Er2  1  0.49969550  0.22135850  0.24692100  1
  Er  Er3  1  0.99205300  0.25757500  0.75100700  1
  Er  Er4  1  0.73243200  0.00000000  0.24308400  1
  Er  Er5  1  0.99493700  0.00000000  0.47977800  1
  Er  Er6  1  0.49969550  0.77864150  0.24692100  1
  Er  Er7  1  0.75429800  0.50000000  0.75440000  1
  Er  Er8  1  0.99205300  0.74242500  0.75100700  1
  Er  Er9  1  0.24059100  0.50000000  0.74977600  1
  Er  Er10  1  0.24660450  0.23594950  0.01819100  1
  Er  Er11  1  0.74660450  0.26405050  0.01819100  1
  Er  Er12  1  0.99969550  0.72135850  0.24692100  1
  Er  Er13  1  0.49205300  0.75757500  0.75100700  1
  Er  Er14  1  0.23243200  0.50000000  0.24308400  1
  Er  Er15  1  0.49493700  0.50000000  0.47977800  1
  Er  Er16  1  0.99969550  0.27864150  0.24692100  1
  Er  Er17  1  0.25429800  0.00000000  0.75440000  1
  Er  Er18  1  0.49205300  0.24242500  0.75100700  1
  Er  Er19  1  0.74059100  0.00000000  0.74977600  1
  Ti  Ti20  1  0.50263800  0.50000000  0.00340600  1
  Ti  Ti21  1  0.26084150  0.75558450  0.50023800  1
  Ti  Ti22  1  0.50241900  0.00000000  0.48971900  1
  Ti  Ti23  1  0.76084150  0.74441550  0.50023800  1
  Ti  Ti24  1  0.00880600  0.50000000  0.98385600  1
  Ti  Ti25  1  0.76087700  0.50000000  0.28020300  1
  Ti  Ti26  1  0.00263800  0.00000000  0.00340600  1
  Ti  Ti27  1  0.76084150  0.25558450  0.50023800  1
  Ti  Ti28  1  0.00241900  0.50000000  0.48971900  1
  Ti  Ti29  1  0.26084150  0.24441550  0.50023800  1
  Ti  Ti30  1  0.50880600  0.00000000  0.98385600  1
  Ti  Ti31  1  0.26087700  0.00000000  0.28020300  1
  O  O32  1  0.42966050  0.33642450  0.06510900  1
  O  O33  1  0.42006500  0.00000000  0.30709800  1
  O  O34  1  0.54774000  0.00000000  0.16181900  1
  O  O35  1  0.42966050  0.66357550  0.06510900  1
  O  O36  1  0.67682000  0.31659800  0.31404800  1
  O  O37  1  0.42763850  0.70427250  0.55361100  1
  O  O38  1  0.75701400  0.00000000  0.43771400  1
  O  O39  1  0.33147900  0.71272900  0.22941100  1
  O  O40  1  0.93691400  0.00000000  0.83141600  1
  O  O41  1  0.69431500  0.00000000  0.04408300  1
  O  O42  1  0.67682000  0.68340200  0.31404800  1
  O  O43  1  0.83147900  0.78727100  0.22941100  1
  O  O44  1  0.92763850  0.79572750  0.55361100  1
  O  O45  1  0.57887100  0.80643700  0.45607900  1
  O  O46  1  0.68195900  0.73500800  0.81577700  1
  O  O47  1  0.84893000  0.50000000  0.97039200  1
  O  O48  1  0.79022400  0.77609600  0.66065000  1
  O  O49  1  0.67561200  0.50000000  0.54917100  1
  O  O50  1  0.17528900  0.00000000  0.09897200  1
  O  O51  1  0.18195900  0.76499200  0.81577700  1
  O  O52  1  0.07887100  0.69356300  0.45607900  1
  O  O53  1  0.79022400  0.22390400  0.66065000  1
  O  O54  1  0.83405100  0.50000000  0.46614100  1
  O  O55  1  0.05153950  0.73409050  0.95325300  1
  O  O56  1  0.93373700  0.50000000  0.80039200  1
  O  O57  1  0.05706200  0.50000000  0.65749000  1
  O  O58  1  0.05153950  0.26590950  0.95325300  1
  O  O59  1  0.92966050  0.83642450  0.06510900  1
  O  O60  1  0.92006500  0.50000000  0.30709800  1
  O  O61  1  0.04774000  0.50000000  0.16181900  1
  O  O62  1  0.92966050  0.16357550  0.06510900  1
  O  O63  1  0.17682000  0.81659800  0.31404800  1
  O  O64  1  0.92763850  0.20427250  0.55361100  1
  O  O65  1  0.25701400  0.50000000  0.43771400  1
  O  O66  1  0.83147900  0.21272900  0.22941100  1
  O  O67  1  0.43691400  0.50000000  0.83141600  1
  O  O68  1  0.19431500  0.50000000  0.04408300  1
  O  O69  1  0.17682000  0.18340200  0.31404800  1
  O  O70  1  0.33147900  0.28727100  0.22941100  1
  O  O71  1  0.42763850  0.29572750  0.55361100  1
  O  O72  1  0.07887100  0.30643700  0.45607900  1
  O  O73  1  0.18195900  0.23500800  0.81577700  1
  O  O74  1  0.34893000  0.00000000  0.97039200  1
  O  O75  1  0.29022400  0.27609600  0.66065000  1
  O  O76  1  0.17561200  0.00000000  0.54917100  1
  O  O77  1  0.67528900  0.50000000  0.09897200  1
  O  O78  1  0.68195900  0.26499200  0.81577700  1
  O  O79  1  0.57887100  0.19356300  0.45607900  1
  O  O80  1  0.29022400  0.72390400  0.66065000  1
  O  O81  1  0.33405100  0.00000000  0.46614100  1
  O  O82  1  0.55153950  0.23409050  0.95325300  1
  O  O83  1  0.43373700  0.00000000  0.80039200  1
  O  O84  1  0.55706200  0.00000000  0.65749000  1
  O  O85  1  0.55153950  0.76590950  0.95325300  1
