# generated using pymatgen
data_Sr(SmS2)2
_symmetry_space_group_name_H-M   'P 1'
_cell_length_a   8.63405800
_cell_length_b   8.63405800
_cell_length_c   8.61289400
_cell_angle_alpha   90.00000000
_cell_angle_beta   90.00000000
_cell_angle_gamma   90.00000000
_symmetry_Int_Tables_number   1
_chemical_formula_structural   Sr(SmS2)2
_chemical_formula_sum   'Sr4 Sm8 S16'
_cell_volume   642.06504338
_cell_formula_units_Z   4
loop_
 _symmetry_equiv_pos_site_id
 _symmetry_equiv_pos_as_xyz
  1  'x, y, z'
loop_
 _atom_site_type_symbol
 _atom_site_label
 _atom_site_symmetry_multiplicity
 _atom_site_fract_x
 _atom_site_fract_y
 _atom_site_fract_z
 _atom_site_occupancy
  Sr  Sr0  1  0.00000000  0.00000000  0.50000000  1
  Sr  Sr1  1  0.50000000  0.00000000  0.75000000  1
  Sr  Sr2  1  0.50000000  0.50000000  0.00000000  1
  Sr  Sr3  1  0.00000000  0.50000000  0.25000000  1
  Sm  Sm4  1  0.87399600  0.75000000  0.87500000  1
  Sm  Sm5  1  0.75000000  0.37399600  0.62500000  1
  Sm  Sm6  1  0.62600400  0.75000000  0.37500000  1
  Sm  Sm7  1  0.75000000  0.12600400  0.12500000  1
  Sm  Sm8  1  0.37399600  0.25000000  0.37500000  1
  Sm  Sm9  1  0.25000000  0.87399600  0.12500000  1
  Sm  Sm10  1  0.12600400  0.25000000  0.87500000  1
  Sm  Sm11  1  0.25000000  0.62600400  0.62500000  1
  S  S12  1  0.07544100  0.17260200  0.18974500  1
  S  S13  1  0.82739800  0.42455900  0.93974500  1
  S  S14  1  0.67260200  0.07544100  0.43974500  1
  S  S15  1  0.67260200  0.42455900  0.31025500  1
  S  S16  1  0.07544100  0.32739800  0.56025500  1
  S  S17  1  0.42455900  0.32739800  0.68974500  1
  S  S18  1  0.82739800  0.07544100  0.81025500  1
  S  S19  1  0.42455900  0.17260200  0.06025500  1
  S  S20  1  0.57544100  0.67260200  0.68974500  1
  S  S21  1  0.32739800  0.92455900  0.43974500  1
  S  S22  1  0.17260200  0.57544100  0.93974500  1
  S  S23  1  0.17260200  0.92455900  0.81025500  1
  S  S24  1  0.57544100  0.82739800  0.06025500  1
  S  S25  1  0.92455900  0.82739800  0.18974500  1
  S  S26  1  0.32739800  0.57544100  0.31025500  1
  S  S27  1  0.92455900  0.67260200  0.56025500  1
