# generated using pymatgen
data_Sr(ErS2)2
_symmetry_space_group_name_H-M   'P 1'
_cell_length_a   8.49314200
_cell_length_b   8.49314200
_cell_length_c   8.47801400
_cell_angle_alpha   90.00000000
_cell_angle_beta   90.00000000
_cell_angle_gamma   90.00000000
_symmetry_Int_Tables_number   1
_chemical_formula_structural   Sr(ErS2)2
_chemical_formula_sum   'Sr4 Er8 S16'
_cell_volume   611.54849250
_cell_formula_units_Z   4
loop_
 _symmetry_equiv_pos_site_id
 _symmetry_equiv_pos_as_xyz
  1  'x, y, z'
loop_
 _atom_site_type_symbol
 _atom_site_label
 _atom_site_symmetry_multiplicity
 _atom_site_fract_x
 _atom_site_fract_y
 _atom_site_fract_z
 _atom_site_occupancy
  Sr  Sr0  1  0.00000000  0.00000000  0.50000000  1
  Sr  Sr1  1  0.50000000  0.00000000  0.75000000  1
  Sr  Sr2  1  0.50000000  0.50000000  0.00000000  1
  Sr  Sr3  1  0.00000000  0.50000000  0.25000000  1
  Er  Er4  1  0.38186600  0.25000000  0.37500000  1
  Er  Er5  1  0.61813400  0.75000000  0.37500000  1
  Er  Er6  1  0.75000000  0.38186600  0.62500000  1
  Er  Er7  1  0.25000000  0.61813400  0.62500000  1
  Er  Er8  1  0.88186600  0.75000000  0.87500000  1
  Er  Er9  1  0.11813400  0.25000000  0.87500000  1
  Er  Er10  1  0.25000000  0.88186600  0.12500000  1
  Er  Er11  1  0.75000000  0.11813400  0.12500000  1
  S  S12  1  0.07235350  0.17271550  0.18293650  1
  S  S13  1  0.07235350  0.32728450  0.56706350  1
  S  S14  1  0.67271550  0.07235350  0.43293650  1
  S  S15  1  0.67271550  0.42764650  0.31706350  1
  S  S16  1  0.42764650  0.32728450  0.68293650  1
  S  S17  1  0.82728450  0.07235350  0.81706350  1
  S  S18  1  0.42764650  0.17271550  0.06706350  1
  S  S19  1  0.82728450  0.42764650  0.93293650  1
  S  S20  1  0.57235350  0.67271550  0.68293650  1
  S  S21  1  0.57235350  0.82728450  0.06706350  1
  S  S22  1  0.17271550  0.57235350  0.93293650  1
  S  S23  1  0.17271550  0.92764650  0.81706350  1
  S  S24  1  0.92764650  0.82728450  0.18293650  1
  S  S25  1  0.32728450  0.57235350  0.31706350  1
  S  S26  1  0.92764650  0.67271550  0.56706350  1
  S  S27  1  0.32728450  0.92764650  0.43293650  1
