# generated using pymatgen
data_Ca(LaTe2)2
_symmetry_space_group_name_H-M   'P 1'
_cell_length_a   9.64167000
_cell_length_b   9.64167000
_cell_length_c   9.75483200
_cell_angle_alpha   90.00000000
_cell_angle_beta   90.00000000
_cell_angle_gamma   90.00000000
_symmetry_Int_Tables_number   1
_chemical_formula_structural   Ca(LaTe2)2
_chemical_formula_sum   'Ca4 La8 Te16'
_cell_volume   906.82674521
_cell_formula_units_Z   4
loop_
 _symmetry_equiv_pos_site_id
 _symmetry_equiv_pos_as_xyz
  1  'x, y, z'
loop_
 _atom_site_type_symbol
 _atom_site_label
 _atom_site_symmetry_multiplicity
 _atom_site_fract_x
 _atom_site_fract_y
 _atom_site_fract_z
 _atom_site_occupancy
  Ca  Ca0  1  0.00000000  0.50000000  0.25000000  1
  Ca  Ca1  1  0.00000000  0.00000000  0.00000000  1
  Ca  Ca2  1  0.50000000  0.00000000  0.75000000  1
  Ca  Ca3  1  0.50000000  0.50000000  0.50000000  1
  La  La4  1  0.25000000  0.87306200  0.37500000  1
  La  La5  1  0.37306200  0.25000000  0.12500000  1
  La  La6  1  0.25000000  0.62693800  0.87500000  1
  La  La7  1  0.12693800  0.25000000  0.62500000  1
  La  La8  1  0.75000000  0.37306200  0.87500000  1
  La  La9  1  0.87306200  0.75000000  0.62500000  1
  La  La10  1  0.75000000  0.12693800  0.37500000  1
  La  La11  1  0.62693800  0.75000000  0.12500000  1
  Te  Te12  1  0.07467400  0.32214600  0.94856500  1
  Te  Te13  1  0.07467400  0.17785400  0.30143500  1
  Te  Te14  1  0.32214600  0.57467400  0.19856500  1
  Te  Te15  1  0.17785400  0.92532600  0.69856500  1
  Te  Te16  1  0.42532600  0.17785400  0.44856500  1
  Te  Te17  1  0.67785400  0.07467400  0.05143500  1
  Te  Te18  1  0.82214600  0.42532600  0.55143500  1
  Te  Te19  1  0.42532600  0.32214600  0.80143500  1
  Te  Te20  1  0.57467400  0.82214600  0.44856500  1
  Te  Te21  1  0.57467400  0.67785400  0.80143500  1
  Te  Te22  1  0.82214600  0.07467400  0.69856500  1
  Te  Te23  1  0.67785400  0.42532600  0.19856500  1
  Te  Te24  1  0.92532600  0.67785400  0.94856500  1
  Te  Te25  1  0.17785400  0.57467400  0.55143500  1
  Te  Te26  1  0.32214600  0.92532600  0.05143500  1
  Te  Te27  1  0.92532600  0.82214600  0.30143500  1
