# generated using pymatgen
data_RbAg7S4
_symmetry_space_group_name_H-M   'P 1'
_cell_length_a   11.21437600
_cell_length_b   11.21437600
_cell_length_c   8.52521000
_cell_angle_alpha   90.00000000
_cell_angle_beta   90.00000000
_cell_angle_gamma   90.00000000
_symmetry_Int_Tables_number   1
_chemical_formula_structural   RbAg7S4
_chemical_formula_sum   'Rb4 Ag28 S16'
_cell_volume   1072.14941288
_cell_formula_units_Z   4
loop_
 _symmetry_equiv_pos_site_id
 _symmetry_equiv_pos_as_xyz
  1  'x, y, z'
loop_
 _atom_site_type_symbol
 _atom_site_label
 _atom_site_symmetry_multiplicity
 _atom_site_fract_x
 _atom_site_fract_y
 _atom_site_fract_z
 _atom_site_occupancy
  Rb  Rb0  1  0.00000000  0.50000000  0.12428700  1
  Rb  Rb1  1  0.50000000  0.00000000  0.87571300  1
  Rb  Rb2  1  0.00000000  0.50000000  0.62368000  1
  Rb  Rb3  1  0.50000000  0.00000000  0.37632000  1
  Ag  Ag4  1  0.01893700  0.86288300  0.12304000  1
  Ag  Ag5  1  0.13711700  0.01893700  0.87696000  1
  Ag  Ag6  1  0.86288300  0.98106300  0.87696000  1
  Ag  Ag7  1  0.48106300  0.63711700  0.87696000  1
  Ag  Ag8  1  0.51893700  0.36288300  0.87696000  1
  Ag  Ag9  1  0.14217300  0.04034300  0.38368900  1
  Ag  Ag10  1  0.85782700  0.95965700  0.38368900  1
  Ag  Ag11  1  0.45965700  0.64217300  0.38368900  1
  Ag  Ag12  1  0.95965700  0.14217300  0.61631100  1
  Ag  Ag13  1  0.35782700  0.45965700  0.61631100  1
  Ag  Ag14  1  0.64217300  0.54034300  0.61631100  1
  Ag  Ag15  1  0.04034300  0.85782700  0.61631100  1
  Ag  Ag16  1  0.63711700  0.51893700  0.12304000  1
  Ag  Ag17  1  0.36288300  0.48106300  0.12304000  1
  Ag  Ag18  1  0.98106300  0.13711700  0.12304000  1
  Ag  Ag19  1  0.22757200  0.21158800  0.66134400  1
  Ag  Ag20  1  0.28841200  0.72757200  0.66134400  1
  Ag  Ag21  1  0.71158800  0.27242800  0.66134400  1
  Ag  Ag22  1  0.77242800  0.78841200  0.66134400  1
  Ag  Ag23  1  0.27242800  0.28841200  0.33865600  1
  Ag  Ag24  1  0.21158800  0.77242800  0.33865600  1
  Ag  Ag25  1  0.78841200  0.22757200  0.33865600  1
  Ag  Ag26  1  0.72757200  0.71158800  0.33865600  1
  Ag  Ag27  1  0.75000000  0.25000000  0.00000000  1
  Ag  Ag28  1  0.25000000  0.25000000  0.00000000  1
  Ag  Ag29  1  0.75000000  0.75000000  0.00000000  1
  Ag  Ag30  1  0.25000000  0.75000000  0.00000000  1
  Ag  Ag31  1  0.54034300  0.35782700  0.38368900  1
  S  S32  1  0.75183800  0.05455700  0.62440700  1
  S  S33  1  0.24295300  0.94203800  0.13275100  1
  S  S34  1  0.55796200  0.74295300  0.13275100  1
  S  S35  1  0.44203800  0.25704700  0.13275100  1
  S  S36  1  0.44544300  0.25183800  0.62440700  1
  S  S37  1  0.55455700  0.74816200  0.62440700  1
  S  S38  1  0.24816200  0.94544300  0.62440700  1
  S  S39  1  0.74816200  0.44544300  0.37559300  1
  S  S40  1  0.05455700  0.24816200  0.37559300  1
  S  S41  1  0.75704700  0.05796200  0.13275100  1
  S  S42  1  0.94544300  0.75183800  0.37559300  1
  S  S43  1  0.74295300  0.44203800  0.86724900  1
  S  S44  1  0.05796200  0.24295300  0.86724900  1
  S  S45  1  0.94203800  0.75704700  0.86724900  1
  S  S46  1  0.25704700  0.55796200  0.86724900  1
  S  S47  1  0.25183800  0.55455700  0.37559300  1
