# generated using pymatgen
data_NaBF4
_symmetry_space_group_name_H-M   'P 1'
_cell_length_a   6.29941800
_cell_length_b   6.93348600
_cell_length_c   6.91762400
_cell_angle_alpha   90.00000000
_cell_angle_beta   90.00000000
_cell_angle_gamma   90.00000000
_symmetry_Int_Tables_number   1
_chemical_formula_structural   NaBF4
_chemical_formula_sum   'Na4 B4 F16'
_cell_volume   302.14055508
_cell_formula_units_Z   4
loop_
 _symmetry_equiv_pos_site_id
 _symmetry_equiv_pos_as_xyz
  1  'x, y, z'
loop_
 _atom_site_type_symbol
 _atom_site_label
 _atom_site_symmetry_multiplicity
 _atom_site_fract_x
 _atom_site_fract_y
 _atom_site_fract_z
 _atom_site_occupancy
  Na  Na0  1  0.34760300  0.00000000  0.25000000  1
  Na  Na1  1  0.65239700  0.00000000  0.75000000  1
  Na  Na2  1  0.84760300  0.50000000  0.25000000  1
  Na  Na3  1  0.15239700  0.50000000  0.75000000  1
  B  B4  1  0.84253200  0.00000000  0.25000000  1
  B  B5  1  0.15746800  0.00000000  0.75000000  1
  B  B6  1  0.34253200  0.50000000  0.25000000  1
  B  B7  1  0.65746800  0.50000000  0.75000000  1
  F  F8  1  0.70985100  0.00000000  0.41588600  1
  F  F9  1  0.29014900  0.00000000  0.91588600  1
  F  F10  1  0.70985100  0.00000000  0.08411400  1
  F  F11  1  0.29014900  0.00000000  0.58411400  1
  F  F12  1  0.52653250  0.33405350  0.75000000  1
  F  F13  1  0.47346750  0.66594650  0.25000000  1
  F  F14  1  0.52653250  0.66594650  0.75000000  1
  F  F15  1  0.47346750  0.33405350  0.25000000  1
  F  F16  1  0.20985100  0.50000000  0.41588600  1
  F  F17  1  0.79014900  0.50000000  0.91588600  1
  F  F18  1  0.20985100  0.50000000  0.08411400  1
  F  F19  1  0.79014900  0.50000000  0.58411400  1
  F  F20  1  0.02653250  0.83405350  0.75000000  1
  F  F21  1  0.97346750  0.16594650  0.25000000  1
  F  F22  1  0.02653250  0.16594650  0.75000000  1
  F  F23  1  0.97346750  0.83405350  0.25000000  1
