# generated using pymatgen
data_LiYF4
_symmetry_space_group_name_H-M   'P 1'
_cell_length_a   5.25346600
_cell_length_b   5.25346600
_cell_length_c   10.85936600
_cell_angle_alpha   90.00000000
_cell_angle_beta   90.00000000
_cell_angle_gamma   90.00000000
_symmetry_Int_Tables_number   1
_chemical_formula_structural   LiYF4
_chemical_formula_sum   'Li4 Y4 F16'
_cell_volume   299.70661074
_cell_formula_units_Z   4
loop_
 _symmetry_equiv_pos_site_id
 _symmetry_equiv_pos_as_xyz
  1  'x, y, z'
loop_
 _atom_site_type_symbol
 _atom_site_label
 _atom_site_symmetry_multiplicity
 _atom_site_fract_x
 _atom_site_fract_y
 _atom_site_fract_z
 _atom_site_occupancy
  Li  Li0  1  0.50000000  0.00000000  0.25000000  1
  Li  Li1  1  0.50000000  0.50000000  0.00000000  1
  Li  Li2  1  0.00000000  0.50000000  0.75000000  1
  Li  Li3  1  0.00000000  0.00000000  0.50000000  1
  Y  Y4  1  0.00000000  0.00000000  0.00000000  1
  Y  Y5  1  0.00000000  0.50000000  0.25000000  1
  Y  Y6  1  0.50000000  0.50000000  0.50000000  1
  Y  Y7  1  0.50000000  0.00000000  0.75000000  1
  F  F8  1  0.83371300  0.71769600  0.41881600  1
  F  F9  1  0.21769600  0.16628700  0.16881600  1
  F  F10  1  0.33371300  0.71769600  0.33118400  1
  F  F11  1  0.21769600  0.66628700  0.08118400  1
  F  F12  1  0.78230400  0.33371300  0.08118400  1
  F  F13  1  0.66628700  0.28230400  0.33118400  1
  F  F14  1  0.16628700  0.28230400  0.41881600  1
  F  F15  1  0.78230400  0.83371300  0.16881600  1
  F  F16  1  0.33371300  0.21769600  0.91881600  1
  F  F17  1  0.71769600  0.66628700  0.66881600  1
  F  F18  1  0.83371300  0.21769600  0.83118400  1
  F  F19  1  0.71769600  0.16628700  0.58118400  1
  F  F20  1  0.28230400  0.83371300  0.58118400  1
  F  F21  1  0.16628700  0.78230400  0.83118400  1
  F  F22  1  0.66628700  0.78230400  0.91881600  1
  F  F23  1  0.28230400  0.33371300  0.66881600  1
