# generated using pymatgen
data_K2Ta3Cl9
_symmetry_space_group_name_H-M   'P 1'
_cell_length_a   10.22740000
_cell_length_b   16.93147800
_cell_length_c   9.74115332
_cell_angle_alpha   90.00000000
_cell_angle_beta   115.02490235
_cell_angle_gamma   90.00000000
_symmetry_Int_Tables_number   1
_chemical_formula_structural   K2Ta3Cl9
_chemical_formula_sum   'K8 Ta12 Cl36'
_cell_volume   1528.47427655
_cell_formula_units_Z   4
loop_
 _symmetry_equiv_pos_site_id
 _symmetry_equiv_pos_as_xyz
  1  'x, y, z'
loop_
 _atom_site_type_symbol
 _atom_site_label
 _atom_site_symmetry_multiplicity
 _atom_site_fract_x
 _atom_site_fract_y
 _atom_site_fract_z
 _atom_site_occupancy
  K  K0  1  0.61025000  0.16052300  0.82579200  1
  K  K1  1  0.38975000  0.16052300  0.17420800  1
  K  K2  1  0.38975000  0.83947700  0.17420800  1
  K  K3  1  0.61025000  0.83947700  0.82579200  1
  K  K4  1  0.11025000  0.66052300  0.82579200  1
  K  K5  1  0.88975000  0.66052300  0.17420800  1
  K  K6  1  0.88975000  0.33947700  0.17420800  1
  K  K7  1  0.11025000  0.33947700  0.82579200  1
  Ta  Ta8  1  0.88180900  0.00000000  0.62652500  1
  Ta  Ta9  1  0.11819100  0.00000000  0.37347500  1
  Ta  Ta10  1  0.86775150  0.91439850  0.36166700  1
  Ta  Ta11  1  0.13224850  0.91439850  0.63833300  1
  Ta  Ta12  1  0.13224850  0.08560150  0.63833300  1
  Ta  Ta13  1  0.86775150  0.08560150  0.36166700  1
  Ta  Ta14  1  0.38180900  0.50000000  0.62652500  1
  Ta  Ta15  1  0.61819100  0.50000000  0.37347500  1
  Ta  Ta16  1  0.36775150  0.41439850  0.36166700  1
  Ta  Ta17  1  0.63224850  0.41439850  0.63833300  1
  Ta  Ta18  1  0.63224850  0.58560150  0.63833300  1
  Ta  Ta19  1  0.36775150  0.58560150  0.36166700  1
  Cl  Cl20  1  0.50000000  0.70495200  0.50000000  1
  Cl  Cl21  1  0.30270600  0.80529200  0.82017800  1
  Cl  Cl22  1  0.30270600  0.19470800  0.82017800  1
  Cl  Cl23  1  0.69729400  0.19470800  0.17982200  1
  Cl  Cl24  1  0.26823500  0.00000000  0.21560700  1
  Cl  Cl25  1  0.73176500  0.00000000  0.78439300  1
  Cl  Cl26  1  0.70176650  0.10328050  0.48578300  1
  Cl  Cl27  1  0.29823350  0.10328050  0.51421700  1
  Cl  Cl28  1  0.29823350  0.89671950  0.51421700  1
  Cl  Cl29  1  0.70176650  0.89671950  0.48578300  1
  Cl  Cl30  1  0.31814000  0.00000000  0.82856600  1
  Cl  Cl31  1  0.48228500  0.39781900  0.18547000  1
  Cl  Cl32  1  0.48228500  0.60218100  0.18547000  1
  Cl  Cl33  1  0.51771500  0.60218100  0.81453000  1
  Cl  Cl34  1  0.51771500  0.39781900  0.81453000  1
  Cl  Cl35  1  0.50000000  0.29504800  0.50000000  1
  Cl  Cl36  1  0.68186000  0.00000000  0.17143400  1
  Cl  Cl37  1  0.69729400  0.80529200  0.17982200  1
  Cl  Cl38  1  0.00000000  0.20495200  0.50000000  1
  Cl  Cl39  1  0.80270600  0.30529200  0.82017800  1
  Cl  Cl40  1  0.80270600  0.69470800  0.82017800  1
  Cl  Cl41  1  0.19729400  0.69470800  0.17982200  1
  Cl  Cl42  1  0.76823500  0.50000000  0.21560700  1
  Cl  Cl43  1  0.23176500  0.50000000  0.78439300  1
  Cl  Cl44  1  0.20176650  0.60328050  0.48578300  1
  Cl  Cl45  1  0.79823350  0.60328050  0.51421700  1
  Cl  Cl46  1  0.79823350  0.39671950  0.51421700  1
  Cl  Cl47  1  0.20176650  0.39671950  0.48578300  1
  Cl  Cl48  1  0.81814000  0.50000000  0.82856600  1
  Cl  Cl49  1  0.98228500  0.89781900  0.18547000  1
  Cl  Cl50  1  0.98228500  0.10218100  0.18547000  1
  Cl  Cl51  1  0.01771500  0.10218100  0.81453000  1
  Cl  Cl52  1  0.01771500  0.89781900  0.81453000  1
  Cl  Cl53  1  0.00000000  0.79504800  0.50000000  1
  Cl  Cl54  1  0.18186000  0.50000000  0.17143400  1
  Cl  Cl55  1  0.19729400  0.30529200  0.17982200  1
