# generated using pymatgen
data_SF4
_symmetry_space_group_name_H-M   'P 1'
_cell_length_a   5.08660400
_cell_length_b   5.08660400
_cell_length_c   6.76389200
_cell_angle_alpha   90.00000000
_cell_angle_beta   90.00000000
_cell_angle_gamma   90.00000000
_symmetry_Int_Tables_number   1
_chemical_formula_structural   SF4
_chemical_formula_sum   'S2 F8'
_cell_volume   175.00583193
_cell_formula_units_Z   2
loop_
 _symmetry_equiv_pos_site_id
 _symmetry_equiv_pos_as_xyz
  1  'x, y, z'
loop_
 _atom_site_type_symbol
 _atom_site_label
 _atom_site_symmetry_multiplicity
 _atom_site_fract_x
 _atom_site_fract_y
 _atom_site_fract_z
 _atom_site_occupancy
  S  S0  1  0.00000000  0.00000000  0.00000000  1
  S  S1  1  0.50000000  0.50000000  0.50000000  1
  F  F2  1  0.27734850  0.27734850  0.40220450  1
  F  F3  1  0.72265150  0.27734850  0.59779550  1
  F  F4  1  0.27734850  0.72265150  0.59779550  1
  F  F5  1  0.22265150  0.22265150  0.90220450  1
  F  F6  1  0.77734850  0.77734850  0.90220450  1
  F  F7  1  0.22265150  0.77734850  0.09779550  1
  F  F8  1  0.77734850  0.22265150  0.09779550  1
  F  F9  1  0.72265150  0.72265150  0.40220450  1
