# generated using pymatgen
data_Tm2MgS4
_symmetry_space_group_name_H-M   'P 1'
_cell_length_a   8.12106200
_cell_length_b   8.12106200
_cell_length_c   8.41160000
_cell_angle_alpha   90.00000000
_cell_angle_beta   90.00000000
_cell_angle_gamma   90.00000000
_symmetry_Int_Tables_number   1
_chemical_formula_structural   Tm2MgS4
_chemical_formula_sum   'Tm8 Mg4 S16'
_cell_volume   554.75888238
_cell_formula_units_Z   4
loop_
 _symmetry_equiv_pos_site_id
 _symmetry_equiv_pos_as_xyz
  1  'x, y, z'
loop_
 _atom_site_type_symbol
 _atom_site_label
 _atom_site_symmetry_multiplicity
 _atom_site_fract_x
 _atom_site_fract_y
 _atom_site_fract_z
 _atom_site_occupancy
  Tm  Tm0  1  0.25000000  0.86719400  0.37500000  1
  Tm  Tm1  1  0.36719400  0.25000000  0.12500000  1
  Tm  Tm2  1  0.25000000  0.63280600  0.87500000  1
  Tm  Tm3  1  0.13280600  0.25000000  0.62500000  1
  Tm  Tm4  1  0.75000000  0.36719400  0.87500000  1
  Tm  Tm5  1  0.86719400  0.75000000  0.62500000  1
  Tm  Tm6  1  0.75000000  0.13280600  0.37500000  1
  Tm  Tm7  1  0.63280600  0.75000000  0.12500000  1
  Mg  Mg8  1  0.00000000  0.50000000  0.25000000  1
  Mg  Mg9  1  0.00000000  0.00000000  0.00000000  1
  Mg  Mg10  1  0.50000000  0.00000000  0.75000000  1
  Mg  Mg11  1  0.50000000  0.50000000  0.50000000  1
  S  S12  1  0.69559450  0.06572550  0.06428250  1
  S  S13  1  0.19559450  0.93427450  0.68571750  1
  S  S14  1  0.06572550  0.30440550  0.93571750  1
  S  S15  1  0.06572550  0.19559450  0.31428250  1
  S  S16  1  0.30440550  0.56572550  0.18571750  1
  S  S17  1  0.43427450  0.19559450  0.43571750  1
  S  S18  1  0.80440550  0.43427450  0.56428250  1
  S  S19  1  0.43427450  0.30440550  0.81428250  1
  S  S20  1  0.19559450  0.56572550  0.56428250  1
  S  S21  1  0.69559450  0.43427450  0.18571750  1
  S  S22  1  0.56572550  0.80440550  0.43571750  1
  S  S23  1  0.56572550  0.69559450  0.81428250  1
  S  S24  1  0.80440550  0.06572550  0.68571750  1
  S  S25  1  0.93427450  0.69559450  0.93571750  1
  S  S26  1  0.30440550  0.93427450  0.06428250  1
  S  S27  1  0.93427450  0.80440550  0.31428250  1
