# generated using pymatgen
data_Sr(PrS2)2
_symmetry_space_group_name_H-M   'P 1'
_cell_length_a   8.74390800
_cell_length_b   8.74390800
_cell_length_c   8.74572400
_cell_angle_alpha   90.00000000
_cell_angle_beta   90.00000000
_cell_angle_gamma   90.00000000
_symmetry_Int_Tables_number   1
_chemical_formula_structural   Sr(PrS2)2
_chemical_formula_sum   'Sr4 Pr8 S16'
_cell_volume   668.66243669
_cell_formula_units_Z   4
loop_
 _symmetry_equiv_pos_site_id
 _symmetry_equiv_pos_as_xyz
  1  'x, y, z'
loop_
 _atom_site_type_symbol
 _atom_site_label
 _atom_site_symmetry_multiplicity
 _atom_site_fract_x
 _atom_site_fract_y
 _atom_site_fract_z
 _atom_site_occupancy
  Sr  Sr0  1  0.00000000  0.50000000  0.25000000  1
  Sr  Sr1  1  0.00000000  0.00000000  0.00000000  1
  Sr  Sr2  1  0.50000000  0.00000000  0.75000000  1
  Sr  Sr3  1  0.50000000  0.50000000  0.50000000  1
  Pr  Pr4  1  0.87269300  0.25000000  0.62500000  1
  Pr  Pr5  1  0.62730700  0.25000000  0.12500000  1
  Pr  Pr6  1  0.25000000  0.37269300  0.87500000  1
  Pr  Pr7  1  0.25000000  0.12730700  0.37500000  1
  Pr  Pr8  1  0.37269300  0.75000000  0.12500000  1
  Pr  Pr9  1  0.12730700  0.75000000  0.62500000  1
  Pr  Pr10  1  0.75000000  0.87269300  0.37500000  1
  Pr  Pr11  1  0.75000000  0.62730700  0.87500000  1
  S  S12  1  0.07599250  0.67318950  0.94253750  1
  S  S13  1  0.32681050  0.42400750  0.19253750  1
  S  S14  1  0.57599250  0.32681050  0.80746250  1
  S  S15  1  0.17318950  0.07599250  0.69253750  1
  S  S16  1  0.17318950  0.42400750  0.55746250  1
  S  S17  1  0.42400750  0.82681050  0.44253750  1
  S  S18  1  0.32681050  0.07599250  0.05746250  1
  S  S19  1  0.92400750  0.17318950  0.30746250  1
  S  S20  1  0.57599250  0.17318950  0.44253750  1
  S  S21  1  0.82681050  0.92400750  0.69253750  1
  S  S22  1  0.07599250  0.82681050  0.30746250  1
  S  S23  1  0.67318950  0.57599250  0.19253750  1
  S  S24  1  0.67318950  0.92400750  0.05746250  1
  S  S25  1  0.92400750  0.32681050  0.94253750  1
  S  S26  1  0.82681050  0.57599250  0.55746250  1
  S  S27  1  0.42400750  0.67318950  0.80746250  1
