# generated using pymatgen
data_Al2ZnO4
_symmetry_space_group_name_H-M   'P 1'
_cell_length_a   5.71031800
_cell_length_b   5.83350200
_cell_length_c   8.22719000
_cell_angle_alpha   90.00000000
_cell_angle_beta   90.00000000
_cell_angle_gamma   90.00000000
_symmetry_Int_Tables_number   1
_chemical_formula_structural   Al2ZnO4
_chemical_formula_sum   'Al8 Zn4 O16'
_cell_volume   274.05717229
_cell_formula_units_Z   4
loop_
 _symmetry_equiv_pos_site_id
 _symmetry_equiv_pos_as_xyz
  1  'x, y, z'
loop_
 _atom_site_type_symbol
 _atom_site_label
 _atom_site_symmetry_multiplicity
 _atom_site_fract_x
 _atom_site_fract_y
 _atom_site_fract_z
 _atom_site_occupancy
  Al  Al0  1  0.00000000  0.25000000  0.13531200  1
  Al  Al1  1  0.50000000  0.50000000  0.00000000  1
  Al  Al2  1  0.50000000  0.00000000  0.00000000  1
  Al  Al3  1  0.00000000  0.75000000  0.86468800  1
  Al  Al4  1  0.50000000  0.75000000  0.63531200  1
  Al  Al5  1  0.00000000  0.00000000  0.50000000  1
  Al  Al6  1  0.00000000  0.50000000  0.50000000  1
  Al  Al7  1  0.50000000  0.25000000  0.36468800  1
  Zn  Zn8  1  0.25000000  0.25000000  0.75000000  1
  Zn  Zn9  1  0.75000000  0.25000000  0.75000000  1
  Zn  Zn10  1  0.75000000  0.75000000  0.25000000  1
  Zn  Zn11  1  0.25000000  0.75000000  0.25000000  1
  O  O12  1  0.50000000  0.99545350  0.76803250  1
  O  O13  1  0.26510600  0.25000000  0.00731800  1
  O  O14  1  0.00000000  0.00454650  0.26803250  1
  O  O15  1  0.73489400  0.25000000  0.00731800  1
  O  O16  1  0.26510600  0.75000000  0.99268200  1
  O  O17  1  0.00000000  0.99545350  0.73196750  1
  O  O18  1  0.73489400  0.75000000  0.99268200  1
  O  O19  1  0.50000000  0.00454650  0.23196750  1
  O  O20  1  0.00000000  0.49545350  0.26803250  1
  O  O21  1  0.76510600  0.75000000  0.50731800  1
  O  O22  1  0.50000000  0.50454650  0.76803250  1
  O  O23  1  0.23489400  0.75000000  0.50731800  1
  O  O24  1  0.76510600  0.25000000  0.49268200  1
  O  O25  1  0.50000000  0.49545350  0.23196750  1
  O  O26  1  0.23489400  0.25000000  0.49268200  1
  O  O27  1  0.00000000  0.50454650  0.73196750  1
