# generated using pymatgen
data_Li7NbO6
_symmetry_space_group_name_H-M   'P 1'
_cell_length_a   5.61033754
_cell_length_b   5.61033754
_cell_length_c   14.77424890
_cell_angle_alpha   90.00000000
_cell_angle_beta   90.00000000
_cell_angle_gamma   120.00000000
_symmetry_Int_Tables_number   1
_chemical_formula_structural   Li7NbO6
_chemical_formula_sum   'Li21 Nb3 O18'
_cell_volume   402.73004025
_cell_formula_units_Z   3
loop_
 _symmetry_equiv_pos_site_id
 _symmetry_equiv_pos_as_xyz
  1  'x, y, z'
loop_
 _atom_site_type_symbol
 _atom_site_label
 _atom_site_symmetry_multiplicity
 _atom_site_fract_x
 _atom_site_fract_y
 _atom_site_fract_z
 _atom_site_occupancy
  Li  Li0  1  0.37919367  0.99048933  0.11423633  1
  Li  Li1  1  0.01681433  0.72951067  0.21878667  1
  Li  Li2  1  0.71269633  0.98318567  0.21878667  1
  Li  Li3  1  0.33333333  0.66666667  0.32129267  1
  Li  Li4  1  0.00951067  0.38870433  0.11423633  1
  Li  Li5  1  0.61129567  0.62080633  0.11423633  1
  Li  Li6  1  0.27048933  0.28730367  0.21878667  1
  Li  Li7  1  0.04586033  0.32382267  0.44756967  1
  Li  Li8  1  0.68348100  0.06284400  0.55212000  1
  Li  Li9  1  0.37936300  0.31651900  0.55212000  1
  Li  Li10  1  0.00000000  0.00000000  0.65462600  1
  Li  Li11  1  0.67617733  0.72203767  0.44756967  1
  Li  Li12  1  0.27796233  0.95413967  0.44756967  1
  Li  Li13  1  0.93715600  0.62063700  0.55212000  1
  Li  Li14  1  0.71252700  0.65715600  0.78090300  1
  Li  Li15  1  0.35014767  0.39617733  0.88545333  1
  Li  Li16  1  0.04602967  0.64985233  0.88545333  1
  Li  Li17  1  0.66666667  0.33333333  0.98795933  1
  Li  Li18  1  0.34284400  0.05537100  0.78090300  1
  Li  Li19  1  0.94462900  0.28747300  0.78090300  1
  Li  Li20  1  0.60382267  0.95397033  0.88545333  1
  Nb  Nb21  1  0.00000000  0.00000000  0.00021200  1
  Nb  Nb22  1  0.66666667  0.33333333  0.33354533  1
  Nb  Nb23  1  0.33333333  0.66666667  0.66687867  1
  O  O24  1  0.38787800  0.02066200  0.25145900  1
  O  O25  1  0.99072000  0.70515900  0.08087800  1
  O  O26  1  0.71443900  0.00928000  0.08087800  1
  O  O27  1  0.97933800  0.36721600  0.25145900  1
  O  O28  1  0.63278400  0.61212200  0.25145900  1
  O  O29  1  0.29484100  0.28556100  0.08087800  1
  O  O30  1  0.05454467  0.35399533  0.58479233  1
  O  O31  1  0.65738667  0.03849233  0.41421133  1
  O  O32  1  0.38110567  0.34261333  0.41421133  1
  O  O33  1  0.64600467  0.70054933  0.58479233  1
  O  O34  1  0.29945067  0.94545533  0.58479233  1
  O  O35  1  0.96150767  0.61889433  0.41421133  1
  O  O36  1  0.72121133  0.68732867  0.91812567  1
  O  O37  1  0.32405333  0.37182567  0.74754467  1
  O  O38  1  0.04777233  0.67594667  0.74754467  1
  O  O39  1  0.31267133  0.03388267  0.91812567  1
  O  O40  1  0.96611733  0.27878867  0.91812567  1
  O  O41  1  0.62817433  0.95222767  0.74754467  1
