# generated using pymatgen
data_Li3Co3(PO4)4
_symmetry_space_group_name_H-M   'P 1'
_cell_length_a   7.58353500
_cell_length_b   7.88955700
_cell_length_c   9.97414842
_cell_angle_alpha   90.00000000
_cell_angle_beta   93.89358240
_cell_angle_gamma   90.00000000
_symmetry_Int_Tables_number   1
_chemical_formula_structural   Li3Co3(PO4)4
_chemical_formula_sum   'Li6 Co6 P8 O32'
_cell_volume   595.38320909
_cell_formula_units_Z   2
loop_
 _symmetry_equiv_pos_site_id
 _symmetry_equiv_pos_as_xyz
  1  'x, y, z'
loop_
 _atom_site_type_symbol
 _atom_site_label
 _atom_site_symmetry_multiplicity
 _atom_site_fract_x
 _atom_site_fract_y
 _atom_site_fract_z
 _atom_site_occupancy
  Li  Li0  1  0.85104200  0.85951800  0.42355400  1
  Li  Li1  1  0.66441200  0.13269100  0.82295200  1
  Li  Li2  1  0.83764000  0.86179700  0.92849700  1
  Li  Li3  1  0.14895800  0.35951800  0.57644600  1
  Li  Li4  1  0.33558800  0.63269100  0.17704800  1
  Li  Li5  1  0.16236000  0.36179700  0.07150300  1
  Co  Co6  1  0.77383700  0.48967300  0.87478100  1
  Co  Co7  1  0.65142500  0.14614200  0.31758600  1
  Co  Co8  1  0.22616300  0.98967300  0.12521900  1
  Co  Co9  1  0.24527300  0.00612900  0.62236600  1
  Co  Co10  1  0.34857500  0.64614200  0.68241400  1
  Co  Co11  1  0.75472700  0.50612900  0.37763400  1
  P  P12  1  0.05911400  0.18003800  0.85584600  1
  P  P13  1  0.56162500  0.31768700  0.10135600  1
  P  P14  1  0.94993100  0.69840500  0.64410100  1
  P  P15  1  0.05006900  0.19840500  0.35589900  1
  P  P16  1  0.55386800  0.31064300  0.60922800  1
  P  P17  1  0.44613200  0.81064300  0.39077200  1
  P  P18  1  0.94088600  0.68003800  0.14415400  1
  P  P19  1  0.43837500  0.81768700  0.89864400  1
  O  O20  1  0.90548200  0.06021800  0.84646000  1
  O  O21  1  0.88939700  0.07620200  0.35005100  1
  O  O22  1  0.59918700  0.94045300  0.39932400  1
  O  O23  1  0.36567900  0.81220800  0.53370400  1
  O  O24  1  0.34137900  0.80360000  0.02832900  1
  O  O25  1  0.40081300  0.44045300  0.60067600  1
  O  O26  1  0.29272700  0.85590200  0.28797000  1
  O  O27  1  0.48547400  0.13211900  0.64337300  1
  O  O28  1  0.86501200  0.69306700  0.78149500  1
  O  O29  1  0.09451800  0.56021800  0.15354000  1
  O  O30  1  0.49162100  0.63552600  0.84370100  1
  O  O31  1  0.65862100  0.30360000  0.97167100  1
  O  O32  1  0.29344200  0.85313500  0.77507400  1
  O  O33  1  0.70727300  0.35590200  0.71203000  1
  O  O34  1  0.20892200  0.12575200  0.96529500  1
  O  O35  1  0.80441800  0.64239000  0.53595800  1
  O  O36  1  0.13498800  0.19306700  0.21850500  1
  O  O37  1  0.11060300  0.57620200  0.64994900  1
  O  O38  1  0.63432100  0.31220800  0.46629600  1
  O  O39  1  0.98879500  0.37767700  0.39966000  1
  O  O40  1  0.79107800  0.62575200  0.03470500  1
  O  O41  1  0.15176900  0.18765800  0.71930400  1
  O  O42  1  0.01120500  0.87767700  0.60034000  1
  O  O43  1  0.98849100  0.86443200  0.10669700  1
  O  O44  1  0.51452600  0.63211900  0.35662700  1
  O  O45  1  0.59051600  0.93693700  0.90759400  1
  O  O46  1  0.50837900  0.13552600  0.15629900  1
  O  O47  1  0.19558200  0.14239000  0.46404200  1
  O  O48  1  0.84823100  0.68765800  0.28069600  1
  O  O49  1  0.40948400  0.43693700  0.09240600  1
  O  O50  1  0.70655800  0.35313500  0.22492600  1
  O  O51  1  0.01150900  0.36443200  0.89330300  1
