# generated using pymatgen
data_Li2B2Se5
_symmetry_space_group_name_H-M   'P 1'
_cell_length_a   10.78586000
_cell_length_b   5.33444000
_cell_length_c   12.57834081
_cell_angle_alpha   90.00000000
_cell_angle_beta   110.09575215
_cell_angle_gamma   90.00000000
_symmetry_Int_Tables_number   1
_chemical_formula_structural   Li2B2Se5
_chemical_formula_sum   'Li8 B8 Se20'
_cell_volume   679.65409064
_cell_formula_units_Z   4
loop_
 _symmetry_equiv_pos_site_id
 _symmetry_equiv_pos_as_xyz
  1  'x, y, z'
loop_
 _atom_site_type_symbol
 _atom_site_label
 _atom_site_symmetry_multiplicity
 _atom_site_fract_x
 _atom_site_fract_y
 _atom_site_fract_z
 _atom_site_occupancy
  Li  Li0  1  0.37496750  0.51934650  0.06760900  1
  Li  Li1  1  0.62503250  0.51934650  0.43239100  1
  Li  Li2  1  0.62503250  0.48065350  0.93239100  1
  Li  Li3  1  0.37496750  0.48065350  0.56760900  1
  Li  Li4  1  0.87496750  0.01934650  0.06760900  1
  Li  Li5  1  0.12503250  0.01934650  0.43239100  1
  Li  Li6  1  0.12503250  0.98065350  0.93239100  1
  Li  Li7  1  0.87496750  0.98065350  0.56760900  1
  B  B8  1  0.35945750  0.05196850  0.29262600  1
  B  B9  1  0.14054250  0.55196850  0.20737400  1
  B  B10  1  0.64054250  0.94803150  0.70737400  1
  B  B11  1  0.85945750  0.44803150  0.79262600  1
  B  B12  1  0.85945750  0.55196850  0.29262600  1
  B  B13  1  0.64054250  0.05196850  0.20737400  1
  B  B14  1  0.14054250  0.44803150  0.70737400  1
  B  B15  1  0.35945750  0.94803150  0.79262600  1
  Se  Se16  1  0.50000000  0.74559300  0.75000000  1
  Se  Se17  1  0.50000000  0.25440700  0.25000000  1
  Se  Se18  1  0.25336450  0.82112550  0.16053700  1
  Se  Se19  1  0.24663550  0.32112550  0.33946300  1
  Se  Se20  1  0.74663550  0.17887450  0.83946300  1
  Se  Se21  1  0.75336450  0.67887450  0.66053700  1
  Se  Se22  1  0.43423850  0.83544450  0.43861800  1
  Se  Se23  1  0.06576150  0.33544450  0.06138200  1
  Se  Se24  1  0.56576150  0.16455550  0.56138200  1
  Se  Se25  1  0.93423850  0.66455550  0.93861800  1
  Se  Se26  1  0.00000000  0.24559300  0.75000000  1
  Se  Se27  1  0.00000000  0.75440700  0.25000000  1
  Se  Se28  1  0.75336450  0.32112550  0.16053700  1
  Se  Se29  1  0.74663550  0.82112550  0.33946300  1
  Se  Se30  1  0.24663550  0.67887450  0.83946300  1
  Se  Se31  1  0.25336450  0.17887450  0.66053700  1
  Se  Se32  1  0.93423850  0.33544450  0.43861800  1
  Se  Se33  1  0.56576150  0.83544450  0.06138200  1
  Se  Se34  1  0.06576150  0.66455550  0.56138200  1
  Se  Se35  1  0.43423850  0.16455550  0.93861800  1
