# generated using pymatgen
data_Ce2Y2O7
_symmetry_space_group_name_H-M   'P 1'
_cell_length_a   3.75973900
_cell_length_b   7.79788800
_cell_length_c   10.90622500
_cell_angle_alpha   90.00000000
_cell_angle_beta   90.00000000
_cell_angle_gamma   90.00000000
_symmetry_Int_Tables_number   1
_chemical_formula_structural   Ce2Y2O7
_chemical_formula_sum   'Ce4 Y4 O14'
_cell_volume   319.74896228
_cell_formula_units_Z   2
loop_
 _symmetry_equiv_pos_site_id
 _symmetry_equiv_pos_as_xyz
  1  'x, y, z'
loop_
 _atom_site_type_symbol
 _atom_site_label
 _atom_site_symmetry_multiplicity
 _atom_site_fract_x
 _atom_site_fract_y
 _atom_site_fract_z
 _atom_site_occupancy
  Ce  Ce0  1  0.00000000  0.25000000  0.74552000  1
  Ce  Ce1  1  0.00000000  0.75000000  0.25448000  1
  Ce  Ce2  1  0.50000000  0.00000000  0.00000000  1
  Ce  Ce3  1  0.50000000  0.50000000  0.00000000  1
  Y  Y4  1  0.50000000  0.50000000  0.50000000  1
  Y  Y5  1  0.00000000  0.75000000  0.76917200  1
  Y  Y6  1  0.50000000  0.00000000  0.50000000  1
  Y  Y7  1  0.00000000  0.25000000  0.23082800  1
  O  O8  1  0.00000000  0.45623200  0.37452600  1
  O  O9  1  0.50000000  0.75000000  0.13472600  1
  O  O10  1  0.50000000  0.25000000  0.12649800  1
  O  O11  1  0.00000000  0.51131000  0.12239400  1
  O  O12  1  0.00000000  0.48869000  0.87760600  1
  O  O13  1  0.00000000  0.01131000  0.87760600  1
  O  O14  1  0.50000000  0.25000000  0.86527400  1
  O  O15  1  0.50000000  0.75000000  0.87350200  1
  O  O16  1  0.50000000  0.25000000  0.60811400  1
  O  O17  1  0.00000000  0.54376800  0.62547400  1
  O  O18  1  0.00000000  0.95623200  0.62547400  1
  O  O19  1  0.00000000  0.04376800  0.37452600  1
  O  O20  1  0.50000000  0.75000000  0.39188600  1
  O  O21  1  0.00000000  0.98869000  0.12239400  1
