# generated using pymatgen
data_Pr(PO3)3
_symmetry_space_group_name_H-M   'P 1'
_cell_length_a   8.67205400
_cell_length_b   11.36456600
_cell_length_c   7.43230600
_cell_angle_alpha   90.00000000
_cell_angle_beta   90.00000000
_cell_angle_gamma   90.00000000
_symmetry_Int_Tables_number   1
_chemical_formula_structural   Pr(PO3)3
_chemical_formula_sum   'Pr4 P12 O36'
_cell_volume   732.48445201
_cell_formula_units_Z   4
loop_
 _symmetry_equiv_pos_site_id
 _symmetry_equiv_pos_as_xyz
  1  'x, y, z'
loop_
 _atom_site_type_symbol
 _atom_site_label
 _atom_site_symmetry_multiplicity
 _atom_site_fract_x
 _atom_site_fract_y
 _atom_site_fract_z
 _atom_site_occupancy
  Pr  Pr0  1  0.62661400  0.00000000  0.50000000  1
  Pr  Pr1  1  0.37338600  0.00000000  0.00000000  1
  Pr  Pr2  1  0.12661400  0.50000000  0.50000000  1
  Pr  Pr3  1  0.87338600  0.50000000  0.00000000  1
  P  P4  1  0.49159250  0.32459550  0.45303900  1
  P  P5  1  0.50840750  0.67540450  0.95303900  1
  P  P6  1  0.49159250  0.67540450  0.54696100  1
  P  P7  1  0.50840750  0.32459550  0.04696100  1
  P  P8  1  0.24875100  0.00000000  0.50000000  1
  P  P9  1  0.75124900  0.00000000  0.00000000  1
  P  P10  1  0.99159250  0.82459550  0.45303900  1
  P  P11  1  0.00840750  0.17540450  0.95303900  1
  P  P12  1  0.99159250  0.17540450  0.54696100  1
  P  P13  1  0.00840750  0.82459550  0.04696100  1
  P  P14  1  0.74875100  0.50000000  0.50000000  1
  P  P15  1  0.25124900  0.50000000  0.00000000  1
  O  O16  1  0.13924750  0.89113750  0.54093500  1
  O  O17  1  0.86075250  0.10886250  0.04093500  1
  O  O18  1  0.13924750  0.10886250  0.45906500  1
  O  O19  1  0.86075250  0.89113750  0.95906500  1
  O  O20  1  0.34625500  0.01829100  0.66713900  1
  O  O21  1  0.65374500  0.98170900  0.16713900  1
  O  O22  1  0.34625500  0.98170900  0.33286100  1
  O  O23  1  0.65374500  0.01829100  0.83286100  1
  O  O24  1  0.47713700  0.19584100  0.03722300  1
  O  O25  1  0.52286300  0.80415900  0.53722300  1
  O  O26  1  0.47713700  0.80415900  0.96277700  1
  O  O27  1  0.52286300  0.19584100  0.46277700  1
  O  O28  1  0.15222750  0.87272650  0.96439000  1
  O  O29  1  0.84777250  0.12727350  0.46439000  1
  O  O30  1  0.15222750  0.12727350  0.03561000  1
  O  O31  1  0.84777250  0.87272650  0.53561000  1
  O  O32  1  0.50000000  0.37327900  0.25000000  1
  O  O33  1  0.50000000  0.62672100  0.75000000  1
  O  O34  1  0.63924750  0.39113750  0.54093500  1
  O  O35  1  0.36075250  0.60886250  0.04093500  1
  O  O36  1  0.63924750  0.60886250  0.45906500  1
  O  O37  1  0.36075250  0.39113750  0.95906500  1
  O  O38  1  0.84625500  0.51829100  0.66713900  1
  O  O39  1  0.15374500  0.48170900  0.16713900  1
  O  O40  1  0.84625500  0.48170900  0.33286100  1
  O  O41  1  0.15374500  0.51829100  0.83286100  1
  O  O42  1  0.97713700  0.69584100  0.03722300  1
  O  O43  1  0.02286300  0.30415900  0.53722300  1
  O  O44  1  0.97713700  0.30415900  0.96277700  1
  O  O45  1  0.02286300  0.69584100  0.46277700  1
  O  O46  1  0.65222750  0.37272650  0.96439000  1
  O  O47  1  0.34777250  0.62727350  0.46439000  1
  O  O48  1  0.65222750  0.62727350  0.03561000  1
  O  O49  1  0.34777250  0.37272650  0.53561000  1
  O  O50  1  0.00000000  0.87327900  0.25000000  1
  O  O51  1  0.00000000  0.12672100  0.75000000  1
