# generated using pymatgen
data_Pr4Se3N2
_symmetry_space_group_name_H-M   'P 1'
_cell_length_a   13.28112000
_cell_length_b   10.31277400
_cell_length_c   6.55680975
_cell_angle_alpha   90.00000000
_cell_angle_beta   90.22542412
_cell_angle_gamma   90.00000000
_symmetry_Int_Tables_number   1
_chemical_formula_structural   Pr4Se3N2
_chemical_formula_sum   'Pr16 Se12 N8'
_cell_volume   898.04773584
_cell_formula_units_Z   4
loop_
 _symmetry_equiv_pos_site_id
 _symmetry_equiv_pos_as_xyz
  1  'x, y, z'
loop_
 _atom_site_type_symbol
 _atom_site_label
 _atom_site_symmetry_multiplicity
 _atom_site_fract_x
 _atom_site_fract_y
 _atom_site_fract_z
 _atom_site_occupancy
  Pr  Pr0  1  0.33521650  0.07952450  0.57215800  1
  Pr  Pr1  1  0.66478350  0.07952450  0.92784200  1
  Pr  Pr2  1  0.66478350  0.92047550  0.42784200  1
  Pr  Pr3  1  0.33521650  0.92047550  0.07215800  1
  Pr  Pr4  1  0.37350500  0.68336600  0.53009700  1
  Pr  Pr5  1  0.62649500  0.68336600  0.96990300  1
  Pr  Pr6  1  0.62649500  0.31663400  0.46990300  1
  Pr  Pr7  1  0.37350500  0.31663400  0.03009700  1
  Pr  Pr8  1  0.83521650  0.57952450  0.57215800  1
  Pr  Pr9  1  0.16478350  0.57952450  0.92784200  1
  Pr  Pr10  1  0.16478350  0.42047550  0.42784200  1
  Pr  Pr11  1  0.83521650  0.42047550  0.07215800  1
  Pr  Pr12  1  0.87350500  0.18336600  0.53009700  1
  Pr  Pr13  1  0.12649500  0.18336600  0.96990300  1
  Pr  Pr14  1  0.12649500  0.81663400  0.46990300  1
  Pr  Pr15  1  0.87350500  0.81663400  0.03009700  1
  Se  Se16  1  0.38431250  0.63137550  0.03513400  1
  Se  Se17  1  0.50000000  0.09726600  0.25000000  1
  Se  Se18  1  0.61568750  0.63137550  0.46486600  1
  Se  Se19  1  0.61568750  0.36862450  0.96486600  1
  Se  Se20  1  0.50000000  0.90273400  0.75000000  1
  Se  Se21  1  0.38431250  0.36862450  0.53513400  1
  Se  Se22  1  0.88431250  0.13137550  0.03513400  1
  Se  Se23  1  0.00000000  0.59726600  0.25000000  1
  Se  Se24  1  0.11568750  0.13137550  0.46486600  1
  Se  Se25  1  0.11568750  0.86862450  0.96486600  1
  Se  Se26  1  0.00000000  0.40273400  0.75000000  1
  Se  Se27  1  0.88431250  0.86862450  0.53513400  1
  N  N28  1  0.29452950  0.87593050  0.41478500  1
  N  N29  1  0.29452950  0.12406950  0.91478500  1
  N  N30  1  0.70547050  0.12406950  0.58521500  1
  N  N31  1  0.70547050  0.87593050  0.08521500  1
  N  N32  1  0.79452950  0.37593050  0.41478500  1
  N  N33  1  0.79452950  0.62406950  0.91478500  1
  N  N34  1  0.20547050  0.62406950  0.58521500  1
  N  N35  1  0.20547050  0.37593050  0.08521500  1
