# generated using pymatgen
data_Li3NbO4
_symmetry_space_group_name_H-M   'P 1'
_cell_length_a   8.52911600
_cell_length_b   8.52911600
_cell_length_c   8.52911600
_cell_angle_alpha   90.00000000
_cell_angle_beta   90.00000000
_cell_angle_gamma   90.00000000
_symmetry_Int_Tables_number   1
_chemical_formula_structural   Li3NbO4
_chemical_formula_sum   'Li24 Nb8 O32'
_cell_volume   620.45753509
_cell_formula_units_Z   8
loop_
 _symmetry_equiv_pos_site_id
 _symmetry_equiv_pos_as_xyz
  1  'x, y, z'
loop_
 _atom_site_type_symbol
 _atom_site_label
 _atom_site_symmetry_multiplicity
 _atom_site_fract_x
 _atom_site_fract_y
 _atom_site_fract_z
 _atom_site_occupancy
  Li  Li0  1  0.12157300  0.60787800  0.12157300  1
  Li  Li1  1  0.12157300  0.39212200  0.87842700  1
  Li  Li2  1  0.87842700  0.39212200  0.12157300  1
  Li  Li3  1  0.10787800  0.37842700  0.37842700  1
  Li  Li4  1  0.37842700  0.10787800  0.37842700  1
  Li  Li5  1  0.60787800  0.12157300  0.12157300  1
  Li  Li6  1  0.12157300  0.87842700  0.39212200  1
  Li  Li7  1  0.39212200  0.87842700  0.12157300  1
  Li  Li8  1  0.12157300  0.12157300  0.60787800  1
  Li  Li9  1  0.39212200  0.12157300  0.87842700  1
  Li  Li10  1  0.87842700  0.12157300  0.39212200  1
  Li  Li11  1  0.37842700  0.37842700  0.10787800  1
  Li  Li12  1  0.62157300  0.10787800  0.62157300  1
  Li  Li13  1  0.62157300  0.89212200  0.37842700  1
  Li  Li14  1  0.37842700  0.89212200  0.62157300  1
  Li  Li15  1  0.60787800  0.87842700  0.87842700  1
  Li  Li16  1  0.87842700  0.60787800  0.87842700  1
  Li  Li17  1  0.10787800  0.62157300  0.62157300  1
  Li  Li18  1  0.62157300  0.37842700  0.89212200  1
  Li  Li19  1  0.89212200  0.37842700  0.62157300  1
  Li  Li20  1  0.62157300  0.62157300  0.10787800  1
  Li  Li21  1  0.89212200  0.62157300  0.37842700  1
  Li  Li22  1  0.37842700  0.62157300  0.89212200  1
  Li  Li23  1  0.87842700  0.87842700  0.60787800  1
  Nb  Nb24  1  0.35958100  0.35958100  0.64041900  1
  Nb  Nb25  1  0.35958100  0.64041900  0.35958100  1
  Nb  Nb26  1  0.64041900  0.35958100  0.35958100  1
  Nb  Nb27  1  0.14041900  0.14041900  0.14041900  1
  Nb  Nb28  1  0.85958100  0.85958100  0.14041900  1
  Nb  Nb29  1  0.85958100  0.14041900  0.85958100  1
  Nb  Nb30  1  0.14041900  0.85958100  0.85958100  1
  Nb  Nb31  1  0.64041900  0.64041900  0.64041900  1
  O  O32  1  0.12306700  0.36273800  0.12306700  1
  O  O33  1  0.37693300  0.37693300  0.86273800  1
  O  O34  1  0.87693300  0.12306700  0.63726200  1
  O  O35  1  0.12306700  0.87693300  0.63726200  1
  O  O36  1  0.38635950  0.38635950  0.38635950  1
  O  O37  1  0.88635950  0.11364050  0.11364050  1
  O  O38  1  0.11364050  0.88635950  0.11364050  1
  O  O39  1  0.11364050  0.11364050  0.88635950  1
  O  O40  1  0.12306700  0.12306700  0.36273800  1
  O  O41  1  0.12306700  0.63726200  0.87693300  1
  O  O42  1  0.63726200  0.12306700  0.87693300  1
  O  O43  1  0.37693300  0.86273800  0.37693300  1
  O  O44  1  0.63726200  0.87693300  0.12306700  1
  O  O45  1  0.87693300  0.63726200  0.12306700  1
  O  O46  1  0.86273800  0.37693300  0.37693300  1
  O  O47  1  0.36273800  0.12306700  0.12306700  1
  O  O48  1  0.62306700  0.86273800  0.62306700  1
  O  O49  1  0.87693300  0.87693300  0.36273800  1
  O  O50  1  0.37693300  0.62306700  0.13726200  1
  O  O51  1  0.62306700  0.37693300  0.13726200  1
  O  O52  1  0.88635950  0.88635950  0.88635950  1
  O  O53  1  0.38635950  0.61364050  0.61364050  1
  O  O54  1  0.61364050  0.38635950  0.61364050  1
  O  O55  1  0.61364050  0.61364050  0.38635950  1
  O  O56  1  0.62306700  0.62306700  0.86273800  1
  O  O57  1  0.62306700  0.13726200  0.37693300  1
  O  O58  1  0.13726200  0.62306700  0.37693300  1
  O  O59  1  0.87693300  0.36273800  0.87693300  1
  O  O60  1  0.13726200  0.37693300  0.62306700  1
  O  O61  1  0.37693300  0.13726200  0.62306700  1
  O  O62  1  0.36273800  0.87693300  0.87693300  1
  O  O63  1  0.86273800  0.62306700  0.62306700  1
