# generated using pymatgen
data_RbBiS2
_symmetry_space_group_name_H-M   'P 1'
_cell_length_a   4.19045200
_cell_length_b   4.19045200
_cell_length_c   23.22120621
_cell_angle_alpha   90.00000000
_cell_angle_beta   90.00000000
_cell_angle_gamma   120.00000000
_symmetry_Int_Tables_number   1
_chemical_formula_structural   RbBiS2
_chemical_formula_sum   'Rb3 Bi3 S6'
_cell_volume   353.13205981
_cell_formula_units_Z   3
loop_
 _symmetry_equiv_pos_site_id
 _symmetry_equiv_pos_as_xyz
  1  'x, y, z'
loop_
 _atom_site_type_symbol
 _atom_site_label
 _atom_site_symmetry_multiplicity
 _atom_site_fract_x
 _atom_site_fract_y
 _atom_site_fract_z
 _atom_site_occupancy
  Rb  Rb0  1  0.33333333  0.66666667  0.16666667  1
  Rb  Rb1  1  1.00000000  1.00000000  0.50000000  1
  Rb  Rb2  1  0.66666667  0.33333333  0.83333333  1
  Bi  Bi3  1  0.00000000  0.00000000  0.00000000  1
  Bi  Bi4  1  0.66666667  0.33333333  0.33333333  1
  Bi  Bi5  1  0.33333333  0.66666667  0.66666667  1
  S  S6  1  0.00000000  0.00000000  0.26627400  1
  S  S7  1  0.66666667  0.33333333  0.06705933  1
  S  S8  1  0.66666667  0.33333333  0.59960733  1
  S  S9  1  0.33333333  0.66666667  0.40039267  1
  S  S10  1  0.33333333  0.66666667  0.93294067  1
  S  S11  1  0.00000000  0.00000000  0.73372600  1
