# generated using pymatgen
data_NaP5
_symmetry_space_group_name_H-M   'P 1'
_cell_length_a   6.55264100
_cell_length_b   7.08414500
_cell_length_c   11.05685400
_cell_angle_alpha   90.00000000
_cell_angle_beta   90.00000000
_cell_angle_gamma   90.00000000
_symmetry_Int_Tables_number   1
_chemical_formula_structural   NaP5
_chemical_formula_sum   'Na4 P20'
_cell_volume   513.25760341
_cell_formula_units_Z   4
loop_
 _symmetry_equiv_pos_site_id
 _symmetry_equiv_pos_as_xyz
  1  'x, y, z'
loop_
 _atom_site_type_symbol
 _atom_site_label
 _atom_site_symmetry_multiplicity
 _atom_site_fract_x
 _atom_site_fract_y
 _atom_site_fract_z
 _atom_site_occupancy
  Na  Na0  1  0.25000000  0.09002600  0.42445200  1
  Na  Na1  1  0.75000000  0.90997400  0.57554800  1
  Na  Na2  1  0.75000000  0.59002600  0.07554800  1
  Na  Na3  1  0.25000000  0.40997400  0.92445200  1
  P  P4  1  0.01352300  0.09329400  0.08165800  1
  P  P5  1  0.51352300  0.90670600  0.91834200  1
  P  P6  1  0.98647700  0.59329400  0.41834200  1
  P  P7  1  0.48647700  0.40670600  0.58165800  1
  P  P8  1  0.98647700  0.90670600  0.91834200  1
  P  P9  1  0.48647700  0.09329400  0.08165800  1
  P  P10  1  0.01352300  0.40670600  0.58165800  1
  P  P11  1  0.51352300  0.59329400  0.41834200  1
  P  P12  1  0.25000000  0.63371700  0.14059700  1
  P  P13  1  0.75000000  0.36628300  0.85940300  1
  P  P14  1  0.75000000  0.13371700  0.35940300  1
  P  P15  1  0.25000000  0.86628300  0.64059700  1
  P  P16  1  0.25000000  0.48017400  0.31105800  1
  P  P17  1  0.75000000  0.51982600  0.68894200  1
  P  P18  1  0.75000000  0.98017400  0.18894200  1
  P  P19  1  0.25000000  0.01982600  0.81105800  1
  P  P20  1  0.25000000  0.56563900  0.68603200  1
  P  P21  1  0.75000000  0.43436100  0.31396800  1
  P  P22  1  0.75000000  0.06563900  0.81396800  1
  P  P23  1  0.25000000  0.93436100  0.18603200  1
