# generated using pymatgen
data_KCO3
_symmetry_space_group_name_H-M   'P 1'
_cell_length_a   7.30505800
_cell_length_b   11.09566600
_cell_length_c   8.54106088
_cell_angle_alpha   90.00000000
_cell_angle_beta   111.34590874
_cell_angle_gamma   90.00000000
_symmetry_Int_Tables_number   1
_chemical_formula_structural   KCO3
_chemical_formula_sum   'K8 C8 O24'
_cell_volume   644.80000845
_cell_formula_units_Z   8
loop_
 _symmetry_equiv_pos_site_id
 _symmetry_equiv_pos_as_xyz
  1  'x, y, z'
loop_
 _atom_site_type_symbol
 _atom_site_label
 _atom_site_symmetry_multiplicity
 _atom_site_fract_x
 _atom_site_fract_y
 _atom_site_fract_z
 _atom_site_occupancy
  K  K0  1  0.28329400  0.15898000  0.29966800  1
  K  K1  1  0.21670600  0.65898000  0.70033200  1
  K  K2  1  0.71670600  0.84102000  0.70033200  1
  K  K3  1  0.78329400  0.34102000  0.29966800  1
  K  K4  1  0.69910000  0.90848000  0.19742500  1
  K  K5  1  0.80090000  0.40848000  0.80257500  1
  K  K6  1  0.30090000  0.09152000  0.80257500  1
  K  K7  1  0.19910000  0.59152000  0.19742500  1
  C  C8  1  0.72520700  0.12944500  0.55455600  1
  C  C9  1  0.32782600  0.37550200  0.96185700  1
  C  C10  1  0.17217400  0.87550200  0.03814300  1
  C  C11  1  0.67217400  0.62449800  0.03814300  1
  C  C12  1  0.82782600  0.12449800  0.96185700  1
  C  C13  1  0.22520700  0.37055500  0.55455600  1
  C  C14  1  0.27479300  0.87055500  0.44544400  1
  C  C15  1  0.77479300  0.62944500  0.44544400  1
  O  O16  1  0.92735500  0.15732400  0.85065700  1
  O  O17  1  0.57264500  0.65732400  0.14934300  1
  O  O18  1  0.07264500  0.84267600  0.14934300  1
  O  O19  1  0.42735500  0.34267600  0.85065700  1
  O  O20  1  0.87216500  0.07749800  0.69918600  1
  O  O21  1  0.62783500  0.57749800  0.30081400  1
  O  O22  1  0.12783500  0.92250200  0.30081400  1
  O  O23  1  0.37216500  0.42250200  0.69918600  1
  O  O24  1  0.18140400  0.44581600  0.43683100  1
  O  O25  1  0.70641100  0.04029600  0.92235200  1
  O  O26  1  0.79358900  0.54029600  0.07764800  1
  O  O27  1  0.29358900  0.95970400  0.07764800  1
  O  O28  1  0.66283700  0.23335300  0.56081100  1
  O  O29  1  0.83716300  0.73335300  0.43918900  1
  O  O30  1  0.33716300  0.76664700  0.43918900  1
  O  O31  1  0.16283700  0.26664700  0.56081100  1
  O  O32  1  0.20641100  0.45970400  0.92235200  1
  O  O33  1  0.68140400  0.05418400  0.43683100  1
  O  O34  1  0.81859600  0.55418400  0.56316900  1
  O  O35  1  0.31859600  0.94581600  0.56316900  1
  O  O36  1  0.88770000  0.19299100  0.08736300  1
  O  O37  1  0.61230000  0.69299100  0.91263700  1
  O  O38  1  0.11230000  0.80700900  0.91263700  1
  O  O39  1  0.38770000  0.30700900  0.08736300  1
