# generated using pymatgen
data_SrAl4O7
_symmetry_space_group_name_H-M   'P 1'
_cell_length_a   13.20079800
_cell_length_b   9.11432800
_cell_length_c   5.59866796
_cell_angle_alpha   90.00000000
_cell_angle_beta   106.16778055
_cell_angle_gamma   90.00000000
_symmetry_Int_Tables_number   1
_chemical_formula_structural   SrAl4O7
_chemical_formula_sum   'Sr4 Al16 O28'
_cell_volume   646.97053492
_cell_formula_units_Z   4
loop_
 _symmetry_equiv_pos_site_id
 _symmetry_equiv_pos_as_xyz
  1  'x, y, z'
loop_
 _atom_site_type_symbol
 _atom_site_label
 _atom_site_symmetry_multiplicity
 _atom_site_fract_x
 _atom_site_fract_y
 _atom_site_fract_z
 _atom_site_occupancy
  Sr  Sr0  1  0.50000000  0.68916200  0.75000000  1
  Sr  Sr1  1  0.50000000  0.31083800  0.25000000  1
  Sr  Sr2  1  0.00000000  0.18916200  0.75000000  1
  Sr  Sr3  1  0.00000000  0.81083800  0.25000000  1
  Al  Al4  1  0.62121050  0.06032250  0.76381500  1
  Al  Al5  1  0.37878950  0.06032250  0.73618500  1
  Al  Al6  1  0.37878950  0.93967750  0.23618500  1
  Al  Al7  1  0.62121050  0.93967750  0.26381500  1
  Al  Al8  1  0.16881200  0.91356400  0.79575500  1
  Al  Al9  1  0.83118800  0.91356400  0.70424500  1
  Al  Al10  1  0.83118800  0.08643600  0.20424500  1
  Al  Al11  1  0.16881200  0.08643600  0.29575500  1
  Al  Al12  1  0.12121050  0.56032250  0.76381500  1
  Al  Al13  1  0.87878950  0.56032250  0.73618500  1
  Al  Al14  1  0.87878950  0.43967750  0.23618500  1
  Al  Al15  1  0.12121050  0.43967750  0.26381500  1
  Al  Al16  1  0.66881200  0.41356400  0.79575500  1
  Al  Al17  1  0.33118800  0.41356400  0.70424500  1
  Al  Al18  1  0.33118800  0.58643600  0.20424500  1
  Al  Al19  1  0.66881200  0.58643600  0.29575500  1
  O  O20  1  0.69021650  0.05417750  0.09547300  1
  O  O21  1  0.30978350  0.05417750  0.40452700  1
  O  O22  1  0.30978350  0.94582250  0.90452700  1
  O  O23  1  0.69021650  0.94582250  0.59547300  1
  O  O24  1  0.62464400  0.24180900  0.67070500  1
  O  O25  1  0.37535600  0.24180900  0.82929500  1
  O  O26  1  0.37535600  0.75819100  0.32929500  1
  O  O27  1  0.62464400  0.75819100  0.17070500  1
  O  O28  1  0.11928250  0.96162950  0.04718500  1
  O  O29  1  0.88071750  0.96162950  0.45281500  1
  O  O30  1  0.50000000  0.02482100  0.25000000  1
  O  O31  1  0.50000000  0.97517900  0.75000000  1
  O  O32  1  0.11928250  0.03837050  0.54718500  1
  O  O33  1  0.88071750  0.03837050  0.95281500  1
  O  O34  1  0.19021650  0.55417750  0.09547300  1
  O  O35  1  0.80978350  0.55417750  0.40452700  1
  O  O36  1  0.80978350  0.44582250  0.90452700  1
  O  O37  1  0.19021650  0.44582250  0.59547300  1
  O  O38  1  0.12464400  0.74180900  0.67070500  1
  O  O39  1  0.87535600  0.74180900  0.82929500  1
  O  O40  1  0.87535600  0.25819100  0.32929500  1
  O  O41  1  0.12464400  0.25819100  0.17070500  1
  O  O42  1  0.61928250  0.46162950  0.04718500  1
  O  O43  1  0.38071750  0.46162950  0.45281500  1
  O  O44  1  0.00000000  0.52482100  0.25000000  1
  O  O45  1  0.00000000  0.47517900  0.75000000  1
  O  O46  1  0.61928250  0.53837050  0.54718500  1
  O  O47  1  0.38071750  0.53837050  0.95281500  1
