# generated using pymatgen
data_RbCrCl3
_symmetry_space_group_name_H-M   'P 1'
_cell_length_a   12.48998600
_cell_length_b   7.12686600
_cell_length_c   12.91119814
_cell_angle_alpha   90.00000000
_cell_angle_beta   94.09835976
_cell_angle_gamma   90.00000000
_symmetry_Int_Tables_number   1
_chemical_formula_structural   RbCrCl3
_chemical_formula_sum   'Rb8 Cr8 Cl24'
_cell_volume   1146.34437226
_cell_formula_units_Z   8
loop_
 _symmetry_equiv_pos_site_id
 _symmetry_equiv_pos_as_xyz
  1  'x, y, z'
loop_
 _atom_site_type_symbol
 _atom_site_label
 _atom_site_symmetry_multiplicity
 _atom_site_fract_x
 _atom_site_fract_y
 _atom_site_fract_z
 _atom_site_occupancy
  Rb  Rb0  1  0.66713750  0.98261550  0.37120000  1
  Rb  Rb1  1  0.83286250  0.48261550  0.12880000  1
  Rb  Rb2  1  0.83286250  0.51738450  0.62880000  1
  Rb  Rb3  1  0.66713750  0.01738450  0.87120000  1
  Rb  Rb4  1  0.16713750  0.48261550  0.37120000  1
  Rb  Rb5  1  0.33286250  0.98261550  0.12880000  1
  Rb  Rb6  1  0.33286250  0.01738450  0.62880000  1
  Rb  Rb7  1  0.16713750  0.51738450  0.87120000  1
  Cr  Cr8  1  0.00000000  0.00000000  0.50000000  1
  Cr  Cr9  1  0.00000000  0.00000000  0.00000000  1
  Cr  Cr10  1  0.00000000  0.03976100  0.75000000  1
  Cr  Cr11  1  0.00000000  0.96023900  0.25000000  1
  Cr  Cr12  1  0.50000000  0.50000000  0.50000000  1
  Cr  Cr13  1  0.50000000  0.50000000  0.00000000  1
  Cr  Cr14  1  0.50000000  0.53976100  0.75000000  1
  Cr  Cr15  1  0.50000000  0.46023900  0.25000000  1
  Cl  Cl16  1  0.92727350  0.80073850  0.85903900  1
  Cl  Cl17  1  0.57272650  0.30073850  0.64096100  1
  Cl  Cl18  1  0.57272650  0.69926150  0.14096100  1
  Cl  Cl19  1  0.92727350  0.19926150  0.35903900  1
  Cl  Cl20  1  0.91730150  0.72885850  0.35028300  1
  Cl  Cl21  1  0.58269850  0.22885850  0.14971700  1
  Cl  Cl22  1  0.58269850  0.77114150  0.64971700  1
  Cl  Cl23  1  0.91730150  0.27114150  0.85028300  1
  Cl  Cl24  1  0.83721550  0.98400250  0.08470800  1
  Cl  Cl25  1  0.66278450  0.48400250  0.41529200  1
  Cl  Cl26  1  0.66278450  0.51599750  0.91529200  1
  Cl  Cl27  1  0.83721550  0.01599750  0.58470800  1
  Cl  Cl28  1  0.42727350  0.30073850  0.85903900  1
  Cl  Cl29  1  0.07272650  0.80073850  0.64096100  1
  Cl  Cl30  1  0.07272650  0.19926150  0.14096100  1
  Cl  Cl31  1  0.42727350  0.69926150  0.35903900  1
  Cl  Cl32  1  0.41730150  0.22885850  0.35028300  1
  Cl  Cl33  1  0.08269850  0.72885850  0.14971700  1
  Cl  Cl34  1  0.08269850  0.27114150  0.64971700  1
  Cl  Cl35  1  0.41730150  0.77114150  0.85028300  1
  Cl  Cl36  1  0.33721550  0.48400250  0.08470800  1
  Cl  Cl37  1  0.16278450  0.98400250  0.41529200  1
  Cl  Cl38  1  0.16278450  0.01599750  0.91529200  1
  Cl  Cl39  1  0.33721550  0.51599750  0.58470800  1
