# generated using pymatgen
data_La5AgS8
_symmetry_space_group_name_H-M   'P 1'
_cell_length_a   8.70001200
_cell_length_b   8.70001200
_cell_length_c   8.78335800
_cell_angle_alpha   90.00000000
_cell_angle_beta   90.00000000
_cell_angle_gamma   90.00000000
_symmetry_Int_Tables_number   1
_chemical_formula_structural   La5AgS8
_chemical_formula_sum   'La10 Ag2 S16'
_cell_volume   664.81420099
_cell_formula_units_Z   2
loop_
 _symmetry_equiv_pos_site_id
 _symmetry_equiv_pos_as_xyz
  1  'x, y, z'
loop_
 _atom_site_type_symbol
 _atom_site_label
 _atom_site_symmetry_multiplicity
 _atom_site_fract_x
 _atom_site_fract_y
 _atom_site_fract_z
 _atom_site_occupancy
  La  La0  1  0.63383900  0.24906600  0.13117500  1
  La  La1  1  0.25093400  0.13383900  0.36882500  1
  La  La2  1  0.86616100  0.25093400  0.63117500  1
  La  La3  1  0.24906600  0.36616100  0.86882500  1
  La  La4  1  0.00000000  0.50000000  0.25000000  1
  La  La5  1  0.13383900  0.74906600  0.63117500  1
  La  La6  1  0.75093400  0.63383900  0.86882500  1
  La  La7  1  0.36616100  0.75093400  0.13117500  1
  La  La8  1  0.74906600  0.86616100  0.36882500  1
  La  La9  1  0.50000000  0.00000000  0.75000000  1
  Ag  Ag10  1  0.00000000  0.00000000  0.00000000  1
  Ag  Ag11  1  0.50000000  0.50000000  0.50000000  1
  S  S12  1  0.57733350  0.31772250  0.81505250  1
  S  S13  1  0.17907000  0.43092600  0.54711600  1
  S  S14  1  0.31772250  0.42266650  0.18494750  1
  S  S15  1  0.92266650  0.18227750  0.31505250  1
  S  S16  1  0.32093000  0.06907400  0.04711600  1
  S  S17  1  0.43092600  0.82093000  0.45288400  1
  S  S18  1  0.06907400  0.67907000  0.95288400  1
  S  S19  1  0.18227750  0.07733350  0.68494750  1
  S  S20  1  0.07733350  0.81772250  0.31505250  1
  S  S21  1  0.67907000  0.93092600  0.04711600  1
  S  S22  1  0.81772250  0.92266650  0.68494750  1
  S  S23  1  0.42266650  0.68227750  0.81505250  1
  S  S24  1  0.82093000  0.56907400  0.54711600  1
  S  S25  1  0.93092600  0.32093000  0.95288400  1
  S  S26  1  0.56907400  0.17907000  0.45288400  1
  S  S27  1  0.68227750  0.57733350  0.18494750  1
