# generated using pymatgen
data_Sm2S3
_symmetry_space_group_name_H-M   'P 1'
_cell_length_a   8.49323200
_cell_length_b   8.49323200
_cell_length_c   25.39876600
_cell_angle_alpha   90.00000000
_cell_angle_beta   90.00000000
_cell_angle_gamma   90.00000000
_symmetry_Int_Tables_number   1
_chemical_formula_structural   Sm2S3
_chemical_formula_sum   'Sm32 S48'
_cell_volume   1832.13972649
_cell_formula_units_Z   16
loop_
 _symmetry_equiv_pos_site_id
 _symmetry_equiv_pos_as_xyz
  1  'x, y, z'
loop_
 _atom_site_type_symbol
 _atom_site_label
 _atom_site_symmetry_multiplicity
 _atom_site_fract_x
 _atom_site_fract_y
 _atom_site_fract_z
 _atom_site_occupancy
  Sm  Sm0  1  0.50000000  0.00000000  0.41585700  1
  Sm  Sm1  1  0.25000000  0.61950600  0.37500000  1
  Sm  Sm2  1  0.00000000  0.00000000  0.33414300  1
  Sm  Sm3  1  0.63760200  0.74170100  0.28917400  1
  Sm  Sm4  1  0.36239800  0.25829900  0.28917400  1
  Sm  Sm5  1  0.75000000  0.38049400  0.37500000  1
  Sm  Sm6  1  0.75829900  0.13760200  0.21082600  1
  Sm  Sm7  1  0.11950600  0.25000000  0.12500000  1
  Sm  Sm8  1  0.50000000  0.50000000  0.16585700  1
  Sm  Sm9  1  0.88049400  0.75000000  0.12500000  1
  Sm  Sm10  1  0.24170100  0.86239800  0.21082600  1
  Sm  Sm11  1  0.50000000  0.00000000  0.08414300  1
  Sm  Sm12  1  0.24170100  0.63760200  0.03917400  1
  Sm  Sm13  1  0.13760200  0.25829900  0.46082600  1
  Sm  Sm14  1  0.86239800  0.74170100  0.46082600  1
  Sm  Sm15  1  0.75829900  0.36239800  0.03917400  1
  Sm  Sm16  1  0.00000000  0.50000000  0.91585700  1
  Sm  Sm17  1  0.75000000  0.11950600  0.87500000  1
  Sm  Sm18  1  0.50000000  0.50000000  0.83414300  1
  Sm  Sm19  1  0.13760200  0.24170100  0.78917400  1
  Sm  Sm20  1  0.86239800  0.75829900  0.78917400  1
  Sm  Sm21  1  0.25000000  0.88049400  0.87500000  1
  Sm  Sm22  1  0.25829900  0.63760200  0.71082600  1
  Sm  Sm23  1  0.61950600  0.75000000  0.62500000  1
  Sm  Sm24  1  0.00000000  0.00000000  0.66585700  1
  Sm  Sm25  1  0.38049400  0.25000000  0.62500000  1
  Sm  Sm26  1  0.74170100  0.36239800  0.71082600  1
  Sm  Sm27  1  0.00000000  0.50000000  0.58414300  1
  Sm  Sm28  1  0.74170100  0.13760200  0.53917400  1
  Sm  Sm29  1  0.63760200  0.75829900  0.96082600  1
  Sm  Sm30  1  0.36239800  0.24170100  0.96082600  1
  Sm  Sm31  1  0.25829900  0.86239800  0.53917400  1
  S  S32  1  0.82326350  0.07031650  0.43339750  1
  S  S33  1  0.42739200  0.31809000  0.39499800  1
  S  S34  1  0.17673650  0.92968350  0.43339750  1
  S  S35  1  0.32326350  0.92968350  0.31660250  1
  S  S36  1  0.67673650  0.07031650  0.31660250  1
  S  S37  1  0.07260800  0.31809000  0.35500200  1
  S  S38  1  0.57260800  0.68191000  0.39499800  1
  S  S39  1  0.32958850  0.58012950  0.26651650  1
  S  S40  1  0.92739200  0.68191000  0.35500200  1
  S  S41  1  0.91987050  0.82958850  0.23348350  1
  S  S42  1  0.67041150  0.41987050  0.26651650  1
  S  S43  1  0.81809000  0.42739200  0.14499800  1
  S  S44  1  0.18191000  0.57260800  0.14499800  1
  S  S45  1  0.08012950  0.17041150  0.23348350  1
  S  S46  1  0.57031650  0.82326350  0.18339750  1
  S  S47  1  0.81809000  0.07260800  0.10500200  1
  S  S48  1  0.42968350  0.17673650  0.18339750  1
  S  S49  1  0.42968350  0.32326350  0.06660250  1
  S  S50  1  0.18191000  0.92739200  0.10500200  1
  S  S51  1  0.82958850  0.41987050  0.48348350  1
  S  S52  1  0.17041150  0.58012950  0.48348350  1
  S  S53  1  0.57031650  0.67673650  0.06660250  1
  S  S54  1  0.08012950  0.32958850  0.01651650  1
  S  S55  1  0.91987050  0.67041150  0.01651650  1
  S  S56  1  0.32326350  0.57031650  0.93339750  1
  S  S57  1  0.92739200  0.81809000  0.89499800  1
  S  S58  1  0.67673650  0.42968350  0.93339750  1
  S  S59  1  0.82326350  0.42968350  0.81660250  1
  S  S60  1  0.17673650  0.57031650  0.81660250  1
  S  S61  1  0.57260800  0.81809000  0.85500200  1
  S  S62  1  0.07260800  0.18191000  0.89499800  1
  S  S63  1  0.82958850  0.08012950  0.76651650  1
  S  S64  1  0.42739200  0.18191000  0.85500200  1
  S  S65  1  0.41987050  0.32958850  0.73348350  1
  S  S66  1  0.17041150  0.91987050  0.76651650  1
  S  S67  1  0.31809000  0.92739200  0.64499800  1
  S  S68  1  0.68191000  0.07260800  0.64499800  1
  S  S69  1  0.58012950  0.67041150  0.73348350  1
  S  S70  1  0.07031650  0.32326350  0.68339750  1
  S  S71  1  0.31809000  0.57260800  0.60500200  1
  S  S72  1  0.92968350  0.67673650  0.68339750  1
  S  S73  1  0.92968350  0.82326350  0.56660250  1
  S  S74  1  0.68191000  0.42739200  0.60500200  1
  S  S75  1  0.32958850  0.91987050  0.98348350  1
  S  S76  1  0.67041150  0.08012950  0.98348350  1
  S  S77  1  0.07031650  0.17673650  0.56660250  1
  S  S78  1  0.58012950  0.82958850  0.51651650  1
  S  S79  1  0.41987050  0.17041150  0.51651650  1
