# generated using pymatgen
data_NdPS4
_symmetry_space_group_name_H-M   'P 1'
_cell_length_a   11.04191400
_cell_length_b   11.04191400
_cell_length_c   19.44040600
_cell_angle_alpha   90.00000000
_cell_angle_beta   90.00000000
_cell_angle_gamma   90.00000000
_symmetry_Int_Tables_number   1
_chemical_formula_structural   NdPS4
_chemical_formula_sum   'Nd16 P16 S64'
_cell_volume   2370.24943248
_cell_formula_units_Z   16
loop_
 _symmetry_equiv_pos_site_id
 _symmetry_equiv_pos_as_xyz
  1  'x, y, z'
loop_
 _atom_site_type_symbol
 _atom_site_label
 _atom_site_symmetry_multiplicity
 _atom_site_fract_x
 _atom_site_fract_y
 _atom_site_fract_z
 _atom_site_occupancy
  Nd  Nd0  1  0.50000000  0.50000000  0.00000000  1
  Nd  Nd1  1  0.50000000  0.00000000  0.25000000  1
  Nd  Nd2  1  0.00000000  0.50000000  0.25000000  1
  Nd  Nd3  1  0.00000000  0.00000000  0.00000000  1
  Nd  Nd4  1  0.00000000  0.00000000  0.25000000  1
  Nd  Nd5  1  0.50000000  0.00000000  0.00000000  1
  Nd  Nd6  1  0.00000000  0.50000000  0.00000000  1
  Nd  Nd7  1  0.50000000  0.50000000  0.25000000  1
  Nd  Nd8  1  0.00000000  0.00000000  0.50000000  1
  Nd  Nd9  1  0.00000000  0.50000000  0.75000000  1
  Nd  Nd10  1  0.50000000  0.00000000  0.75000000  1
  Nd  Nd11  1  0.50000000  0.50000000  0.50000000  1
  Nd  Nd12  1  0.50000000  0.50000000  0.75000000  1
  Nd  Nd13  1  0.00000000  0.50000000  0.50000000  1
  Nd  Nd14  1  0.50000000  0.00000000  0.50000000  1
  Nd  Nd15  1  0.00000000  0.00000000  0.75000000  1
  P  P16  1  0.53732700  0.25000000  0.37500000  1
  P  P17  1  0.03732700  0.25000000  0.37500000  1
  P  P18  1  0.25000000  0.03732700  0.12500000  1
  P  P19  1  0.75000000  0.96267300  0.12500000  1
  P  P20  1  0.96267300  0.75000000  0.37500000  1
  P  P21  1  0.46267300  0.75000000  0.37500000  1
  P  P22  1  0.75000000  0.46267300  0.12500000  1
  P  P23  1  0.25000000  0.53732700  0.12500000  1
  P  P24  1  0.03732700  0.75000000  0.87500000  1
  P  P25  1  0.53732700  0.75000000  0.87500000  1
  P  P26  1  0.75000000  0.53732700  0.62500000  1
  P  P27  1  0.25000000  0.46267300  0.62500000  1
  P  P28  1  0.46267300  0.25000000  0.87500000  1
  P  P29  1  0.96267300  0.25000000  0.87500000  1
  P  P30  1  0.25000000  0.96267300  0.62500000  1
  P  P31  1  0.75000000  0.03732700  0.62500000  1
  S  S32  1  0.59227050  0.86435550  0.12349150  1
  S  S33  1  0.40772950  0.13564450  0.12349150  1
  S  S34  1  0.86435550  0.90772950  0.37349150  1
  S  S35  1  0.13564450  0.09227050  0.37349150  1
  S  S36  1  0.90772950  0.86435550  0.12650850  1
  S  S37  1  0.09227050  0.13564450  0.12650850  1
  S  S38  1  0.13564450  0.40772950  0.37650850  1
  S  S39  1  0.86435550  0.59227050  0.37650850  1
  S  S40  1  0.75166750  0.56552950  0.21268550  1
  S  S41  1  0.43447050  0.25166750  0.46268550  1
  S  S42  1  0.56552950  0.74833250  0.46268550  1
  S  S43  1  0.25166750  0.43447050  0.03731450  1
  S  S44  1  0.74833250  0.56552950  0.03731450  1
  S  S45  1  0.56552950  0.75166750  0.28731450  1
  S  S46  1  0.43447050  0.24833250  0.28731450  1
  S  S47  1  0.24833250  0.43447050  0.21268550  1
  S  S48  1  0.24833250  0.93447050  0.03731450  1
  S  S49  1  0.06552950  0.74833250  0.28731450  1
  S  S50  1  0.93447050  0.25166750  0.28731450  1
  S  S51  1  0.74833250  0.06552950  0.21268550  1
  S  S52  1  0.25166750  0.93447050  0.21268550  1
  S  S53  1  0.93447050  0.24833250  0.46268550  1
  S  S54  1  0.06552950  0.75166750  0.46268550  1
  S  S55  1  0.75166750  0.06552950  0.03731450  1
  S  S56  1  0.59227050  0.36435550  0.12650850  1
  S  S57  1  0.63564450  0.09227050  0.37650850  1
  S  S58  1  0.36435550  0.90772950  0.37650850  1
  S  S59  1  0.09227050  0.63564450  0.12349150  1
  S  S60  1  0.90772950  0.36435550  0.12349150  1
  S  S61  1  0.36435550  0.59227050  0.37349150  1
  S  S62  1  0.63564450  0.40772950  0.37349150  1
  S  S63  1  0.40772950  0.63564450  0.12650850  1
  S  S64  1  0.09227050  0.36435550  0.62349150  1
  S  S65  1  0.90772950  0.63564450  0.62349150  1
  S  S66  1  0.36435550  0.40772950  0.87349150  1
  S  S67  1  0.63564450  0.59227050  0.87349150  1
  S  S68  1  0.40772950  0.36435550  0.62650850  1
  S  S69  1  0.59227050  0.63564450  0.62650850  1
  S  S70  1  0.63564450  0.90772950  0.87650850  1
  S  S71  1  0.36435550  0.09227050  0.87650850  1
  S  S72  1  0.25166750  0.06552950  0.71268550  1
  S  S73  1  0.93447050  0.75166750  0.96268550  1
  S  S74  1  0.06552950  0.24833250  0.96268550  1
  S  S75  1  0.75166750  0.93447050  0.53731450  1
  S  S76  1  0.24833250  0.06552950  0.53731450  1
  S  S77  1  0.06552950  0.25166750  0.78731450  1
  S  S78  1  0.93447050  0.74833250  0.78731450  1
  S  S79  1  0.74833250  0.93447050  0.71268550  1
  S  S80  1  0.74833250  0.43447050  0.53731450  1
  S  S81  1  0.56552950  0.24833250  0.78731450  1
  S  S82  1  0.43447050  0.75166750  0.78731450  1
  S  S83  1  0.24833250  0.56552950  0.71268550  1
  S  S84  1  0.75166750  0.43447050  0.71268550  1
  S  S85  1  0.43447050  0.74833250  0.96268550  1
  S  S86  1  0.56552950  0.25166750  0.96268550  1
  S  S87  1  0.25166750  0.56552950  0.53731450  1
  S  S88  1  0.09227050  0.86435550  0.62650850  1
  S  S89  1  0.13564450  0.59227050  0.87650850  1
  S  S90  1  0.86435550  0.40772950  0.87650850  1
  S  S91  1  0.59227050  0.13564450  0.62349150  1
  S  S92  1  0.40772950  0.86435550  0.62349150  1
  S  S93  1  0.86435550  0.09227050  0.87349150  1
  S  S94  1  0.13564450  0.90772950  0.87349150  1
  S  S95  1  0.90772950  0.13564450  0.62650850  1
