# generated using pymatgen
data_TlSbO3
_symmetry_space_group_name_H-M   'P 1'
_cell_length_a   5.40542786
_cell_length_b   5.40542786
_cell_length_c   22.57480821
_cell_angle_alpha   90.00000000
_cell_angle_beta   90.00000000
_cell_angle_gamma   120.00000000
_symmetry_Int_Tables_number   1
_chemical_formula_structural   TlSbO3
_chemical_formula_sum   'Tl6 Sb6 O18'
_cell_volume   571.23505665
_cell_formula_units_Z   6
loop_
 _symmetry_equiv_pos_site_id
 _symmetry_equiv_pos_as_xyz
  1  'x, y, z'
loop_
 _atom_site_type_symbol
 _atom_site_label
 _atom_site_symmetry_multiplicity
 _atom_site_fract_x
 _atom_site_fract_y
 _atom_site_fract_z
 _atom_site_occupancy
  Tl  Tl0  1  0.33333333  0.66666667  0.28449167  1
  Tl  Tl1  1  0.33333333  0.66666667  0.04884167  1
  Tl  Tl2  1  0.00000000  0.00000000  0.61782500  1
  Tl  Tl3  1  0.00000000  0.00000000  0.38217500  1
  Tl  Tl4  1  0.66666667  0.33333333  0.95115833  1
  Tl  Tl5  1  0.66666667  0.33333333  0.71550833  1
  Sb  Sb6  1  0.66666667  0.33333333  0.16633633  1
  Sb  Sb7  1  0.00000000  0.00000000  0.16699700  1
  Sb  Sb8  1  0.33333333  0.66666667  0.49966967  1
  Sb  Sb9  1  0.66666667  0.33333333  0.50033033  1
  Sb  Sb10  1  0.00000000  0.00000000  0.83300300  1
  Sb  Sb11  1  0.33333333  0.66666667  0.83366367  1
  O  O12  1  0.71642300  0.66782600  0.11664000  1
  O  O13  1  0.95140300  0.28357700  0.11664000  1
  O  O14  1  0.33217400  0.04859700  0.11664000  1
  O  O15  1  0.95024367  0.66550733  0.21669333  1
  O  O16  1  0.71526367  0.04975633  0.21669333  1
  O  O17  1  0.33449267  0.28473633  0.21669333  1
  O  O18  1  0.38308967  0.00115933  0.44997333  1
  O  O19  1  0.61806967  0.61691033  0.44997333  1
  O  O20  1  0.99884067  0.38193033  0.44997333  1
  O  O21  1  0.61691033  0.99884067  0.55002667  1
  O  O22  1  0.38193033  0.38308967  0.55002667  1
  O  O23  1  0.00115933  0.61806967  0.55002667  1
  O  O24  1  0.04975633  0.33449267  0.78330667  1
  O  O25  1  0.28473633  0.95024367  0.78330667  1
  O  O26  1  0.66550733  0.71526367  0.78330667  1
  O  O27  1  0.28357700  0.33217400  0.88336000  1
  O  O28  1  0.04859700  0.71642300  0.88336000  1
  O  O29  1  0.66782600  0.95140300  0.88336000  1
