# generated using pymatgen
data_LiMnO2
_symmetry_space_group_name_H-M   'P 1'
_cell_length_a   8.24805248
_cell_length_b   8.01910828
_cell_length_c   6.11743095
_cell_angle_alpha   90.00000000
_cell_angle_beta   128.22702871
_cell_angle_gamma   90.00000000
_symmetry_Int_Tables_number   1
_chemical_formula_structural   LiMnO2
_chemical_formula_sum   'Li8 Mn8 O16'
_cell_volume   317.85477320
_cell_formula_units_Z   8
loop_
 _symmetry_equiv_pos_site_id
 _symmetry_equiv_pos_as_xyz
  1  'x, y, z'
loop_
 _atom_site_type_symbol
 _atom_site_label
 _atom_site_symmetry_multiplicity
 _atom_site_fract_x
 _atom_site_fract_y
 _atom_site_fract_z
 _atom_site_occupancy
  Li  Li0  1  0.75000000  0.75000000  0.00000000  1
  Li  Li1  1  0.25000000  0.75000000  0.50000000  1
  Li  Li2  1  0.50000000  0.55305650  0.75000000  1
  Li  Li3  1  0.00000000  0.94694350  0.25000000  1
  Li  Li4  1  0.25000000  0.25000000  0.00000000  1
  Li  Li5  1  0.75000000  0.25000000  0.50000000  1
  Li  Li6  1  0.00000000  0.05305650  0.75000000  1
  Li  Li7  1  0.50000000  0.44694350  0.25000000  1
  Mn  Mn8  1  0.25000000  0.75000000  0.00000000  1
  Mn  Mn9  1  0.75000000  0.75000000  0.50000000  1
  Mn  Mn10  1  0.00000000  0.50000000  0.00000000  1
  Mn  Mn11  1  0.00000000  0.50000000  0.50000000  1
  Mn  Mn12  1  0.75000000  0.25000000  0.00000000  1
  Mn  Mn13  1  0.25000000  0.25000000  0.50000000  1
  Mn  Mn14  1  0.50000000  0.00000000  0.00000000  1
  Mn  Mn15  1  0.50000000  0.00000000  0.50000000  1
  O  O16  1  0.72199200  0.99068200  0.47284200  1
  O  O17  1  0.77800800  0.49068200  0.02715800  1
  O  O18  1  0.72199200  0.00931800  0.97284200  1
  O  O19  1  0.77800800  0.50931800  0.52715800  1
  O  O20  1  0.48047300  0.75322600  0.98215100  1
  O  O21  1  0.98047300  0.74677400  0.48215100  1
  O  O22  1  0.51952700  0.75322600  0.51784900  1
  O  O23  1  0.01952700  0.74677400  0.01784900  1
  O  O24  1  0.22199200  0.49068200  0.47284200  1
  O  O25  1  0.27800800  0.99068200  0.02715800  1
  O  O26  1  0.22199200  0.50931800  0.97284200  1
  O  O27  1  0.27800800  0.00931800  0.52715800  1
  O  O28  1  0.98047300  0.25322600  0.98215100  1
  O  O29  1  0.48047300  0.24677400  0.48215100  1
  O  O30  1  0.01952700  0.25322600  0.51784900  1
  O  O31  1  0.51952700  0.24677400  0.01784900  1
