# generated using pymatgen
data_Lu2S3
_symmetry_space_group_name_H-M   'P 1'
_cell_length_a   8.17853400
_cell_length_b   8.17853400
_cell_length_c   24.45373600
_cell_angle_alpha   90.00000000
_cell_angle_beta   90.00000000
_cell_angle_gamma   90.00000000
_symmetry_Int_Tables_number   1
_chemical_formula_structural   Lu2S3
_chemical_formula_sum   'Lu32 S48'
_cell_volume   1635.67172475
_cell_formula_units_Z   16
loop_
 _symmetry_equiv_pos_site_id
 _symmetry_equiv_pos_as_xyz
  1  'x, y, z'
loop_
 _atom_site_type_symbol
 _atom_site_label
 _atom_site_symmetry_multiplicity
 _atom_site_fract_x
 _atom_site_fract_y
 _atom_site_fract_z
 _atom_site_occupancy
  Lu  Lu0  1  0.14035650  0.26137400  0.46170575  1
  Lu  Lu1  1  0.50000000  0.00000000  0.41446275  1
  Lu  Lu2  1  0.25000000  0.61659200  0.37500000  1
  Lu  Lu3  1  0.00000000  0.00000000  0.33553725  1
  Lu  Lu4  1  0.64035650  0.73862600  0.28829425  1
  Lu  Lu5  1  0.35964350  0.26137400  0.28829425  1
  Lu  Lu6  1  0.75000000  0.38340800  0.37500000  1
  Lu  Lu7  1  0.76137400  0.14035650  0.21170575  1
  Lu  Lu8  1  0.50000000  0.50000000  0.16446275  1
  Lu  Lu9  1  0.11659200  0.25000000  0.12500000  1
  Lu  Lu10  1  0.88340800  0.75000000  0.12500000  1
  Lu  Lu11  1  0.23862600  0.85964350  0.21170575  1
  Lu  Lu12  1  0.50000000  0.00000000  0.08553725  1
  Lu  Lu13  1  0.23862600  0.64035650  0.03829425  1
  Lu  Lu14  1  0.85964350  0.73862600  0.46170575  1
  Lu  Lu15  1  0.76137400  0.35964350  0.03829425  1
  Lu  Lu16  1  0.64035650  0.76137400  0.96170575  1
  Lu  Lu17  1  0.00000000  0.50000000  0.91446275  1
  Lu  Lu18  1  0.75000000  0.11659200  0.87500000  1
  Lu  Lu19  1  0.50000000  0.50000000  0.83553725  1
  Lu  Lu20  1  0.14035650  0.23862600  0.78829425  1
  Lu  Lu21  1  0.85964350  0.76137400  0.78829425  1
  Lu  Lu22  1  0.25000000  0.88340800  0.87500000  1
  Lu  Lu23  1  0.26137400  0.64035650  0.71170575  1
  Lu  Lu24  1  0.00000000  0.00000000  0.66446275  1
  Lu  Lu25  1  0.61659200  0.75000000  0.62500000  1
  Lu  Lu26  1  0.38340800  0.25000000  0.62500000  1
  Lu  Lu27  1  0.73862600  0.35964350  0.71170575  1
  Lu  Lu28  1  0.00000000  0.50000000  0.58553725  1
  Lu  Lu29  1  0.73862600  0.14035650  0.53829425  1
  Lu  Lu30  1  0.35964350  0.23862600  0.96170575  1
  Lu  Lu31  1  0.26137400  0.85964350  0.53829425  1
  S  S32  1  0.81681400  0.06190050  0.43507325  1
  S  S33  1  0.43170750  0.31447800  0.39310575  1
  S  S34  1  0.18318600  0.93809950  0.43507325  1
  S  S35  1  0.31681400  0.93809950  0.31492675  1
  S  S36  1  0.68318600  0.06190050  0.31492675  1
  S  S37  1  0.56829250  0.68552200  0.39310575  1
  S  S38  1  0.32313300  0.57825650  0.26806925  1
  S  S39  1  0.93170750  0.68552200  0.35689425  1
  S  S40  1  0.92174350  0.82313300  0.23193075  1
  S  S41  1  0.67686700  0.42174350  0.26806925  1
  S  S42  1  0.06829250  0.31447800  0.35689425  1
  S  S43  1  0.81447800  0.43170750  0.14310575  1
  S  S44  1  0.18552200  0.56829250  0.14310575  1
  S  S45  1  0.07825650  0.17686700  0.23193075  1
  S  S46  1  0.81447800  0.06829250  0.10689425  1
  S  S47  1  0.43809950  0.18318600  0.18507325  1
  S  S48  1  0.43809950  0.31681400  0.06492675  1
  S  S49  1  0.18552200  0.93170750  0.10689425  1
  S  S50  1  0.56190050  0.81681400  0.18507325  1
  S  S51  1  0.82313300  0.42174350  0.48193075  1
  S  S52  1  0.17686700  0.57825650  0.48193075  1
  S  S53  1  0.56190050  0.68318600  0.06492675  1
  S  S54  1  0.92174350  0.67686700  0.01806925  1
  S  S55  1  0.07825650  0.32313300  0.01806925  1
  S  S56  1  0.31681400  0.56190050  0.93507325  1
  S  S57  1  0.93170750  0.81447800  0.89310575  1
  S  S58  1  0.68318600  0.43809950  0.93507325  1
  S  S59  1  0.81681400  0.43809950  0.81492675  1
  S  S60  1  0.18318600  0.56190050  0.81492675  1
  S  S61  1  0.06829250  0.18552200  0.89310575  1
  S  S62  1  0.82313300  0.07825650  0.76806925  1
  S  S63  1  0.43170750  0.18552200  0.85689425  1
  S  S64  1  0.42174350  0.32313300  0.73193075  1
  S  S65  1  0.17686700  0.92174350  0.76806925  1
  S  S66  1  0.56829250  0.81447800  0.85689425  1
  S  S67  1  0.31447800  0.93170750  0.64310575  1
  S  S68  1  0.68552200  0.06829250  0.64310575  1
  S  S69  1  0.57825650  0.67686700  0.73193075  1
  S  S70  1  0.31447800  0.56829250  0.60689425  1
  S  S71  1  0.93809950  0.68318600  0.68507325  1
  S  S72  1  0.93809950  0.81681400  0.56492675  1
  S  S73  1  0.68552200  0.43170750  0.60689425  1
  S  S74  1  0.06190050  0.31681400  0.68507325  1
  S  S75  1  0.32313300  0.92174350  0.98193075  1
  S  S76  1  0.67686700  0.07825650  0.98193075  1
  S  S77  1  0.06190050  0.18318600  0.56492675  1
  S  S78  1  0.42174350  0.17686700  0.51806925  1
  S  S79  1  0.57825650  0.82313300  0.51806925  1
