# generated using pymatgen
data_AgSbF6
_symmetry_space_group_name_H-M   'P 1'
_cell_length_a   9.99451400
_cell_length_b   9.99451400
_cell_length_c   9.99451400
_cell_angle_alpha   90.00000000
_cell_angle_beta   90.00000000
_cell_angle_gamma   90.00000000
_symmetry_Int_Tables_number   1
_chemical_formula_structural   AgSbF6
_chemical_formula_sum   'Ag8 Sb8 F48'
_cell_volume   998.35510272
_cell_formula_units_Z   8
loop_
 _symmetry_equiv_pos_site_id
 _symmetry_equiv_pos_as_xyz
  1  'x, y, z'
loop_
 _atom_site_type_symbol
 _atom_site_label
 _atom_site_symmetry_multiplicity
 _atom_site_fract_x
 _atom_site_fract_y
 _atom_site_fract_z
 _atom_site_occupancy
  Ag  Ag0  1  0.25000000  0.25000000  0.25000000  1
  Ag  Ag1  1  0.25000000  0.75000000  0.25000000  1
  Ag  Ag2  1  0.25000000  0.25000000  0.75000000  1
  Ag  Ag3  1  0.75000000  0.25000000  0.25000000  1
  Ag  Ag4  1  0.75000000  0.75000000  0.75000000  1
  Ag  Ag5  1  0.75000000  0.25000000  0.75000000  1
  Ag  Ag6  1  0.75000000  0.75000000  0.25000000  1
  Ag  Ag7  1  0.25000000  0.75000000  0.75000000  1
  Sb  Sb8  1  0.00000000  0.00000000  0.00000000  1
  Sb  Sb9  1  0.00000000  0.00000000  0.50000000  1
  Sb  Sb10  1  0.50000000  0.00000000  0.00000000  1
  Sb  Sb11  1  0.00000000  0.50000000  0.00000000  1
  Sb  Sb12  1  0.50000000  0.50000000  0.50000000  1
  Sb  Sb13  1  0.50000000  0.50000000  0.00000000  1
  Sb  Sb14  1  0.00000000  0.50000000  0.50000000  1
  Sb  Sb15  1  0.50000000  0.00000000  0.50000000  1
  F  F16  1  0.61560500  0.35901200  0.06244400  1
  F  F17  1  0.38439500  0.85901200  0.43755600  1
  F  F18  1  0.11560500  0.14098800  0.93755600  1
  F  F19  1  0.14098800  0.06244400  0.38439500  1
  F  F20  1  0.06244400  0.38439500  0.14098800  1
  F  F21  1  0.06244400  0.61560500  0.35901200  1
  F  F22  1  0.85901200  0.43755600  0.38439500  1
  F  F23  1  0.93755600  0.11560500  0.14098800  1
  F  F24  1  0.11560500  0.35901200  0.43755600  1
  F  F25  1  0.35901200  0.56244400  0.38439500  1
  F  F26  1  0.06244400  0.11560500  0.64098800  1
  F  F27  1  0.14098800  0.43755600  0.88439500  1
  F  F28  1  0.56244400  0.38439500  0.35901200  1
  F  F29  1  0.64098800  0.06244400  0.11560500  1
  F  F30  1  0.43755600  0.88439500  0.14098800  1
  F  F31  1  0.43755600  0.11560500  0.35901200  1
  F  F32  1  0.35901200  0.43755600  0.11560500  1
  F  F33  1  0.38439500  0.35901200  0.56244400  1
  F  F34  1  0.11560500  0.64098800  0.06244400  1
  F  F35  1  0.88439500  0.14098800  0.43755600  1
  F  F36  1  0.38439500  0.14098800  0.06244400  1
  F  F37  1  0.14098800  0.93755600  0.11560500  1
  F  F38  1  0.43755600  0.38439500  0.85901200  1
  F  F39  1  0.35901200  0.06244400  0.61560500  1
  F  F40  1  0.11560500  0.85901200  0.56244400  1
  F  F41  1  0.88439500  0.35901200  0.93755600  1
  F  F42  1  0.61560500  0.64098800  0.43755600  1
  F  F43  1  0.64098800  0.56244400  0.88439500  1
  F  F44  1  0.56244400  0.88439500  0.64098800  1
  F  F45  1  0.56244400  0.11560500  0.85901200  1
  F  F46  1  0.35901200  0.93755600  0.88439500  1
  F  F47  1  0.43755600  0.61560500  0.64098800  1
  F  F48  1  0.61560500  0.85901200  0.93755600  1
  F  F49  1  0.85901200  0.06244400  0.88439500  1
  F  F50  1  0.56244400  0.61560500  0.14098800  1
  F  F51  1  0.64098800  0.93755600  0.38439500  1
  F  F52  1  0.06244400  0.88439500  0.85901200  1
  F  F53  1  0.14098800  0.56244400  0.61560500  1
  F  F54  1  0.93755600  0.38439500  0.64098800  1
  F  F55  1  0.93755600  0.61560500  0.85901200  1
  F  F56  1  0.85901200  0.93755600  0.61560500  1
  F  F57  1  0.88439500  0.85901200  0.06244400  1
  F  F58  1  0.61560500  0.14098800  0.56244400  1
  F  F59  1  0.38439500  0.64098800  0.93755600  1
  F  F60  1  0.88439500  0.64098800  0.56244400  1
  F  F61  1  0.64098800  0.43755600  0.61560500  1
  F  F62  1  0.93755600  0.88439500  0.35901200  1
  F  F63  1  0.85901200  0.56244400  0.11560500  1
