# generated using pymatgen
data_P2Pb8O13
_symmetry_space_group_name_H-M   'P 1'
_cell_length_a   10.91253600
_cell_length_b   10.47818800
_cell_length_c   14.69033948
_cell_angle_alpha   90.00000000
_cell_angle_beta   98.18888608
_cell_angle_gamma   90.00000000
_symmetry_Int_Tables_number   1
_chemical_formula_structural   P2Pb8O13
_chemical_formula_sum   'P8 Pb32 O52'
_cell_volume   1662.61945944
_cell_formula_units_Z   4
loop_
 _symmetry_equiv_pos_site_id
 _symmetry_equiv_pos_as_xyz
  1  'x, y, z'
loop_
 _atom_site_type_symbol
 _atom_site_label
 _atom_site_symmetry_multiplicity
 _atom_site_fract_x
 _atom_site_fract_y
 _atom_site_fract_z
 _atom_site_occupancy
  P  P0  1  0.00000000  0.74748200  0.50000000  1
  P  P1  1  0.00000000  0.25251800  0.50000000  1
  P  P2  1  0.34111300  0.50000000  0.90016300  1
  P  P3  1  0.65888700  0.50000000  0.09983700  1
  P  P4  1  0.50000000  0.24748200  0.50000000  1
  P  P5  1  0.50000000  0.75251800  0.50000000  1
  P  P6  1  0.84111300  0.00000000  0.90016300  1
  P  P7  1  0.15888700  0.00000000  0.09983700  1
  Pb  Pb8  1  0.19015050  0.73537150  0.29650200  1
  Pb  Pb9  1  0.80984950  0.73537150  0.70349800  1
  Pb  Pb10  1  0.80984950  0.26462850  0.70349800  1
  Pb  Pb11  1  0.19015050  0.26462850  0.29650200  1
  Pb  Pb12  1  0.08502150  0.76069150  0.90566500  1
  Pb  Pb13  1  0.91497850  0.76069150  0.09433500  1
  Pb  Pb14  1  0.91497850  0.23930850  0.09433500  1
  Pb  Pb15  1  0.08502150  0.23930850  0.90566500  1
  Pb  Pb16  1  0.06751900  0.50000000  0.71555700  1
  Pb  Pb17  1  0.93248100  0.50000000  0.28444300  1
  Pb  Pb18  1  0.76569600  0.50000000  0.51299300  1
  Pb  Pb19  1  0.23430400  0.50000000  0.48700700  1
  Pb  Pb20  1  0.16730400  0.50000000  0.11578600  1
  Pb  Pb21  1  0.83269600  0.50000000  0.88421400  1
  Pb  Pb22  1  0.57197700  0.50000000  0.69454700  1
  Pb  Pb23  1  0.42802300  0.50000000  0.30545300  1
  Pb  Pb24  1  0.69015050  0.23537150  0.29650200  1
  Pb  Pb25  1  0.30984950  0.23537150  0.70349800  1
  Pb  Pb26  1  0.30984950  0.76462850  0.70349800  1
  Pb  Pb27  1  0.69015050  0.76462850  0.29650200  1
  Pb  Pb28  1  0.58502150  0.26069150  0.90566500  1
  Pb  Pb29  1  0.41497850  0.26069150  0.09433500  1
  Pb  Pb30  1  0.41497850  0.73930850  0.09433500  1
  Pb  Pb31  1  0.58502150  0.73930850  0.90566500  1
  Pb  Pb32  1  0.56751900  0.00000000  0.71555700  1
  Pb  Pb33  1  0.43248100  0.00000000  0.28444300  1
  Pb  Pb34  1  0.26569600  0.00000000  0.51299300  1
  Pb  Pb35  1  0.73430400  0.00000000  0.48700700  1
  Pb  Pb36  1  0.66730400  0.00000000  0.11578600  1
  Pb  Pb37  1  0.33269600  0.00000000  0.88421400  1
  Pb  Pb38  1  0.07197700  0.00000000  0.69454700  1
  Pb  Pb39  1  0.92802300  0.00000000  0.30545300  1
  O  O40  1  0.90543700  0.16849200  0.43671000  1
  O  O41  1  0.09456300  0.16849200  0.56329000  1
  O  O42  1  0.09456300  0.83150800  0.56329000  1
  O  O43  1  0.90543700  0.83150800  0.43671000  1
  O  O44  1  0.20062200  0.50000000  0.86031100  1
  O  O45  1  0.79937800  0.50000000  0.13968900  1
  O  O46  1  0.09880500  0.87785000  0.13658800  1
  O  O47  1  0.90119500  0.87785000  0.86341200  1
  O  O48  1  0.90119500  0.12215000  0.86341200  1
  O  O49  1  0.09880500  0.12215000  0.13658800  1
  O  O50  1  0.35375300  0.50000000  0.00683600  1
  O  O51  1  0.64624700  0.50000000  0.99316400  1
  O  O52  1  0.03198200  0.64141800  0.20704500  1
  O  O53  1  0.96801800  0.64141800  0.79295500  1
  O  O54  1  0.96801800  0.35858200  0.79295500  1
  O  O55  1  0.03198200  0.35858200  0.20704500  1
  O  O56  1  0.77278100  0.50000000  0.66321900  1
  O  O57  1  0.22721900  0.50000000  0.33678100  1
  O  O58  1  0.07189200  0.66018700  0.43839600  1
  O  O59  1  0.92810800  0.66018700  0.56160400  1
  O  O60  1  0.31190000  0.35841300  0.19508700  1
  O  O61  1  0.68810000  0.35841300  0.80491300  1
  O  O62  1  0.68810000  0.64158700  0.80491300  1
  O  O63  1  0.31190000  0.64158700  0.19508700  1
  O  O64  1  0.07189200  0.33981300  0.43839600  1
  O  O65  1  0.92810800  0.33981300  0.56160400  1
  O  O66  1  0.40543700  0.66849200  0.43671000  1
  O  O67  1  0.59456300  0.66849200  0.56329000  1
  O  O68  1  0.59456300  0.33150800  0.56329000  1
  O  O69  1  0.40543700  0.33150800  0.43671000  1
  O  O70  1  0.70062200  0.00000000  0.86031100  1
  O  O71  1  0.29937800  0.00000000  0.13968900  1
  O  O72  1  0.59880500  0.37785000  0.13658800  1
  O  O73  1  0.40119500  0.37785000  0.86341200  1
  O  O74  1  0.40119500  0.62215000  0.86341200  1
  O  O75  1  0.59880500  0.62215000  0.13658800  1
  O  O76  1  0.85375300  0.00000000  0.00683600  1
  O  O77  1  0.14624700  0.00000000  0.99316400  1
  O  O78  1  0.53198200  0.14141800  0.20704500  1
  O  O79  1  0.46801800  0.14141800  0.79295500  1
  O  O80  1  0.46801800  0.85858200  0.79295500  1
  O  O81  1  0.53198200  0.85858200  0.20704500  1
  O  O82  1  0.27278100  0.00000000  0.66321900  1
  O  O83  1  0.72721900  0.00000000  0.33678100  1
  O  O84  1  0.57189200  0.16018700  0.43839600  1
  O  O85  1  0.42810800  0.16018700  0.56160400  1
  O  O86  1  0.81190000  0.85841300  0.19508700  1
  O  O87  1  0.18810000  0.85841300  0.80491300  1
  O  O88  1  0.18810000  0.14158700  0.80491300  1
  O  O89  1  0.81190000  0.14158700  0.19508700  1
  O  O90  1  0.57189200  0.83981300  0.43839600  1
  O  O91  1  0.42810800  0.83981300  0.56160400  1
