# generated using pymatgen
data_La3TaO7
_symmetry_space_group_name_H-M   'P 1'
_cell_length_a   7.63954800
_cell_length_b   11.21680000
_cell_length_c   7.81800600
_cell_angle_alpha   90.00000000
_cell_angle_beta   90.00000000
_cell_angle_gamma   90.00000000
_symmetry_Int_Tables_number   1
_chemical_formula_structural   La3TaO7
_chemical_formula_sum   'La12 Ta4 O28'
_cell_volume   669.93495687
_cell_formula_units_Z   4
loop_
 _symmetry_equiv_pos_site_id
 _symmetry_equiv_pos_as_xyz
  1  'x, y, z'
loop_
 _atom_site_type_symbol
 _atom_site_label
 _atom_site_symmetry_multiplicity
 _atom_site_fract_x
 _atom_site_fract_y
 _atom_site_fract_z
 _atom_site_occupancy
  La  La0  1  0.00000000  0.00000000  0.00000000  1
  La  La1  1  0.00000000  0.00000000  0.50000000  1
  La  La2  1  0.70456650  0.77234550  0.75000000  1
  La  La3  1  0.29543350  0.22765450  0.25000000  1
  La  La4  1  0.70456650  0.22765450  0.75000000  1
  La  La5  1  0.29543350  0.77234550  0.25000000  1
  La  La6  1  0.50000000  0.50000000  0.00000000  1
  La  La7  1  0.50000000  0.50000000  0.50000000  1
  La  La8  1  0.20456650  0.27234550  0.75000000  1
  La  La9  1  0.79543350  0.72765450  0.25000000  1
  La  La10  1  0.20456650  0.72765450  0.75000000  1
  La  La11  1  0.79543350  0.27234550  0.25000000  1
  Ta  Ta12  1  0.50000000  0.00000000  0.00000000  1
  Ta  Ta13  1  0.50000000  0.00000000  0.50000000  1
  Ta  Ta14  1  0.00000000  0.50000000  0.00000000  1
  Ta  Ta15  1  0.00000000  0.50000000  0.50000000  1
  O  O16  1  0.47637950  0.36967250  0.75000000  1
  O  O17  1  0.52362050  0.63032750  0.25000000  1
  O  O18  1  0.47637950  0.63032750  0.75000000  1
  O  O19  1  0.52362050  0.36967250  0.25000000  1
  O  O20  1  0.31423350  0.12488350  0.96763500  1
  O  O21  1  0.68576650  0.87511650  0.46763500  1
  O  O22  1  0.31423350  0.87511650  0.53236500  1
  O  O23  1  0.68576650  0.12488350  0.03236500  1
  O  O24  1  0.43800800  0.00000000  0.25000000  1
  O  O25  1  0.56199200  0.00000000  0.75000000  1
  O  O26  1  0.31423350  0.87511650  0.96763500  1
  O  O27  1  0.68576650  0.12488350  0.46763500  1
  O  O28  1  0.31423350  0.12488350  0.53236500  1
  O  O29  1  0.68576650  0.87511650  0.03236500  1
  O  O30  1  0.97637950  0.86967250  0.75000000  1
  O  O31  1  0.02362050  0.13032750  0.25000000  1
  O  O32  1  0.97637950  0.13032750  0.75000000  1
  O  O33  1  0.02362050  0.86967250  0.25000000  1
  O  O34  1  0.81423350  0.62488350  0.96763500  1
  O  O35  1  0.18576650  0.37511650  0.46763500  1
  O  O36  1  0.81423350  0.37511650  0.53236500  1
  O  O37  1  0.18576650  0.62488350  0.03236500  1
  O  O38  1  0.93800800  0.50000000  0.25000000  1
  O  O39  1  0.06199200  0.50000000  0.75000000  1
  O  O40  1  0.81423350  0.37511650  0.96763500  1
  O  O41  1  0.18576650  0.62488350  0.46763500  1
  O  O42  1  0.81423350  0.62488350  0.53236500  1
  O  O43  1  0.18576650  0.37511650  0.03236500  1
