# generated using pymatgen
data_PtCl3
_symmetry_space_group_name_H-M   'P 1'
_cell_length_a   22.09944213
_cell_length_b   22.09944213
_cell_length_c   8.79985082
_cell_angle_alpha   90.00000000
_cell_angle_beta   90.00000000
_cell_angle_gamma   120.00000000
_symmetry_Int_Tables_number   1
_chemical_formula_structural   PtCl3
_chemical_formula_sum   'Pt36 Cl108'
_cell_volume   3721.93310164
_cell_formula_units_Z   36
loop_
 _symmetry_equiv_pos_site_id
 _symmetry_equiv_pos_as_xyz
  1  'x, y, z'
loop_
 _atom_site_type_symbol
 _atom_site_label
 _atom_site_symmetry_multiplicity
 _atom_site_fract_x
 _atom_site_fract_y
 _atom_site_fract_z
 _atom_site_occupancy
  Pt  Pt0  1  0.39318733  0.03401167  0.83594567  1
  Pt  Pt1  1  0.29932167  0.02584233  0.50261233  1
  Pt  Pt2  1  0.30749100  0.94014600  0.16927900  1
  Pt  Pt3  1  0.27347933  0.29932167  0.49738767  1
  Pt  Pt4  1  0.36734500  0.30749100  0.83072100  1
  Pt  Pt5  1  0.35917567  0.39318733  0.16405433  1
  Pt  Pt6  1  0.58078367  0.24139833  0.17571133  1
  Pt  Pt7  1  0.09193500  0.00605200  0.84237800  1
  Pt  Pt8  1  0.32728133  0.75254967  0.50904467  1
  Pt  Pt9  1  0.08588300  0.09193500  0.15762200  1
  Pt  Pt10  1  0.57473167  0.32728133  0.49095533  1
  Pt  Pt11  1  0.33938533  0.58078367  0.82428867  1
  Pt  Pt12  1  0.05985400  0.36734500  0.16927900  1
  Pt  Pt13  1  0.96598833  0.35917567  0.83594567  1
  Pt  Pt14  1  0.97415767  0.27347933  0.50261233  1
  Pt  Pt15  1  0.94014600  0.63265500  0.83072100  1
  Pt  Pt16  1  0.03401167  0.64082433  0.16405433  1
  Pt  Pt17  1  0.02584233  0.72652067  0.49738767  1
  Pt  Pt18  1  0.24745033  0.57473167  0.50904467  1
  Pt  Pt19  1  0.75860167  0.33938533  0.17571133  1
  Pt  Pt20  1  0.99394800  0.08588300  0.84237800  1
  Pt  Pt21  1  0.75254967  0.42526833  0.49095533  1
  Pt  Pt22  1  0.24139833  0.66061467  0.82428867  1
  Pt  Pt23  1  0.00605200  0.91411700  0.15762200  1
  Pt  Pt24  1  0.72652067  0.70067833  0.50261233  1
  Pt  Pt25  1  0.63265500  0.69250900  0.16927900  1
  Pt  Pt26  1  0.64082433  0.60681267  0.83594567  1
  Pt  Pt27  1  0.60681267  0.96598833  0.16405433  1
  Pt  Pt28  1  0.70067833  0.97415767  0.49738767  1
  Pt  Pt29  1  0.69250900  0.05985400  0.83072100  1
  Pt  Pt30  1  0.91411700  0.90806500  0.84237800  1
  Pt  Pt31  1  0.42526833  0.67271867  0.50904467  1
  Pt  Pt32  1  0.66061467  0.41921633  0.17571133  1
  Pt  Pt33  1  0.41921633  0.75860167  0.82428867  1
  Pt  Pt34  1  0.90806500  0.99394800  0.15762200  1
  Pt  Pt35  1  0.67271867  0.24745033  0.49095533  1
  Cl  Cl36  1  0.47938933  0.12696267  0.98086767  1
  Cl  Cl37  1  0.20637067  0.01909333  0.64753433  1
  Cl  Cl38  1  0.31424000  0.85394400  0.31420100  1
  Cl  Cl39  1  0.18727733  0.20637067  0.35246567  1
  Cl  Cl40  1  0.46029600  0.31424000  0.68579900  1
  Cl  Cl41  1  0.35242667  0.47938933  0.01913233  1
  Cl  Cl42  1  0.47953367  0.03468133  0.68685333  1
  Cl  Cl43  1  0.29865200  0.11151900  0.35352000  1
  Cl  Cl44  1  0.22181433  0.85379967  0.02018667  1
  Cl  Cl45  1  0.18713300  0.29865200  0.64648000  1
  Cl  Cl46  1  0.36801467  0.22181433  0.97981333  1
  Cl  Cl47  1  0.44485233  0.47953367  0.31314667  1
  Cl  Cl48  1  0.09483800  0.92251300  0.99967400  1
  Cl  Cl49  1  0.49434167  0.23849533  0.33300733  1
  Cl  Cl50  1  0.41082033  0.83899167  0.66634067  1
  Cl  Cl51  1  0.57182867  0.41082033  0.33365933  1
  Cl  Cl52  1  0.17232500  0.09483800  0.00032600  1
  Cl  Cl53  1  0.25584633  0.49434167  0.66699267  1
  Cl  Cl54  1  0.08913033  0.00588067  0.30517867  1
  Cl  Cl55  1  0.58341700  0.24420300  0.63851200  1
  Cl  Cl56  1  0.32745267  0.74991633  0.97184533  1
  Cl  Cl57  1  0.57753633  0.32745267  0.02815467  1
  Cl  Cl58  1  0.08324967  0.08913033  0.69482133  1
  Cl  Cl59  1  0.33921400  0.58341700  0.36148800  1
  Cl  Cl60  1  0.44411600  0.39573700  0.99878400  1
  Cl  Cl61  1  0.28495433  0.22255067  0.66545067  1
  Cl  Cl62  1  0.27092967  0.38171233  0.33211733  1
  Cl  Cl63  1  0.22255067  0.93759633  0.33454933  1
  Cl  Cl64  1  0.38171233  0.11078267  0.66788267  1
  Cl  Cl65  1  0.39573700  0.95162100  0.00121600  1
  Cl  Cl66  1  0.36111833  0.30435267  0.32980467  1
  Cl  Cl67  1  0.27656767  0.30554833  0.99647133  1
  Cl  Cl68  1  0.36231400  0.39009900  0.66313800  1
  Cl  Cl69  1  0.30554833  0.02898067  0.00352867  1
  Cl  Cl70  1  0.39009900  0.02778500  0.33686200  1
  Cl  Cl71  1  0.30435267  0.94323433  0.67019533  1
  Cl  Cl72  1  0.14605600  0.46029600  0.31420100  1
  Cl  Cl73  1  0.87303733  0.35242667  0.98086767  1
  Cl  Cl74  1  0.98090667  0.18727733  0.64753433  1
  Cl  Cl75  1  0.85394400  0.53970400  0.68579900  1
  Cl  Cl76  1  0.12696267  0.64757333  0.01913233  1
  Cl  Cl77  1  0.01909333  0.81272267  0.35246567  1
  Cl  Cl78  1  0.14620033  0.36801467  0.02018667  1
  Cl  Cl79  1  0.96531867  0.44485233  0.68685333  1
  Cl  Cl80  1  0.88848100  0.18713300  0.35352000  1
  Cl  Cl81  1  0.85379967  0.63198533  0.97981333  1
  Cl  Cl82  1  0.03468133  0.55514767  0.31314667  1
  Cl  Cl83  1  0.11151900  0.81286700  0.64648000  1
  Cl  Cl84  1  0.76150467  0.25584633  0.33300733  1
  Cl  Cl85  1  0.16100833  0.57182867  0.66634067  1
  Cl  Cl86  1  0.07748700  0.17232500  0.99967400  1
  Cl  Cl87  1  0.23849533  0.74415367  0.66699267  1
  Cl  Cl88  1  0.83899167  0.42817133  0.33365933  1
  Cl  Cl89  1  0.92251300  0.82767500  0.00032600  1
  Cl  Cl90  1  0.75579700  0.33921400  0.63851200  1
  Cl  Cl91  1  0.25008367  0.57753633  0.97184533  1
  Cl  Cl92  1  0.99411933  0.08324967  0.30517867  1
  Cl  Cl93  1  0.24420300  0.66078600  0.36148800  1
  Cl  Cl94  1  0.74991633  0.42246367  0.02815467  1
  Cl  Cl95  1  0.00588067  0.91675033  0.69482133  1
  Cl  Cl96  1  0.11078267  0.72907033  0.33211733  1
  Cl  Cl97  1  0.95162100  0.55588400  0.99878400  1
  Cl  Cl98  1  0.93759633  0.71504567  0.66545067  1
  Cl  Cl99  1  0.88921733  0.27092967  0.66788267  1
  Cl  Cl100  1  0.04837900  0.44411600  0.00121600  1
  Cl  Cl101  1  0.06240367  0.28495433  0.33454933  1
  Cl  Cl102  1  0.02778500  0.63768600  0.66313800  1
  Cl  Cl103  1  0.94323433  0.63888167  0.32980467  1
  Cl  Cl104  1  0.02898067  0.72343233  0.99647133  1
  Cl  Cl105  1  0.97221500  0.36231400  0.33686200  1
  Cl  Cl106  1  0.05676567  0.36111833  0.67019533  1
  Cl  Cl107  1  0.97101933  0.27656767  0.00352867  1
  Cl  Cl108  1  0.81272267  0.79362933  0.64753433  1
  Cl  Cl109  1  0.53970400  0.68576000  0.31420100  1
  Cl  Cl110  1  0.64757333  0.52061067  0.98086767  1
  Cl  Cl111  1  0.52061067  0.87303733  0.01913233  1
  Cl  Cl112  1  0.79362933  0.98090667  0.35246567  1
  Cl  Cl113  1  0.68576000  0.14605600  0.68579900  1
  Cl  Cl114  1  0.81286700  0.70134800  0.35352000  1
  Cl  Cl115  1  0.63198533  0.77818567  0.02018667  1
  Cl  Cl116  1  0.55514767  0.52046633  0.68685333  1
  Cl  Cl117  1  0.52046633  0.96531867  0.31314667  1
  Cl  Cl118  1  0.70134800  0.88848100  0.64648000  1
  Cl  Cl119  1  0.77818567  0.14620033  0.97981333  1
  Cl  Cl120  1  0.42817133  0.58917967  0.66634067  1
  Cl  Cl121  1  0.82767500  0.90516200  0.99967400  1
  Cl  Cl122  1  0.74415367  0.50565833  0.33300733  1
  Cl  Cl123  1  0.90516200  0.07748700  0.00032600  1
  Cl  Cl124  1  0.50565833  0.76150467  0.66699267  1
  Cl  Cl125  1  0.58917967  0.16100833  0.33365933  1
  Cl  Cl126  1  0.42246367  0.67254733  0.97184533  1
  Cl  Cl127  1  0.91675033  0.91086967  0.30517867  1
  Cl  Cl128  1  0.66078600  0.41658300  0.63851200  1
  Cl  Cl129  1  0.91086967  0.99411933  0.69482133  1
  Cl  Cl130  1  0.41658300  0.75579700  0.36148800  1
  Cl  Cl131  1  0.67254733  0.25008367  0.02815467  1
  Cl  Cl132  1  0.77744933  0.06240367  0.66545067  1
  Cl  Cl133  1  0.61828767  0.88921733  0.33211733  1
  Cl  Cl134  1  0.60426300  0.04837900  0.99878400  1
  Cl  Cl135  1  0.55588400  0.60426300  0.00121600  1
  Cl  Cl136  1  0.71504567  0.77744933  0.33454933  1
  Cl  Cl137  1  0.72907033  0.61828767  0.66788267  1
  Cl  Cl138  1  0.69445167  0.97101933  0.99647133  1
  Cl  Cl139  1  0.60990100  0.97221500  0.66313800  1
  Cl  Cl140  1  0.69564733  0.05676567  0.32980467  1
  Cl  Cl141  1  0.63888167  0.69564733  0.67019533  1
  Cl  Cl142  1  0.72343233  0.69445167  0.00352867  1
  Cl  Cl143  1  0.63768600  0.60990100  0.33686200  1
