# generated using pymatgen
data_K2SbF5
_symmetry_space_group_name_H-M   'P 1'
_cell_length_a   6.40087400
_cell_length_b   14.06275800
_cell_length_c   6.63466900
_cell_angle_alpha   90.00000000
_cell_angle_beta   90.00000000
_cell_angle_gamma   90.00000000
_symmetry_Int_Tables_number   1
_chemical_formula_structural   K2SbF5
_chemical_formula_sum   'K8 Sb4 F20'
_cell_volume   597.21271089
_cell_formula_units_Z   4
loop_
 _symmetry_equiv_pos_site_id
 _symmetry_equiv_pos_as_xyz
  1  'x, y, z'
loop_
 _atom_site_type_symbol
 _atom_site_label
 _atom_site_symmetry_multiplicity
 _atom_site_fract_x
 _atom_site_fract_y
 _atom_site_fract_z
 _atom_site_occupancy
  K  K0  1  0.00000000  0.75184800  0.25000000  1
  K  K1  1  0.50000000  0.74815200  0.75000000  1
  K  K2  1  0.00000000  0.57217400  0.75000000  1
  K  K3  1  0.50000000  0.92782600  0.25000000  1
  K  K4  1  0.50000000  0.25184800  0.25000000  1
  K  K5  1  0.00000000  0.24815200  0.75000000  1
  K  K6  1  0.50000000  0.07217400  0.75000000  1
  K  K7  1  0.00000000  0.42782600  0.25000000  1
  Sb  Sb8  1  0.50000000  0.59317100  0.25000000  1
  Sb  Sb9  1  0.00000000  0.90682900  0.75000000  1
  Sb  Sb10  1  0.00000000  0.09317100  0.25000000  1
  Sb  Sb11  1  0.50000000  0.40682900  0.75000000  1
  F  F12  1  0.73372250  0.61976450  0.46871500  1
  F  F13  1  0.23372250  0.88023550  0.53128500  1
  F  F14  1  0.76627750  0.88023550  0.96871500  1
  F  F15  1  0.26627750  0.61976450  0.03128500  1
  F  F16  1  0.76627750  0.88023550  0.53128500  1
  F  F17  1  0.26627750  0.61976450  0.46871500  1
  F  F18  1  0.00000000  0.76546600  0.75000000  1
  F  F19  1  0.50000000  0.73453400  0.25000000  1
  F  F20  1  0.23372250  0.88023550  0.96871500  1
  F  F21  1  0.73372250  0.61976450  0.03128500  1
  F  F22  1  0.23372250  0.11976450  0.46871500  1
  F  F23  1  0.73372250  0.38023550  0.53128500  1
  F  F24  1  0.26627750  0.38023550  0.96871500  1
  F  F25  1  0.76627750  0.11976450  0.03128500  1
  F  F26  1  0.26627750  0.38023550  0.53128500  1
  F  F27  1  0.76627750  0.11976450  0.46871500  1
  F  F28  1  0.50000000  0.26546600  0.75000000  1
  F  F29  1  0.00000000  0.23453400  0.25000000  1
  F  F30  1  0.73372250  0.38023550  0.96871500  1
  F  F31  1  0.23372250  0.11976450  0.03128500  1
