# generated using pymatgen
data_B6H10N
_symmetry_space_group_name_H-M   'P 1'
_cell_length_a   10.99586000
_cell_length_b   10.99586000
_cell_length_c   10.99586000
_cell_angle_alpha   90.00000000
_cell_angle_beta   90.00000000
_cell_angle_gamma   90.00000000
_symmetry_Int_Tables_number   1
_chemical_formula_structural   B6H10N
_chemical_formula_sum   'B48 H80 N8'
_cell_volume   1329.49774554
_cell_formula_units_Z   8
loop_
 _symmetry_equiv_pos_site_id
 _symmetry_equiv_pos_as_xyz
  1  'x, y, z'
loop_
 _atom_site_type_symbol
 _atom_site_label
 _atom_site_symmetry_multiplicity
 _atom_site_fract_x
 _atom_site_fract_y
 _atom_site_fract_z
 _atom_site_occupancy
  B  B0  1  0.58062400  0.00000000  0.63111400  1
  B  B1  1  0.41937600  0.00000000  0.63111400  1
  B  B2  1  0.41937600  0.00000000  0.36888600  1
  B  B3  1  0.00000000  0.13111400  0.91937600  1
  B  B4  1  0.13111400  0.08062400  0.00000000  1
  B  B5  1  0.00000000  0.13111400  0.08062400  1
  B  B6  1  0.36888600  0.41937600  0.00000000  1
  B  B7  1  0.86888600  0.08062400  0.00000000  1
  B  B8  1  0.50000000  0.36888600  0.08062400  1
  B  B9  1  0.50000000  0.36888600  0.91937600  1
  B  B10  1  0.63111400  0.41937600  0.00000000  1
  B  B11  1  0.58062400  0.00000000  0.36888600  1
  B  B12  1  0.58062400  0.50000000  0.13111400  1
  B  B13  1  0.41937600  0.50000000  0.13111400  1
  B  B14  1  0.41937600  0.50000000  0.86888600  1
  B  B15  1  0.00000000  0.63111400  0.41937600  1
  B  B16  1  0.13111400  0.58062400  0.50000000  1
  B  B17  1  0.00000000  0.63111400  0.58062400  1
  B  B18  1  0.36888600  0.91937600  0.50000000  1
  B  B19  1  0.86888600  0.58062400  0.50000000  1
  B  B20  1  0.50000000  0.86888600  0.58062400  1
  B  B21  1  0.50000000  0.86888600  0.41937600  1
  B  B22  1  0.63111400  0.91937600  0.50000000  1
  B  B23  1  0.58062400  0.50000000  0.86888600  1
  B  B24  1  0.08062400  0.00000000  0.13111400  1
  B  B25  1  0.91937600  0.00000000  0.13111400  1
  B  B26  1  0.91937600  0.00000000  0.86888600  1
  B  B27  1  0.50000000  0.13111400  0.41937600  1
  B  B28  1  0.63111400  0.08062400  0.50000000  1
  B  B29  1  0.50000000  0.13111400  0.58062400  1
  B  B30  1  0.86888600  0.41937600  0.50000000  1
  B  B31  1  0.36888600  0.08062400  0.50000000  1
  B  B32  1  0.00000000  0.36888600  0.58062400  1
  B  B33  1  0.00000000  0.36888600  0.41937600  1
  B  B34  1  0.13111400  0.41937600  0.50000000  1
  B  B35  1  0.08062400  0.00000000  0.86888600  1
  B  B36  1  0.08062400  0.50000000  0.63111400  1
  B  B37  1  0.91937600  0.50000000  0.63111400  1
  B  B38  1  0.91937600  0.50000000  0.36888600  1
  B  B39  1  0.50000000  0.63111400  0.91937600  1
  B  B40  1  0.63111400  0.58062400  0.00000000  1
  B  B41  1  0.50000000  0.63111400  0.08062400  1
  B  B42  1  0.86888600  0.91937600  0.00000000  1
  B  B43  1  0.36888600  0.58062400  0.00000000  1
  B  B44  1  0.00000000  0.86888600  0.08062400  1
  B  B45  1  0.00000000  0.86888600  0.91937600  1
  B  B46  1  0.13111400  0.91937600  0.00000000  1
  B  B47  1  0.08062400  0.50000000  0.36888600  1
  H  H48  1  0.30428667  0.30428667  0.80428667  1
  H  H49  1  0.19571333  0.30428667  0.69571333  1
  H  H50  1  0.19571333  0.19571333  0.80428667  1
  H  H51  1  0.30428667  0.19571333  0.69571333  1
  H  H52  1  0.19571333  0.19571333  0.19571333  1
  H  H53  1  0.30428667  0.19571333  0.30428667  1
  H  H54  1  0.30428667  0.30428667  0.19571333  1
  H  H55  1  0.19571333  0.30428667  0.30428667  1
  H  H56  1  0.63736500  0.00000000  0.72472800  1
  H  H57  1  0.36263500  0.00000000  0.72472800  1
  H  H58  1  0.36263500  0.00000000  0.27527200  1
  H  H59  1  0.00000000  0.22472800  0.86263500  1
  H  H60  1  0.22472800  0.13736500  0.00000000  1
  H  H61  1  0.00000000  0.22472800  0.13736500  1
  H  H62  1  0.63736500  0.00000000  0.27527200  1
  H  H63  1  0.72472800  0.36263500  0.00000000  1
  H  H64  1  0.50000000  0.27527200  0.86263500  1
  H  H65  1  0.50000000  0.27527200  0.13736500  1
  H  H66  1  0.77527200  0.13736500  0.00000000  1
  H  H67  1  0.27527200  0.36263500  0.00000000  1
  H  H68  1  0.30428667  0.80428667  0.30428667  1
  H  H69  1  0.19571333  0.80428667  0.19571333  1
  H  H70  1  0.19571333  0.69571333  0.30428667  1
  H  H71  1  0.30428667  0.69571333  0.19571333  1
  H  H72  1  0.19571333  0.69571333  0.69571333  1
  H  H73  1  0.30428667  0.69571333  0.80428667  1
  H  H74  1  0.30428667  0.80428667  0.69571333  1
  H  H75  1  0.19571333  0.80428667  0.80428667  1
  H  H76  1  0.63736500  0.50000000  0.22472800  1
  H  H77  1  0.36263500  0.50000000  0.22472800  1
  H  H78  1  0.36263500  0.50000000  0.77527200  1
  H  H79  1  0.00000000  0.72472800  0.36263500  1
  H  H80  1  0.22472800  0.63736500  0.50000000  1
  H  H81  1  0.00000000  0.72472800  0.63736500  1
  H  H82  1  0.63736500  0.50000000  0.77527200  1
  H  H83  1  0.72472800  0.86263500  0.50000000  1
  H  H84  1  0.50000000  0.77527200  0.36263500  1
  H  H85  1  0.50000000  0.77527200  0.63736500  1
  H  H86  1  0.77527200  0.63736500  0.50000000  1
  H  H87  1  0.27527200  0.86263500  0.50000000  1
  H  H88  1  0.80428667  0.30428667  0.30428667  1
  H  H89  1  0.69571333  0.30428667  0.19571333  1
  H  H90  1  0.69571333  0.19571333  0.30428667  1
  H  H91  1  0.80428667  0.19571333  0.19571333  1
  H  H92  1  0.69571333  0.19571333  0.69571333  1
  H  H93  1  0.80428667  0.19571333  0.80428667  1
  H  H94  1  0.80428667  0.30428667  0.69571333  1
  H  H95  1  0.69571333  0.30428667  0.80428667  1
  H  H96  1  0.13736500  0.00000000  0.22472800  1
  H  H97  1  0.86263500  0.00000000  0.22472800  1
  H  H98  1  0.86263500  0.00000000  0.77527200  1
  H  H99  1  0.50000000  0.22472800  0.36263500  1
  H  H100  1  0.72472800  0.13736500  0.50000000  1
  H  H101  1  0.50000000  0.22472800  0.63736500  1
  H  H102  1  0.13736500  0.00000000  0.77527200  1
  H  H103  1  0.22472800  0.36263500  0.50000000  1
  H  H104  1  0.00000000  0.27527200  0.36263500  1
  H  H105  1  0.00000000  0.27527200  0.63736500  1
  H  H106  1  0.27527200  0.13736500  0.50000000  1
  H  H107  1  0.77527200  0.36263500  0.50000000  1
  H  H108  1  0.80428667  0.80428667  0.80428667  1
  H  H109  1  0.69571333  0.80428667  0.69571333  1
  H  H110  1  0.69571333  0.69571333  0.80428667  1
  H  H111  1  0.80428667  0.69571333  0.69571333  1
  H  H112  1  0.69571333  0.69571333  0.19571333  1
  H  H113  1  0.80428667  0.69571333  0.30428667  1
  H  H114  1  0.80428667  0.80428667  0.19571333  1
  H  H115  1  0.69571333  0.80428667  0.30428667  1
  H  H116  1  0.13736500  0.50000000  0.72472800  1
  H  H117  1  0.86263500  0.50000000  0.72472800  1
  H  H118  1  0.86263500  0.50000000  0.27527200  1
  H  H119  1  0.50000000  0.72472800  0.86263500  1
  H  H120  1  0.72472800  0.63736500  0.00000000  1
  H  H121  1  0.50000000  0.72472800  0.13736500  1
  H  H122  1  0.13736500  0.50000000  0.27527200  1
  H  H123  1  0.22472800  0.86263500  0.00000000  1
  H  H124  1  0.00000000  0.77527200  0.86263500  1
  H  H125  1  0.00000000  0.77527200  0.13736500  1
  H  H126  1  0.27527200  0.63736500  0.00000000  1
  H  H127  1  0.77527200  0.86263500  0.00000000  1
  N  N128  1  0.25000000  0.25000000  0.75000000  1
  N  N129  1  0.25000000  0.25000000  0.25000000  1
  N  N130  1  0.25000000  0.75000000  0.25000000  1
  N  N131  1  0.25000000  0.75000000  0.75000000  1
  N  N132  1  0.75000000  0.25000000  0.25000000  1
  N  N133  1  0.75000000  0.25000000  0.75000000  1
  N  N134  1  0.75000000  0.75000000  0.75000000  1
  N  N135  1  0.75000000  0.75000000  0.25000000  1
