# generated using pymatgen
data_ErAgS2
_symmetry_space_group_name_H-M   'P 1'
_cell_length_a   5.38549800
_cell_length_b   5.38549800
_cell_length_c   12.12432800
_cell_angle_alpha   90.00000000
_cell_angle_beta   90.00000000
_cell_angle_gamma   90.00000000
_symmetry_Int_Tables_number   1
_chemical_formula_structural   ErAgS2
_chemical_formula_sum   'Er4 Ag4 S8'
_cell_volume   351.64902267
_cell_formula_units_Z   4
loop_
 _symmetry_equiv_pos_site_id
 _symmetry_equiv_pos_as_xyz
  1  'x, y, z'
loop_
 _atom_site_type_symbol
 _atom_site_label
 _atom_site_symmetry_multiplicity
 _atom_site_fract_x
 _atom_site_fract_y
 _atom_site_fract_z
 _atom_site_occupancy
  Er  Er0  1  0.50000000  0.50000000  0.00000000  1
  Er  Er1  1  0.50000000  0.00000000  0.25000000  1
  Er  Er2  1  0.00000000  0.00000000  0.50000000  1
  Er  Er3  1  0.00000000  0.50000000  0.75000000  1
  Ag  Ag4  1  0.00000000  0.50000000  0.25000000  1
  Ag  Ag5  1  0.00000000  0.00000000  0.00000000  1
  Ag  Ag6  1  0.50000000  0.00000000  0.75000000  1
  Ag  Ag7  1  0.50000000  0.50000000  0.50000000  1
  S  S8  1  0.50000000  0.50000000  0.22467100  1
  S  S9  1  0.50000000  0.00000000  0.02532900  1
  S  S10  1  0.50000000  0.00000000  0.47467100  1
  S  S11  1  0.00000000  0.00000000  0.27532900  1
  S  S12  1  0.00000000  0.00000000  0.72467100  1
  S  S13  1  0.00000000  0.50000000  0.52532900  1
  S  S14  1  0.00000000  0.50000000  0.97467100  1
  S  S15  1  0.50000000  0.50000000  0.77532900  1
