# generated using pymatgen
data_Ba3P2
_symmetry_space_group_name_H-M   'P 1'
_cell_length_a   9.90436600
_cell_length_b   9.90436600
_cell_length_c   29.67606800
_cell_angle_alpha   90.00000000
_cell_angle_beta   90.00000000
_cell_angle_gamma   90.00000000
_symmetry_Int_Tables_number   1
_chemical_formula_structural   Ba3P2
_chemical_formula_sum   'Ba48 P32'
_cell_volume   2911.11739148
_cell_formula_units_Z   16
loop_
 _symmetry_equiv_pos_site_id
 _symmetry_equiv_pos_as_xyz
  1  'x, y, z'
loop_
 _atom_site_type_symbol
 _atom_site_label
 _atom_site_symmetry_multiplicity
 _atom_site_fract_x
 _atom_site_fract_y
 _atom_site_fract_z
 _atom_site_occupancy
  Ba  Ba0  1  0.80995300  0.05797600  0.43585400  1
  Ba  Ba1  1  0.43404850  0.30922750  0.38981850  1
  Ba  Ba2  1  0.19004700  0.94202400  0.43585400  1
  Ba  Ba3  1  0.30995300  0.94202400  0.31414600  1
  Ba  Ba4  1  0.69004700  0.05797600  0.31414600  1
  Ba  Ba5  1  0.56595150  0.69077250  0.38981850  1
  Ba  Ba6  1  0.06595150  0.30922750  0.36018150  1
  Ba  Ba7  1  0.33396700  0.58340900  0.26919900  1
  Ba  Ba8  1  0.93404850  0.69077250  0.36018150  1
  Ba  Ba9  1  0.91659100  0.83396700  0.23080100  1
  Ba  Ba10  1  0.66603300  0.41659100  0.26919900  1
  Ba  Ba11  1  0.80922750  0.43404850  0.13981850  1
  Ba  Ba12  1  0.19077250  0.56595150  0.13981850  1
  Ba  Ba13  1  0.08340900  0.16603300  0.23080100  1
  Ba  Ba14  1  0.55797600  0.80995300  0.18585400  1
  Ba  Ba15  1  0.80922750  0.06595150  0.11018150  1
  Ba  Ba16  1  0.44202400  0.19004700  0.18585400  1
  Ba  Ba17  1  0.44202400  0.30995300  0.06414600  1
  Ba  Ba18  1  0.19077250  0.93404850  0.11018150  1
  Ba  Ba19  1  0.83396700  0.41659100  0.48080100  1
  Ba  Ba20  1  0.16603300  0.58340900  0.48080100  1
  Ba  Ba21  1  0.55797600  0.69004700  0.06414600  1
  Ba  Ba22  1  0.08340900  0.33396700  0.01919900  1
  Ba  Ba23  1  0.91659100  0.66603300  0.01919900  1
  Ba  Ba24  1  0.30995300  0.55797600  0.93585400  1
  Ba  Ba25  1  0.93404850  0.80922750  0.88981850  1
  Ba  Ba26  1  0.69004700  0.44202400  0.93585400  1
  Ba  Ba27  1  0.80995300  0.44202400  0.81414600  1
  Ba  Ba28  1  0.19004700  0.55797600  0.81414600  1
  Ba  Ba29  1  0.06595150  0.19077250  0.88981850  1
  Ba  Ba30  1  0.56595150  0.80922750  0.86018150  1
  Ba  Ba31  1  0.83396700  0.08340900  0.76919900  1
  Ba  Ba32  1  0.43404850  0.19077250  0.86018150  1
  Ba  Ba33  1  0.41659100  0.33396700  0.73080100  1
  Ba  Ba34  1  0.16603300  0.91659100  0.76919900  1
  Ba  Ba35  1  0.30922750  0.93404850  0.63981850  1
  Ba  Ba36  1  0.69077250  0.06595150  0.63981850  1
  Ba  Ba37  1  0.58340900  0.66603300  0.73080100  1
  Ba  Ba38  1  0.05797600  0.30995300  0.68585400  1
  Ba  Ba39  1  0.30922750  0.56595150  0.61018150  1
  Ba  Ba40  1  0.94202400  0.69004700  0.68585400  1
  Ba  Ba41  1  0.94202400  0.80995300  0.56414600  1
  Ba  Ba42  1  0.69077250  0.43404850  0.61018150  1
  Ba  Ba43  1  0.33396700  0.91659100  0.98080100  1
  Ba  Ba44  1  0.66603300  0.08340900  0.98080100  1
  Ba  Ba45  1  0.05797600  0.19004700  0.56414600  1
  Ba  Ba46  1  0.58340900  0.83396700  0.51919900  1
  Ba  Ba47  1  0.41659100  0.16603300  0.51919900  1
  P  P48  1  0.50000000  0.00000000  0.41534600  1
  P  P49  1  0.25000000  0.62108500  0.37500000  1
  P  P50  1  0.00000000  0.00000000  0.33465400  1
  P  P51  1  0.63824200  0.73884000  0.28819600  1
  P  P52  1  0.75000000  0.37891500  0.37500000  1
  P  P53  1  0.36175800  0.26116000  0.28819600  1
  P  P54  1  0.76116000  0.13824200  0.21180400  1
  P  P55  1  0.12108500  0.25000000  0.12500000  1
  P  P56  1  0.50000000  0.50000000  0.16534600  1
  P  P57  1  0.23884000  0.86175800  0.21180400  1
  P  P58  1  0.87891500  0.75000000  0.12500000  1
  P  P59  1  0.50000000  0.00000000  0.08465400  1
  P  P60  1  0.23884000  0.63824200  0.03819600  1
  P  P61  1  0.13824200  0.26116000  0.46180400  1
  P  P62  1  0.76116000  0.36175800  0.03819600  1
  P  P63  1  0.86175800  0.73884000  0.46180400  1
  P  P64  1  0.00000000  0.50000000  0.91534600  1
  P  P65  1  0.75000000  0.12108500  0.87500000  1
  P  P66  1  0.50000000  0.50000000  0.83465400  1
  P  P67  1  0.13824200  0.23884000  0.78819600  1
  P  P68  1  0.25000000  0.87891500  0.87500000  1
  P  P69  1  0.86175800  0.76116000  0.78819600  1
  P  P70  1  0.26116000  0.63824200  0.71180400  1
  P  P71  1  0.62108500  0.75000000  0.62500000  1
  P  P72  1  0.00000000  0.00000000  0.66534600  1
  P  P73  1  0.73884000  0.36175800  0.71180400  1
  P  P74  1  0.37891500  0.25000000  0.62500000  1
  P  P75  1  0.00000000  0.50000000  0.58465400  1
  P  P76  1  0.73884000  0.13824200  0.53819600  1
  P  P77  1  0.63824200  0.76116000  0.96180400  1
  P  P78  1  0.26116000  0.86175800  0.53819600  1
  P  P79  1  0.36175800  0.23884000  0.96180400  1
