# generated using pymatgen
data_SrSiO3
_symmetry_space_group_name_H-M   'P 1'
_cell_length_a   12.48725200
_cell_length_b   7.23757000
_cell_length_c   10.99545132
_cell_angle_alpha   90.00000000
_cell_angle_beta   111.65608540
_cell_angle_gamma   90.00000000
_symmetry_Int_Tables_number   1
_chemical_formula_structural   SrSiO3
_chemical_formula_sum   'Sr12 Si12 O36'
_cell_volume   923.59742671
_cell_formula_units_Z   12
loop_
 _symmetry_equiv_pos_site_id
 _symmetry_equiv_pos_as_xyz
  1  'x, y, z'
loop_
 _atom_site_type_symbol
 _atom_site_label
 _atom_site_symmetry_multiplicity
 _atom_site_fract_x
 _atom_site_fract_y
 _atom_site_fract_z
 _atom_site_occupancy
  Sr  Sr0  1  0.58728350  0.26085850  0.99913800  1
  Sr  Sr1  1  0.41271650  0.26085850  0.50086200  1
  Sr  Sr2  1  0.41271650  0.73914150  0.00086200  1
  Sr  Sr3  1  0.58728350  0.73914150  0.49913800  1
  Sr  Sr4  1  0.75000000  0.25000000  0.50000000  1
  Sr  Sr5  1  0.75000000  0.75000000  0.00000000  1
  Sr  Sr6  1  0.08728350  0.76085850  0.99913800  1
  Sr  Sr7  1  0.91271650  0.76085850  0.50086200  1
  Sr  Sr8  1  0.91271650  0.23914150  0.00086200  1
  Sr  Sr9  1  0.08728350  0.23914150  0.49913800  1
  Sr  Sr10  1  0.25000000  0.75000000  0.50000000  1
  Sr  Sr11  1  0.25000000  0.25000000  0.00000000  1
  Si  Si12  1  0.62373900  0.04201800  0.74628200  1
  Si  Si13  1  0.37626100  0.04201800  0.75371800  1
  Si  Si14  1  0.37626100  0.95798200  0.25371800  1
  Si  Si15  1  0.62373900  0.95798200  0.24628200  1
  Si  Si16  1  0.50000000  0.66913900  0.75000000  1
  Si  Si17  1  0.50000000  0.33086100  0.25000000  1
  Si  Si18  1  0.12373900  0.54201800  0.74628200  1
  Si  Si19  1  0.87626100  0.54201800  0.75371800  1
  Si  Si20  1  0.87626100  0.45798200  0.25371800  1
  Si  Si21  1  0.12373900  0.45798200  0.24628200  1
  Si  Si22  1  0.00000000  0.16913900  0.75000000  1
  Si  Si23  1  0.00000000  0.83086100  0.25000000  1
  O  O24  1  0.62712650  0.09200450  0.60513600  1
  O  O25  1  0.37287350  0.09200450  0.89486400  1
  O  O26  1  0.37287350  0.90799550  0.39486400  1
  O  O27  1  0.62712650  0.90799550  0.10513600  1
  O  O28  1  0.72205550  0.09397450  0.88489800  1
  O  O29  1  0.27794450  0.09397450  0.61510200  1
  O  O30  1  0.27794450  0.90602550  0.11510200  1
  O  O31  1  0.72205550  0.90602550  0.38489800  1
  O  O32  1  0.60676600  0.81065000  0.74828600  1
  O  O33  1  0.39323400  0.81065000  0.75171400  1
  O  O34  1  0.39323400  0.18935000  0.25171400  1
  O  O35  1  0.60676600  0.18935000  0.24828600  1
  O  O36  1  0.54718450  0.56611750  0.88934400  1
  O  O37  1  0.45281550  0.56611750  0.61065600  1
  O  O38  1  0.45281550  0.43388250  0.11065600  1
  O  O39  1  0.54718450  0.43388250  0.38934400  1
  O  O40  1  0.50000000  0.13169700  0.75000000  1
  O  O41  1  0.50000000  0.86830300  0.25000000  1
  O  O42  1  0.12712650  0.59200450  0.60513600  1
  O  O43  1  0.87287350  0.59200450  0.89486400  1
  O  O44  1  0.87287350  0.40799550  0.39486400  1
  O  O45  1  0.12712650  0.40799550  0.10513600  1
  O  O46  1  0.22205550  0.59397450  0.88489800  1
  O  O47  1  0.77794450  0.59397450  0.61510200  1
  O  O48  1  0.77794450  0.40602550  0.11510200  1
  O  O49  1  0.22205550  0.40602550  0.38489800  1
  O  O50  1  0.10676600  0.31065000  0.74828600  1
  O  O51  1  0.89323400  0.31065000  0.75171400  1
  O  O52  1  0.89323400  0.68935000  0.25171400  1
  O  O53  1  0.10676600  0.68935000  0.24828600  1
  O  O54  1  0.04718450  0.06611750  0.88934400  1
  O  O55  1  0.95281550  0.06611750  0.61065600  1
  O  O56  1  0.95281550  0.93388250  0.11065600  1
  O  O57  1  0.04718450  0.93388250  0.38934400  1
  O  O58  1  0.00000000  0.63169700  0.75000000  1
  O  O59  1  0.00000000  0.36830300  0.25000000  1
