# generated using pymatgen
data_SbKr3F11
_symmetry_space_group_name_H-M   'P 1'
_cell_length_a   8.26862400
_cell_length_b   8.87482400
_cell_length_c   9.26700003
_cell_angle_alpha   110.02451797
_cell_angle_beta   115.94460000
_cell_angle_gamma   83.37250809
_symmetry_Int_Tables_number   1
_chemical_formula_structural   SbKr3F11
_chemical_formula_sum   'Sb2 Kr6 F22'
_cell_volume   574.05671892
_cell_formula_units_Z   2
loop_
 _symmetry_equiv_pos_site_id
 _symmetry_equiv_pos_as_xyz
  1  'x, y, z'
loop_
 _atom_site_type_symbol
 _atom_site_label
 _atom_site_symmetry_multiplicity
 _atom_site_fract_x
 _atom_site_fract_y
 _atom_site_fract_z
 _atom_site_occupancy
  Sb  Sb0  1  0.29044900  0.67844000  0.22098400  1
  Sb  Sb1  1  0.70955100  0.32156000  0.77901600  1
  Kr  Kr2  1  0.68310100  0.32893200  0.27050000  1
  Kr  Kr3  1  0.31689900  0.67106800  0.72950000  1
  Kr  Kr4  1  0.23614400  0.16649000  0.21853100  1
  Kr  Kr5  1  0.76385600  0.83351000  0.78146900  1
  Kr  Kr6  1  0.80951000  0.85243100  0.29303400  1
  Kr  Kr7  1  0.19049000  0.14756900  0.70696600  1
  F  F8  1  0.99680400  0.11769900  0.15468900  1
  F  F9  1  0.00319600  0.88230100  0.84531100  1
  F  F10  1  0.93822800  0.78807800  0.49229500  1
  F  F11  1  0.06177200  0.21192200  0.50770500  1
  F  F12  1  0.68465900  0.92452800  0.09768800  1
  F  F13  1  0.31534100  0.07547200  0.90231200  1
  F  F14  1  0.26237700  0.87872200  0.37488300  1
  F  F15  1  0.73762300  0.12127800  0.62511700  1
  F  F16  1  0.46036800  0.32053600  0.62291300  1
  F  F17  1  0.53963200  0.67946400  0.37708700  1
  F  F18  1  0.63826300  0.20498300  0.88451400  1
  F  F19  1  0.36173700  0.79501700  0.11548600  1
  F  F20  1  0.95600700  0.31740000  0.93288200  1
  F  F21  1  0.04399300  0.68260000  0.06711800  1
  F  F22  1  0.67420400  0.52144600  0.92790600  1
  F  F23  1  0.32579600  0.47855400  0.07209400  1
  F  F24  1  0.48818100  0.80136800  0.69915800  1
  F  F25  1  0.51181900  0.19863200  0.30084200  1
  F  F26  1  0.77450200  0.43792100  0.66959400  1
  F  F27  1  0.22549800  0.56207900  0.33040600  1
  F  F28  1  0.14587000  0.56003600  0.73705400  1
  F  F29  1  0.85413000  0.43996400  0.26294600  1
