# generated using pymatgen
data_Hf(TeCl)6
_symmetry_space_group_name_H-M   'P 1'
_cell_length_a   11.38257300
_cell_length_b   11.39676500
_cell_length_c   13.13631000
_cell_angle_alpha   90.00000000
_cell_angle_beta   90.00000000
_cell_angle_gamma   90.00000000
_symmetry_Int_Tables_number   1
_chemical_formula_structural   Hf(TeCl)6
_chemical_formula_sum   'Hf4 Te24 Cl24'
_cell_volume   1704.10137239
_cell_formula_units_Z   4
loop_
 _symmetry_equiv_pos_site_id
 _symmetry_equiv_pos_as_xyz
  1  'x, y, z'
loop_
 _atom_site_type_symbol
 _atom_site_label
 _atom_site_symmetry_multiplicity
 _atom_site_fract_x
 _atom_site_fract_y
 _atom_site_fract_z
 _atom_site_occupancy
  Hf  Hf0  1  0.26330400  0.79236300  0.75000000  1
  Hf  Hf1  1  0.26330400  0.70763700  0.25000000  1
  Hf  Hf2  1  0.73669600  0.20763700  0.25000000  1
  Hf  Hf3  1  0.73669600  0.29236300  0.75000000  1
  Te  Te4  1  0.27416600  0.25787200  0.25000000  1
  Te  Te5  1  0.72583400  0.74212800  0.75000000  1
  Te  Te6  1  0.18508500  0.39998900  0.90386300  1
  Te  Te7  1  0.02434200  0.25000000  0.50000000  1
  Te  Te8  1  0.97565800  0.75000000  0.00000000  1
  Te  Te9  1  0.97565800  0.75000000  0.50000000  1
  Te  Te10  1  0.02434200  0.25000000  0.00000000  1
  Te  Te11  1  0.38579700  0.36486200  0.46801300  1
  Te  Te12  1  0.61420300  0.86486200  0.03198700  1
  Te  Te13  1  0.38579700  0.13513800  0.53198700  1
  Te  Te14  1  0.61420300  0.63513800  0.96801300  1
  Te  Te15  1  0.61420300  0.63513800  0.53198700  1
  Te  Te16  1  0.38579700  0.13513800  0.96801300  1
  Te  Te17  1  0.61420300  0.86486200  0.46801300  1
  Te  Te18  1  0.38579700  0.36486200  0.03198700  1
  Te  Te19  1  0.18508500  0.39998900  0.59613700  1
  Te  Te20  1  0.81491500  0.89998900  0.90386300  1
  Te  Te21  1  0.18508500  0.10001100  0.40386300  1
  Te  Te22  1  0.81491500  0.60001100  0.09613700  1
  Te  Te23  1  0.81491500  0.60001100  0.40386300  1
  Te  Te24  1  0.18508500  0.10001100  0.09613700  1
  Te  Te25  1  0.81491500  0.89998900  0.59613700  1
  Te  Te26  1  0.72583400  0.75787200  0.25000000  1
  Te  Te27  1  0.27416600  0.24212800  0.75000000  1
  Cl  Cl28  1  0.84179700  0.09158800  0.11681100  1
  Cl  Cl29  1  0.15820300  0.59158800  0.11681100  1
  Cl  Cl30  1  0.84179700  0.09158800  0.38318900  1
  Cl  Cl31  1  0.63644800  0.32667800  0.38044700  1
  Cl  Cl32  1  0.36355200  0.82667800  0.11955300  1
  Cl  Cl33  1  0.63644800  0.17332200  0.61955300  1
  Cl  Cl34  1  0.36355200  0.67332200  0.88044700  1
  Cl  Cl35  1  0.36355200  0.67332200  0.61955300  1
  Cl  Cl36  1  0.63644800  0.17332200  0.88044700  1
  Cl  Cl37  1  0.36355200  0.82667800  0.38044700  1
  Cl  Cl38  1  0.63644800  0.32667800  0.11955300  1
  Cl  Cl39  1  0.10114100  0.65452300  0.75000000  1
  Cl  Cl40  1  0.89885900  0.15452300  0.75000000  1
  Cl  Cl41  1  0.10114100  0.84547700  0.25000000  1
  Cl  Cl42  1  0.89885900  0.34547700  0.25000000  1
  Cl  Cl43  1  0.41837600  0.94106300  0.75000000  1
  Cl  Cl44  1  0.58162400  0.44106300  0.75000000  1
  Cl  Cl45  1  0.41837600  0.55893700  0.25000000  1
  Cl  Cl46  1  0.58162400  0.05893700  0.25000000  1
  Cl  Cl47  1  0.15820300  0.90841200  0.61681100  1
  Cl  Cl48  1  0.15820300  0.90841200  0.88318900  1
  Cl  Cl49  1  0.84179700  0.40841200  0.88318900  1
  Cl  Cl50  1  0.15820300  0.59158800  0.38318900  1
  Cl  Cl51  1  0.84179700  0.40841200  0.61681100  1
