# generated using pymatgen
data_Bi4I2O5
_symmetry_space_group_name_H-M   'P 1'
_cell_length_a   11.49694600
_cell_length_b   5.81232500
_cell_length_c   15.19819164
_cell_angle_alpha   90.00000000
_cell_angle_beta   100.24451358
_cell_angle_gamma   90.00000000
_symmetry_Int_Tables_number   1
_chemical_formula_structural   Bi4I2O5
_chemical_formula_sum   'Bi16 I8 O20'
_cell_volume   999.41272843
_cell_formula_units_Z   4
loop_
 _symmetry_equiv_pos_site_id
 _symmetry_equiv_pos_as_xyz
  1  'x, y, z'
loop_
 _atom_site_type_symbol
 _atom_site_label
 _atom_site_symmetry_multiplicity
 _atom_site_fract_x
 _atom_site_fract_y
 _atom_site_fract_z
 _atom_site_occupancy
  Bi  Bi0  1  0.77289000  0.24867800  0.85251300  1
  Bi  Bi1  1  0.22711000  0.74867800  0.14748700  1
  Bi  Bi2  1  0.62683400  0.74792000  0.70319100  1
  Bi  Bi3  1  0.37316600  0.24792000  0.29680900  1
  Bi  Bi4  1  0.72946800  0.30719100  0.11535200  1
  Bi  Bi5  1  0.27053200  0.80719100  0.88464800  1
  Bi  Bi6  1  0.59033800  0.86593100  0.95871500  1
  Bi  Bi7  1  0.40966200  0.36593100  0.04128500  1
  Bi  Bi8  1  0.42783000  0.33863300  0.78605000  1
  Bi  Bi9  1  0.57217000  0.83863300  0.21395000  1
  Bi  Bi10  1  0.26588500  0.76675700  0.63593100  1
  Bi  Bi11  1  0.73411500  0.26675700  0.36406900  1
  Bi  Bi12  1  0.07375600  0.25494000  0.46017800  1
  Bi  Bi13  1  0.92624400  0.75494000  0.53982200  1
  Bi  Bi14  1  0.90664400  0.75829800  0.29532500  1
  Bi  Bi15  1  0.09335600  0.25829800  0.70467500  1
  I  I16  1  0.77671100  0.24645100  0.61601100  1
  I  I17  1  0.22328900  0.74645100  0.38398900  1
  I  I18  1  0.60851400  0.72214700  0.44191800  1
  I  I19  1  0.39148600  0.22214700  0.55808200  1
  I  I20  1  0.94375000  0.74833200  0.77646800  1
  I  I21  1  0.87989000  0.72921500  0.04807800  1
  I  I22  1  0.12011000  0.22921500  0.95192200  1
  I  I23  1  0.05625000  0.24833200  0.22353200  1
  O  O24  1  0.68926500  0.21107400  0.96654000  1
  O  O25  1  0.31073500  0.71107400  0.03346000  1
  O  O26  1  0.63859400  0.49331800  0.80660200  1
  O  O27  1  0.36140600  0.99331800  0.19339800  1
  O  O28  1  0.63859600  0.99424700  0.80894500  1
  O  O29  1  0.36140400  0.49424700  0.19105500  1
  O  O30  1  0.44629900  0.69614200  0.71538500  1
  O  O31  1  0.55370100  0.19614200  0.28461500  1
  O  O32  1  0.42126700  0.54587200  0.90678200  1
  O  O33  1  0.57873300  0.04587200  0.09321800  1
  O  O34  1  0.42066800  0.04891100  0.91277500  1
  O  O35  1  0.57933200  0.54891100  0.08722500  1
  O  O36  1  0.92358400  0.51342600  0.41973300  1
  O  O37  1  0.07641600  0.01342600  0.58026700  1
  O  O38  1  0.92140900  0.99527900  0.41915800  1
  O  O39  1  0.07859100  0.49527900  0.58084200  1
  O  O40  1  0.24812200  0.02073400  0.74033500  1
  O  O41  1  0.75636800  0.00770300  0.25539500  1
  O  O42  1  0.24363200  0.50770300  0.74460500  1
  O  O43  1  0.75187800  0.52073400  0.25966500  1
