# generated using pymatgen
data_P2S2O3
_symmetry_space_group_name_H-M   'P 1'
_cell_length_a   9.68895800
_cell_length_b   9.68895800
_cell_length_c   14.33662000
_cell_angle_alpha   90.00000000
_cell_angle_beta   90.00000000
_cell_angle_gamma   90.00000000
_symmetry_Int_Tables_number   1
_chemical_formula_structural   P2S2O3
_chemical_formula_sum   'P16 S16 O24'
_cell_volume   1345.86320762
_cell_formula_units_Z   8
loop_
 _symmetry_equiv_pos_site_id
 _symmetry_equiv_pos_as_xyz
  1  'x, y, z'
loop_
 _atom_site_type_symbol
 _atom_site_label
 _atom_site_symmetry_multiplicity
 _atom_site_fract_x
 _atom_site_fract_y
 _atom_site_fract_z
 _atom_site_occupancy
  P  P0  1  0.53918000  0.85608900  0.17875100  1
  P  P1  1  0.46082000  0.14391100  0.17875100  1
  P  P2  1  0.96082000  0.35608900  0.17875100  1
  P  P3  1  0.35608900  0.96082000  0.32124900  1
  P  P4  1  0.64391100  0.03918000  0.32124900  1
  P  P5  1  0.14391100  0.46082000  0.32124900  1
  P  P6  1  0.85608900  0.53918000  0.32124900  1
  P  P7  1  0.03918000  0.64391100  0.17875100  1
  P  P8  1  0.03918000  0.35608900  0.67875100  1
  P  P9  1  0.96082000  0.64391100  0.67875100  1
  P  P10  1  0.46082000  0.85608900  0.67875100  1
  P  P11  1  0.85608900  0.46082000  0.82124900  1
  P  P12  1  0.14391100  0.53918000  0.82124900  1
  P  P13  1  0.64391100  0.96082000  0.82124900  1
  P  P14  1  0.35608900  0.03918000  0.82124900  1
  P  P15  1  0.53918000  0.14391100  0.67875100  1
  S  S16  1  0.58035600  0.70390800  0.10305200  1
  S  S17  1  0.08035600  0.79609200  0.10305200  1
  S  S18  1  0.20390800  0.91964400  0.39694800  1
  S  S19  1  0.79609200  0.08035600  0.39694800  1
  S  S20  1  0.29609200  0.41964400  0.39694800  1
  S  S21  1  0.70390800  0.58035600  0.39694800  1
  S  S22  1  0.91964400  0.20390800  0.10305200  1
  S  S23  1  0.41964400  0.29609200  0.10305200  1
  S  S24  1  0.08035600  0.20390800  0.60305200  1
  S  S25  1  0.58035600  0.29609200  0.60305200  1
  S  S26  1  0.70390800  0.41964400  0.89694800  1
  S  S27  1  0.29609200  0.58035600  0.89694800  1
  S  S28  1  0.79609200  0.91964400  0.89694800  1
  S  S29  1  0.20390800  0.08035600  0.89694800  1
  S  S30  1  0.41964400  0.70390800  0.60305200  1
  S  S31  1  0.91964400  0.79609200  0.60305200  1
  O  O32  1  0.50000000  0.00000000  0.12507700  1
  O  O33  1  0.16059400  0.59132700  0.24968500  1
  O  O34  1  0.83940600  0.40867300  0.24968500  1
  O  O35  1  0.09132700  0.33940600  0.25031500  1
  O  O36  1  0.33940600  0.09132700  0.24968500  1
  O  O37  1  0.66059400  0.90867300  0.24968500  1
  O  O38  1  0.90867300  0.66059400  0.25031500  1
  O  O39  1  0.59132700  0.16059400  0.25031500  1
  O  O40  1  0.50000000  0.00000000  0.37492300  1
  O  O41  1  0.00000000  0.50000000  0.37492300  1
  O  O42  1  0.00000000  0.50000000  0.12507700  1
  O  O43  1  0.40867300  0.83940600  0.25031500  1
  O  O44  1  0.00000000  0.50000000  0.62507700  1
  O  O45  1  0.66059400  0.09132700  0.74968500  1
  O  O46  1  0.33940600  0.90867300  0.74968500  1
  O  O47  1  0.59132700  0.83940600  0.75031500  1
  O  O48  1  0.83940600  0.59132700  0.74968500  1
  O  O49  1  0.16059400  0.40867300  0.74968500  1
  O  O50  1  0.40867300  0.16059400  0.75031500  1
  O  O51  1  0.09132700  0.66059400  0.75031500  1
  O  O52  1  0.00000000  0.50000000  0.87492300  1
  O  O53  1  0.50000000  0.00000000  0.87492300  1
  O  O54  1  0.50000000  0.00000000  0.62507700  1
  O  O55  1  0.90867300  0.33940600  0.75031500  1
