# generated using pymatgen
data_KAgO
_symmetry_space_group_name_H-M   'P 1'
_cell_length_a   10.03247200
_cell_length_b   10.03247200
_cell_length_c   5.54965400
_cell_angle_alpha   90.00000000
_cell_angle_beta   90.00000000
_cell_angle_gamma   90.00000000
_symmetry_Int_Tables_number   1
_chemical_formula_structural   KAgO
_chemical_formula_sum   'K8 Ag8 O8'
_cell_volume   558.57541902
_cell_formula_units_Z   8
loop_
 _symmetry_equiv_pos_site_id
 _symmetry_equiv_pos_as_xyz
  1  'x, y, z'
loop_
 _atom_site_type_symbol
 _atom_site_label
 _atom_site_symmetry_multiplicity
 _atom_site_fract_x
 _atom_site_fract_y
 _atom_site_fract_z
 _atom_site_occupancy
  K  K0  1  0.50000000  0.17822000  0.00000000  1
  K  K1  1  0.50000000  0.82178000  0.00000000  1
  K  K2  1  0.32178000  0.00000000  0.50000000  1
  K  K3  1  0.67822000  0.00000000  0.50000000  1
  K  K4  1  0.00000000  0.67822000  0.50000000  1
  K  K5  1  0.00000000  0.32178000  0.50000000  1
  K  K6  1  0.82178000  0.50000000  0.00000000  1
  K  K7  1  0.17822000  0.50000000  0.00000000  1
  Ag  Ag8  1  0.64765600  0.64765600  0.50000000  1
  Ag  Ag9  1  0.64765600  0.35234400  0.50000000  1
  Ag  Ag10  1  0.85234400  0.85234400  0.00000000  1
  Ag  Ag11  1  0.85234400  0.14765600  0.00000000  1
  Ag  Ag12  1  0.14765600  0.14765600  0.00000000  1
  Ag  Ag13  1  0.14765600  0.85234400  0.00000000  1
  Ag  Ag14  1  0.35234400  0.35234400  0.50000000  1
  Ag  Ag15  1  0.35234400  0.64765600  0.50000000  1
  O  O16  1  0.29422500  0.00000000  0.00000000  1
  O  O17  1  0.50000000  0.20577500  0.50000000  1
  O  O18  1  0.50000000  0.79422500  0.50000000  1
  O  O19  1  0.70577500  0.00000000  0.00000000  1
  O  O20  1  0.79422500  0.50000000  0.50000000  1
  O  O21  1  0.00000000  0.70577500  0.00000000  1
  O  O22  1  0.00000000  0.29422500  0.00000000  1
  O  O23  1  0.20577500  0.50000000  0.50000000  1
