# generated using pymatgen
data_AuCl
_symmetry_space_group_name_H-M   'P 1'
_cell_length_a   7.23770800
_cell_length_b   7.23770800
_cell_length_c   8.72436000
_cell_angle_alpha   90.00000000
_cell_angle_beta   90.00000000
_cell_angle_gamma   90.00000000
_symmetry_Int_Tables_number   1
_chemical_formula_structural   AuCl
_chemical_formula_sum   'Au8 Cl8'
_cell_volume   457.02051311
_cell_formula_units_Z   8
loop_
 _symmetry_equiv_pos_site_id
 _symmetry_equiv_pos_as_xyz
  1  'x, y, z'
loop_
 _atom_site_type_symbol
 _atom_site_label
 _atom_site_symmetry_multiplicity
 _atom_site_fract_x
 _atom_site_fract_y
 _atom_site_fract_z
 _atom_site_occupancy
  Au  Au0  1  0.25000000  0.50000000  0.37500000  1
  Au  Au1  1  0.00000000  0.25000000  0.12500000  1
  Au  Au2  1  0.00000000  0.75000000  0.12500000  1
  Au  Au3  1  0.75000000  0.50000000  0.37500000  1
  Au  Au4  1  0.75000000  0.00000000  0.87500000  1
  Au  Au5  1  0.50000000  0.75000000  0.62500000  1
  Au  Au6  1  0.50000000  0.25000000  0.62500000  1
  Au  Au7  1  0.25000000  0.00000000  0.87500000  1
  Cl  Cl8  1  0.00000000  0.00000000  0.70685400  1
  Cl  Cl9  1  0.50000000  0.00000000  0.45685400  1
  Cl  Cl10  1  0.50000000  0.00000000  0.04314600  1
  Cl  Cl11  1  0.00000000  0.00000000  0.29314600  1
  Cl  Cl12  1  0.50000000  0.50000000  0.20685400  1
  Cl  Cl13  1  0.00000000  0.50000000  0.95685400  1
  Cl  Cl14  1  0.00000000  0.50000000  0.54314600  1
  Cl  Cl15  1  0.50000000  0.50000000  0.79314600  1
