# generated using pymatgen
data_H30S2O21
_symmetry_space_group_name_H-M   'P 1'
_cell_length_a   6.30958800
_cell_length_b   27.03516200
_cell_length_c   5.93278488
_cell_angle_alpha   90.00000000
_cell_angle_beta   112.33919280
_cell_angle_gamma   90.00000000
_symmetry_Int_Tables_number   1
_chemical_formula_structural   H30S2O21
_chemical_formula_sum   'H60 S4 O42'
_cell_volume   936.06672320
_cell_formula_units_Z   2
loop_
 _symmetry_equiv_pos_site_id
 _symmetry_equiv_pos_as_xyz
  1  'x, y, z'
loop_
 _atom_site_type_symbol
 _atom_site_label
 _atom_site_symmetry_multiplicity
 _atom_site_fract_x
 _atom_site_fract_y
 _atom_site_fract_z
 _atom_site_occupancy
  H  H0  1  0.82984350  0.58087950  0.83967800  1
  H  H1  1  0.32984350  0.91912050  0.83967800  1
  H  H2  1  0.61593550  0.59568650  0.91025100  1
  H  H3  1  0.11593550  0.90431350  0.91025100  1
  H  H4  1  0.92383200  0.00000000  0.44018100  1
  H  H5  1  0.56010000  0.53350100  0.69928500  1
  H  H6  1  0.06010000  0.96649900  0.69928500  1
  H  H7  1  0.29245100  0.52960100  0.06483000  1
  H  H8  1  0.79245100  0.97039900  0.06483000  1
  H  H9  1  0.08123300  0.60361000  0.33960300  1
  H  H10  1  0.58123300  0.89639000  0.33960300  1
  H  H11  1  0.07861700  0.57850900  0.58713300  1
  H  H12  1  0.57861700  0.92149100  0.58713300  1
  H  H13  1  0.90489450  0.53280850  0.29129500  1
  H  H14  1  0.40489450  0.96719150  0.29129500  1
  H  H15  1  0.15048000  0.00000000  0.18435000  1
  H  H16  1  0.90452550  0.67353850  0.58957300  1
  H  H17  1  0.40452550  0.82646150  0.58957300  1
  H  H18  1  0.66959950  0.65534750  0.37743300  1
  H  H19  1  0.16959950  0.84465250  0.37743300  1
  H  H20  1  0.20795250  0.71732350  0.17141000  1
  H  H21  1  0.70795250  0.78267650  0.17141000  1
  H  H22  1  0.25222050  0.77310850  0.27998800  1
  H  H23  1  0.89757750  0.80574750  0.75284400  1
  H  H24  1  0.39757750  0.69425250  0.75284400  1
  H  H25  1  0.10806600  0.79775900  0.64793300  1
  H  H26  1  0.60806600  0.70224100  0.64793300  1
  H  H27  1  0.12987550  0.76818250  0.93057000  1
  H  H28  1  0.62987550  0.73181750  0.93057000  1
  H  H29  1  0.75222050  0.72689150  0.27998800  1
  H  H30  1  0.32984350  0.08087950  0.83967800  1
  H  H31  1  0.82984350  0.41912050  0.83967800  1
  H  H32  1  0.11593550  0.09568650  0.91025100  1
  H  H33  1  0.61593550  0.40431350  0.91025100  1
  H  H34  1  0.42383200  0.50000000  0.44018100  1
  H  H35  1  0.06010000  0.03350100  0.69928500  1
  H  H36  1  0.56010000  0.46649900  0.69928500  1
  H  H37  1  0.79245100  0.02960100  0.06483000  1
  H  H38  1  0.29245100  0.47039900  0.06483000  1
  H  H39  1  0.58123300  0.10361000  0.33960300  1
  H  H40  1  0.08123300  0.39639000  0.33960300  1
  H  H41  1  0.57861700  0.07850900  0.58713300  1
  H  H42  1  0.07861700  0.42149100  0.58713300  1
  H  H43  1  0.40489450  0.03280850  0.29129500  1
  H  H44  1  0.90489450  0.46719150  0.29129500  1
  H  H45  1  0.65048000  0.50000000  0.18435000  1
  H  H46  1  0.40452550  0.17353850  0.58957300  1
  H  H47  1  0.90452550  0.32646150  0.58957300  1
  H  H48  1  0.16959950  0.15534750  0.37743300  1
  H  H49  1  0.66959950  0.34465250  0.37743300  1
  H  H50  1  0.70795250  0.21732350  0.17141000  1
  H  H51  1  0.20795250  0.28267650  0.17141000  1
  H  H52  1  0.75222050  0.27310850  0.27998800  1
  H  H53  1  0.39757750  0.30574750  0.75284400  1
  H  H54  1  0.89757750  0.19425250  0.75284400  1
  H  H55  1  0.60806600  0.29775900  0.64793300  1
  H  H56  1  0.10806600  0.20224100  0.64793300  1
  H  H57  1  0.62987550  0.26818250  0.93057000  1
  H  H58  1  0.12987550  0.23181750  0.93057000  1
  H  H59  1  0.25222050  0.22689150  0.27998800  1
  S  S60  1  0.25052800  0.62904200  0.99893800  1
  S  S61  1  0.75052800  0.87095800  0.99893800  1
  S  S62  1  0.75052800  0.12904200  0.99893800  1
  S  S63  1  0.25052800  0.37095800  0.99893800  1
  O  O64  1  0.66040650  0.58060850  0.78137900  1
  O  O65  1  0.16040650  0.91939150  0.78137900  1
  O  O66  1  0.97119100  0.00000000  0.62387700  1
  O  O67  1  0.88072100  0.00000000  0.15248000  1
  O  O68  1  0.02169750  0.57587750  0.40790200  1
  O  O69  1  0.52169750  0.92412250  0.40790200  1
  O  O70  1  0.31785100  0.00000000  0.20562500  1
  O  O71  1  0.74528350  0.68356650  0.48575500  1
  O  O72  1  0.24528350  0.81643350  0.48575500  1
  O  O73  1  0.25669350  0.75107550  0.14560800  1
  O  O74  1  0.75669350  0.74892450  0.14560800  1
  O  O75  1  0.51869700  0.71771700  0.74202900  1
  O  O76  1  0.01869700  0.78228300  0.74202900  1
  O  O77  1  0.16464550  0.65064050  0.17845900  1
  O  O78  1  0.66464550  0.84935950  0.17845900  1
  O  O79  1  0.50233700  0.62080900  0.11047000  1
  O  O80  1  0.00233700  0.87919100  0.11047000  1
  O  O81  1  0.19337850  0.66262750  0.78253400  1
  O  O82  1  0.69337850  0.83737250  0.78253400  1
  O  O83  1  0.13316850  0.58000750  0.90925300  1
  O  O84  1  0.63316850  0.91999250  0.90925300  1
  O  O85  1  0.16040650  0.08060850  0.78137900  1
  O  O86  1  0.66040650  0.41939150  0.78137900  1
  O  O87  1  0.47119100  0.50000000  0.62387700  1
  O  O88  1  0.38072100  0.50000000  0.15248000  1
  O  O89  1  0.52169750  0.07587750  0.40790200  1
  O  O90  1  0.02169750  0.42412250  0.40790200  1
  O  O91  1  0.81785100  0.50000000  0.20562500  1
  O  O92  1  0.24528350  0.18356650  0.48575500  1
  O  O93  1  0.74528350  0.31643350  0.48575500  1
  O  O94  1  0.75669350  0.25107550  0.14560800  1
  O  O95  1  0.25669350  0.24892450  0.14560800  1
  O  O96  1  0.01869700  0.21771700  0.74202900  1
  O  O97  1  0.51869700  0.28228300  0.74202900  1
  O  O98  1  0.66464550  0.15064050  0.17845900  1
  O  O99  1  0.16464550  0.34935950  0.17845900  1
  O  O100  1  0.00233700  0.12080900  0.11047000  1
  O  O101  1  0.50233700  0.37919100  0.11047000  1
  O  O102  1  0.69337850  0.16262750  0.78253400  1
  O  O103  1  0.19337850  0.33737250  0.78253400  1
  O  O104  1  0.63316850  0.08000750  0.90925300  1
  O  O105  1  0.13316850  0.41999250  0.90925300  1
