# generated using pymatgen
data_Mg(BC)2
_symmetry_space_group_name_H-M   'P 1'
_cell_length_a   9.46714800
_cell_length_b   10.92585200
_cell_length_c   7.46189900
_cell_angle_alpha   90.00000000
_cell_angle_beta   90.00000000
_cell_angle_gamma   90.00000000
_symmetry_Int_Tables_number   1
_chemical_formula_structural   Mg(BC)2
_chemical_formula_sum   'Mg16 B32 C32'
_cell_volume   771.83389422
_cell_formula_units_Z   16
loop_
 _symmetry_equiv_pos_site_id
 _symmetry_equiv_pos_as_xyz
  1  'x, y, z'
loop_
 _atom_site_type_symbol
 _atom_site_label
 _atom_site_symmetry_multiplicity
 _atom_site_fract_x
 _atom_site_fract_y
 _atom_site_fract_z
 _atom_site_occupancy
  Mg  Mg0  1  0.72095200  0.00000000  0.01024500  1
  Mg  Mg1  1  0.77904800  0.00000000  0.51024500  1
  Mg  Mg2  1  0.22095200  0.00000000  0.48975500  1
  Mg  Mg3  1  0.27904800  0.00000000  0.98975500  1
  Mg  Mg4  1  0.50000000  0.84756500  0.50000000  1
  Mg  Mg5  1  0.50000000  0.65243500  0.00000000  1
  Mg  Mg6  1  0.50000000  0.15243500  0.50000000  1
  Mg  Mg7  1  0.50000000  0.34756500  0.00000000  1
  Mg  Mg8  1  0.22095200  0.50000000  0.01024500  1
  Mg  Mg9  1  0.27904800  0.50000000  0.51024500  1
  Mg  Mg10  1  0.72095200  0.50000000  0.48975500  1
  Mg  Mg11  1  0.77904800  0.50000000  0.98975500  1
  Mg  Mg12  1  0.00000000  0.34756500  0.50000000  1
  Mg  Mg13  1  0.00000000  0.15243500  0.00000000  1
  Mg  Mg14  1  0.00000000  0.65243500  0.50000000  1
  Mg  Mg15  1  0.00000000  0.84756500  0.00000000  1
  B  B16  1  0.65946700  0.12764900  0.75472000  1
  B  B17  1  0.34053300  0.12764900  0.24528000  1
  B  B18  1  0.15946700  0.87235100  0.74528000  1
  B  B19  1  0.84053300  0.87235100  0.25472000  1
  B  B20  1  0.65946700  0.87235100  0.75472000  1
  B  B21  1  0.84053300  0.12764900  0.25472000  1
  B  B22  1  0.15946700  0.12764900  0.74528000  1
  B  B23  1  0.34053300  0.87235100  0.24528000  1
  B  B24  1  0.59375000  0.25000000  0.25000000  1
  B  B25  1  0.40625000  0.25000000  0.75000000  1
  B  B26  1  0.40625000  0.75000000  0.75000000  1
  B  B27  1  0.59375000  0.75000000  0.25000000  1
  B  B28  1  0.58819900  0.00000000  0.27549800  1
  B  B29  1  0.91180100  0.00000000  0.77549800  1
  B  B30  1  0.08819900  0.00000000  0.22450200  1
  B  B31  1  0.41180100  0.00000000  0.72450200  1
  B  B32  1  0.15946700  0.62764900  0.75472000  1
  B  B33  1  0.84053300  0.62764900  0.24528000  1
  B  B34  1  0.65946700  0.37235100  0.74528000  1
  B  B35  1  0.34053300  0.37235100  0.25472000  1
  B  B36  1  0.15946700  0.37235100  0.75472000  1
  B  B37  1  0.34053300  0.62764900  0.25472000  1
  B  B38  1  0.65946700  0.62764900  0.74528000  1
  B  B39  1  0.84053300  0.37235100  0.24528000  1
  B  B40  1  0.09375000  0.75000000  0.25000000  1
  B  B41  1  0.90625000  0.75000000  0.75000000  1
  B  B42  1  0.90625000  0.25000000  0.75000000  1
  B  B43  1  0.09375000  0.25000000  0.25000000  1
  B  B44  1  0.08819900  0.50000000  0.27549800  1
  B  B45  1  0.41180100  0.50000000  0.77549800  1
  B  B46  1  0.58819900  0.50000000  0.22450200  1
  B  B47  1  0.91180100  0.50000000  0.72450200  1
  C  C48  1  0.17436900  0.87543000  0.22477900  1
  C  C49  1  0.32563100  0.12457000  0.72477900  1
  C  C50  1  0.67436900  0.12457000  0.27522100  1
  C  C51  1  0.82563100  0.87543000  0.77522100  1
  C  C52  1  0.17436900  0.12457000  0.22477900  1
  C  C53  1  0.82563100  0.12457000  0.77522100  1
  C  C54  1  0.67436900  0.87543000  0.27522100  1
  C  C55  1  0.32563100  0.87543000  0.72477900  1
  C  C56  1  0.42639700  0.25000000  0.25000000  1
  C  C57  1  0.57360300  0.25000000  0.75000000  1
  C  C58  1  0.57360300  0.75000000  0.75000000  1
  C  C59  1  0.42639700  0.75000000  0.25000000  1
  C  C60  1  0.92043000  0.00000000  0.23069800  1
  C  C61  1  0.57957000  0.00000000  0.73069800  1
  C  C62  1  0.42043000  0.00000000  0.26930200  1
  C  C63  1  0.07957000  0.00000000  0.76930200  1
  C  C64  1  0.67436900  0.37543000  0.22477900  1
  C  C65  1  0.82563100  0.62457000  0.72477900  1
  C  C66  1  0.17436900  0.62457000  0.27522100  1
  C  C67  1  0.32563100  0.37543000  0.77522100  1
  C  C68  1  0.67436900  0.62457000  0.22477900  1
  C  C69  1  0.32563100  0.62457000  0.77522100  1
  C  C70  1  0.17436900  0.37543000  0.27522100  1
  C  C71  1  0.82563100  0.37543000  0.72477900  1
  C  C72  1  0.92639700  0.75000000  0.25000000  1
  C  C73  1  0.07360300  0.75000000  0.75000000  1
  C  C74  1  0.07360300  0.25000000  0.75000000  1
  C  C75  1  0.92639700  0.25000000  0.25000000  1
  C  C76  1  0.42043000  0.50000000  0.23069800  1
  C  C77  1  0.07957000  0.50000000  0.73069800  1
  C  C78  1  0.92043000  0.50000000  0.26930200  1
  C  C79  1  0.57957000  0.50000000  0.76930200  1
