# generated using pymatgen
data_Fe5CuO8
_symmetry_space_group_name_H-M   'P 1'
_cell_length_a   8.54197400
_cell_length_b   8.54197400
_cell_length_c   8.54197400
_cell_angle_alpha   90.00000000
_cell_angle_beta   90.00000000
_cell_angle_gamma   90.00000000
_symmetry_Int_Tables_number   1
_chemical_formula_structural   Fe5CuO8
_chemical_formula_sum   'Fe20 Cu4 O32'
_cell_volume   623.26786478
_cell_formula_units_Z   4
loop_
 _symmetry_equiv_pos_site_id
 _symmetry_equiv_pos_as_xyz
  1  'x, y, z'
loop_
 _atom_site_type_symbol
 _atom_site_label
 _atom_site_symmetry_multiplicity
 _atom_site_fract_x
 _atom_site_fract_y
 _atom_site_fract_z
 _atom_site_occupancy
  Fe  Fe0  1  0.25000000  0.25000000  0.75000000  1
  Fe  Fe1  1  0.12787067  0.37212933  0.37212933  1
  Fe  Fe2  1  0.12787067  0.12787067  0.12787067  1
  Fe  Fe3  1  0.37212933  0.37212933  0.12787067  1
  Fe  Fe4  1  0.37212933  0.12787067  0.37212933  1
  Fe  Fe5  1  0.25000000  0.75000000  0.25000000  1
  Fe  Fe6  1  0.12787067  0.87212933  0.87212933  1
  Fe  Fe7  1  0.12787067  0.62787067  0.62787067  1
  Fe  Fe8  1  0.37212933  0.87212933  0.62787067  1
  Fe  Fe9  1  0.37212933  0.62787067  0.87212933  1
  Fe  Fe10  1  0.75000000  0.25000000  0.25000000  1
  Fe  Fe11  1  0.62787067  0.37212933  0.87212933  1
  Fe  Fe12  1  0.62787067  0.12787067  0.62787067  1
  Fe  Fe13  1  0.87212933  0.37212933  0.62787067  1
  Fe  Fe14  1  0.87212933  0.12787067  0.87212933  1
  Fe  Fe15  1  0.75000000  0.75000000  0.75000000  1
  Fe  Fe16  1  0.62787067  0.87212933  0.37212933  1
  Fe  Fe17  1  0.62787067  0.62787067  0.12787067  1
  Fe  Fe18  1  0.87212933  0.87212933  0.12787067  1
  Fe  Fe19  1  0.87212933  0.62787067  0.37212933  1
  Cu  Cu20  1  0.50000000  0.00000000  0.00000000  1
  Cu  Cu21  1  0.50000000  0.50000000  0.50000000  1
  Cu  Cu22  1  0.00000000  0.00000000  0.50000000  1
  Cu  Cu23  1  0.00000000  0.50000000  0.00000000  1
  O  O24  1  0.13669300  0.36330700  0.13669300  1
  O  O25  1  0.63669300  0.13669300  0.86330700  1
  O  O26  1  0.86330700  0.36330700  0.86330700  1
  O  O27  1  0.36330700  0.13669300  0.13669300  1
  O  O28  1  0.38255500  0.11744500  0.61744500  1
  O  O29  1  0.38255500  0.38255500  0.88255500  1
  O  O30  1  0.11744500  0.11744500  0.88255500  1
  O  O31  1  0.11744500  0.38255500  0.61744500  1
  O  O32  1  0.13669300  0.86330700  0.63669300  1
  O  O33  1  0.63669300  0.63669300  0.36330700  1
  O  O34  1  0.86330700  0.86330700  0.36330700  1
  O  O35  1  0.36330700  0.63669300  0.63669300  1
  O  O36  1  0.38255500  0.61744500  0.11744500  1
  O  O37  1  0.38255500  0.88255500  0.38255500  1
  O  O38  1  0.11744500  0.61744500  0.38255500  1
  O  O39  1  0.11744500  0.88255500  0.11744500  1
  O  O40  1  0.63669300  0.36330700  0.63669300  1
  O  O41  1  0.13669300  0.13669300  0.36330700  1
  O  O42  1  0.36330700  0.36330700  0.36330700  1
  O  O43  1  0.86330700  0.13669300  0.63669300  1
  O  O44  1  0.88255500  0.11744500  0.11744500  1
  O  O45  1  0.88255500  0.38255500  0.38255500  1
  O  O46  1  0.61744500  0.11744500  0.38255500  1
  O  O47  1  0.61744500  0.38255500  0.11744500  1
  O  O48  1  0.63669300  0.86330700  0.13669300  1
  O  O49  1  0.13669300  0.63669300  0.86330700  1
  O  O50  1  0.36330700  0.86330700  0.86330700  1
  O  O51  1  0.86330700  0.63669300  0.13669300  1
  O  O52  1  0.88255500  0.61744500  0.61744500  1
  O  O53  1  0.88255500  0.88255500  0.88255500  1
  O  O54  1  0.61744500  0.61744500  0.88255500  1
  O  O55  1  0.61744500  0.88255500  0.61744500  1
