# generated using pymatgen
data_BaZnF4
_symmetry_space_group_name_H-M   'P 1'
_cell_length_a   4.25332800
_cell_length_b   14.90806600
_cell_length_c   5.97025100
_cell_angle_alpha   90.00000000
_cell_angle_beta   90.00000000
_cell_angle_gamma   90.00000000
_symmetry_Int_Tables_number   1
_chemical_formula_structural   BaZnF4
_chemical_formula_sum   'Ba4 Zn4 F16'
_cell_volume   378.56701606
_cell_formula_units_Z   4
loop_
 _symmetry_equiv_pos_site_id
 _symmetry_equiv_pos_as_xyz
  1  'x, y, z'
loop_
 _atom_site_type_symbol
 _atom_site_label
 _atom_site_symmetry_multiplicity
 _atom_site_fract_x
 _atom_site_fract_y
 _atom_site_fract_z
 _atom_site_occupancy
  Ba  Ba0  1  0.00000000  0.85060700  0.04382300  1
  Ba  Ba1  1  0.50000000  0.64939300  0.54382300  1
  Ba  Ba2  1  0.50000000  0.35060700  0.04382300  1
  Ba  Ba3  1  0.00000000  0.14939300  0.54382300  1
  Zn  Zn4  1  0.50000000  0.91428100  0.50068700  1
  Zn  Zn5  1  0.00000000  0.58571900  0.00068700  1
  Zn  Zn6  1  0.00000000  0.41428100  0.50068700  1
  Zn  Zn7  1  0.50000000  0.08571900  0.00068700  1
  F  F8  1  0.00000000  0.92247900  0.48103500  1
  F  F9  1  0.50000000  0.57752100  0.98103500  1
  F  F10  1  0.50000000  0.96889000  0.16788700  1
  F  F11  1  0.00000000  0.53111000  0.66788700  1
  F  F12  1  0.00000000  0.69835800  0.80537200  1
  F  F13  1  0.50000000  0.80164200  0.30537200  1
  F  F14  1  0.00000000  0.66490400  0.27271500  1
  F  F15  1  0.50000000  0.83509600  0.77271500  1
  F  F16  1  0.50000000  0.42247900  0.48103500  1
  F  F17  1  0.00000000  0.07752100  0.98103500  1
  F  F18  1  0.00000000  0.46889000  0.16788700  1
  F  F19  1  0.50000000  0.03111000  0.66788700  1
  F  F20  1  0.50000000  0.19835800  0.80537200  1
  F  F21  1  0.00000000  0.30164200  0.30537200  1
  F  F22  1  0.50000000  0.16490400  0.27271500  1
  F  F23  1  0.00000000  0.33509600  0.77271500  1
