# generated using pymatgen
data_Pr2CdSe4
_symmetry_space_group_name_H-M   'P 1'
_cell_length_a   8.86637200
_cell_length_b   8.86637200
_cell_length_c   9.32789200
_cell_angle_alpha   90.00000000
_cell_angle_beta   90.00000000
_cell_angle_gamma   90.00000000
_symmetry_Int_Tables_number   1
_chemical_formula_structural   Pr2CdSe4
_chemical_formula_sum   'Pr8 Cd4 Se16'
_cell_volume   733.28939903
_cell_formula_units_Z   4
loop_
 _symmetry_equiv_pos_site_id
 _symmetry_equiv_pos_as_xyz
  1  'x, y, z'
loop_
 _atom_site_type_symbol
 _atom_site_label
 _atom_site_symmetry_multiplicity
 _atom_site_fract_x
 _atom_site_fract_y
 _atom_site_fract_z
 _atom_site_occupancy
  Pr  Pr0  1  0.75000000  0.36588900  0.37500000  1
  Pr  Pr1  1  0.13411100  0.25000000  0.12500000  1
  Pr  Pr2  1  0.75000000  0.13411100  0.87500000  1
  Pr  Pr3  1  0.36588900  0.25000000  0.62500000  1
  Pr  Pr4  1  0.25000000  0.86588900  0.87500000  1
  Pr  Pr5  1  0.63411100  0.75000000  0.62500000  1
  Pr  Pr6  1  0.25000000  0.63411100  0.37500000  1
  Pr  Pr7  1  0.86588900  0.75000000  0.12500000  1
  Cd  Cd8  1  0.00000000  0.00000000  0.50000000  1
  Cd  Cd9  1  0.50000000  0.00000000  0.25000000  1
  Cd  Cd10  1  0.50000000  0.50000000  0.00000000  1
  Cd  Cd11  1  0.00000000  0.50000000  0.75000000  1
  Se  Se12  1  0.80612900  0.06970700  0.18954500  1
  Se  Se13  1  0.30612900  0.93029300  0.56045500  1
  Se  Se14  1  0.43029300  0.30612900  0.31045500  1
  Se  Se15  1  0.43029300  0.19387100  0.93954500  1
  Se  Se16  1  0.19387100  0.56970700  0.06045500  1
  Se  Se17  1  0.56970700  0.69387100  0.31045500  1
  Se  Se18  1  0.19387100  0.93029300  0.18954500  1
  Se  Se19  1  0.06970700  0.30612900  0.43954500  1
  Se  Se20  1  0.30612900  0.56970700  0.68954500  1
  Se  Se21  1  0.80612900  0.43029300  0.06045500  1
  Se  Se22  1  0.93029300  0.80612900  0.81045500  1
  Se  Se23  1  0.93029300  0.69387100  0.43954500  1
  Se  Se24  1  0.69387100  0.06970700  0.56045500  1
  Se  Se25  1  0.06970700  0.19387100  0.81045500  1
  Se  Se26  1  0.69387100  0.43029300  0.68954500  1
  Se  Se27  1  0.56970700  0.80612900  0.93954500  1
