# generated using pymatgen
data_Re2NiO8
_symmetry_space_group_name_H-M   'P 1'
_cell_length_a   5.75237274
_cell_length_b   5.75237274
_cell_length_c   6.64566000
_cell_angle_alpha   90.00000000
_cell_angle_beta   90.00000000
_cell_angle_gamma   120.00000000
_symmetry_Int_Tables_number   1
_chemical_formula_structural   Re2NiO8
_chemical_formula_sum   'Re2 Ni1 O8'
_cell_volume   190.44202454
_cell_formula_units_Z   1
loop_
 _symmetry_equiv_pos_site_id
 _symmetry_equiv_pos_as_xyz
  1  'x, y, z'
loop_
 _atom_site_type_symbol
 _atom_site_label
 _atom_site_symmetry_multiplicity
 _atom_site_fract_x
 _atom_site_fract_y
 _atom_site_fract_z
 _atom_site_occupancy
  Re  Re0  1  0.33333333  0.66666667  0.26622700  1
  Re  Re1  1  0.66666667  0.33333333  0.73377300  1
  Ni  Ni2  1  0.00000000  0.00000000  0.00000000  1
  O  O3  1  0.66666667  0.33333333  0.47280800  1
  O  O4  1  0.33333333  0.66666667  0.52719200  1
  O  O5  1  0.81404275  0.14879650  0.82135400  1
  O  O6  1  0.14879650  0.33475375  0.17864600  1
  O  O7  1  0.66524625  0.81404275  0.17864600  1
  O  O8  1  0.18595725  0.85120350  0.17864600  1
  O  O9  1  0.85120350  0.66524625  0.82135400  1
  O  O10  1  0.33475375  0.18595725  0.82135400  1
