# generated using pymatgen
data_SrLaI4
_symmetry_space_group_name_H-M   'P 1'
_cell_length_a   10.36210800
_cell_length_b   15.06136600
_cell_length_c   7.56849224
_cell_angle_alpha   90.00000000
_cell_angle_beta   124.93214086
_cell_angle_gamma   90.00000000
_symmetry_Int_Tables_number   1
_chemical_formula_structural   SrLaI4
_chemical_formula_sum   'Sr4 La4 I16'
_cell_volume   968.38058455
_cell_formula_units_Z   4
loop_
 _symmetry_equiv_pos_site_id
 _symmetry_equiv_pos_as_xyz
  1  'x, y, z'
loop_
 _atom_site_type_symbol
 _atom_site_label
 _atom_site_symmetry_multiplicity
 _atom_site_fract_x
 _atom_site_fract_y
 _atom_site_fract_z
 _atom_site_occupancy
  Sr  Sr0  1  0.00000000  0.36515900  0.25000000  1
  Sr  Sr1  1  0.50000000  0.13484100  0.75000000  1
  Sr  Sr2  1  0.50000000  0.86515900  0.25000000  1
  Sr  Sr3  1  0.00000000  0.63484100  0.75000000  1
  La  La4  1  0.00000000  0.00035400  0.75000000  1
  La  La5  1  0.50000000  0.49964600  0.25000000  1
  La  La6  1  0.50000000  0.50035400  0.75000000  1
  La  La7  1  0.00000000  0.99964600  0.25000000  1
  I  I8  1  0.12300650  0.17674150  0.58772900  1
  I  I9  1  0.87699350  0.17674150  0.91227100  1
  I  I10  1  0.37699350  0.32325850  0.41227100  1
  I  I11  1  0.62300650  0.32325850  0.08772900  1
  I  I12  1  0.80424800  0.43851000  0.73744100  1
  I  I13  1  0.19575200  0.43851000  0.76255900  1
  I  I14  1  0.69575200  0.06149000  0.26255900  1
  I  I15  1  0.30424800  0.06149000  0.23744100  1
  I  I16  1  0.62300650  0.67674150  0.58772900  1
  I  I17  1  0.37699350  0.67674150  0.91227100  1
  I  I18  1  0.87699350  0.82325850  0.41227100  1
  I  I19  1  0.12300650  0.82325850  0.08772900  1
  I  I20  1  0.30424800  0.93851000  0.73744100  1
  I  I21  1  0.69575200  0.93851000  0.76255900  1
  I  I22  1  0.19575200  0.56149000  0.26255900  1
  I  I23  1  0.80424800  0.56149000  0.23744100  1
