# generated using pymatgen
data_Ag2S
_symmetry_space_group_name_H-M   'P 1'
_cell_length_a   7.03511189
_cell_length_b   4.77938317
_cell_length_c   7.67964881
_cell_angle_alpha   90.00000000
_cell_angle_beta   90.75893504
_cell_angle_gamma   90.00000000
_symmetry_Int_Tables_number   1
_chemical_formula_structural   Ag2S
_chemical_formula_sum   'Ag8 S4'
_cell_volume   258.19398400
_cell_formula_units_Z   4
loop_
 _symmetry_equiv_pos_site_id
 _symmetry_equiv_pos_as_xyz
  1  'x, y, z'
loop_
 _atom_site_type_symbol
 _atom_site_label
 _atom_site_symmetry_multiplicity
 _atom_site_fract_x
 _atom_site_fract_y
 _atom_site_fract_z
 _atom_site_occupancy
  Ag  Ag0  1  0.00000000  0.00000000  0.50000000  1
  Ag  Ag1  1  0.60156700  0.00000000  0.27006100  1
  Ag  Ag2  1  0.39843300  0.00000000  0.72993900  1
  Ag  Ag3  1  0.99094100  0.00000000  0.00297200  1
  Ag  Ag4  1  0.50000000  0.50000000  0.50000000  1
  Ag  Ag5  1  0.10156700  0.50000000  0.27006100  1
  Ag  Ag6  1  0.89843300  0.50000000  0.72993900  1
  Ag  Ag7  1  0.49094100  0.50000000  0.00297200  1
  S  S8  1  0.78330300  0.00000000  0.74860800  1
  S  S9  1  0.21669700  0.00000000  0.25139200  1
  S  S10  1  0.28330300  0.50000000  0.74860800  1
  S  S11  1  0.71669700  0.50000000  0.25139200  1
