# generated using pymatgen
data_La2PbSe4
_symmetry_space_group_name_H-M   'P 1'
_cell_length_a   9.17577800
_cell_length_b   9.17577800
_cell_length_c   9.15672200
_cell_angle_alpha   90.00000000
_cell_angle_beta   90.00000000
_cell_angle_gamma   90.00000000
_symmetry_Int_Tables_number   1
_chemical_formula_structural   La2PbSe4
_chemical_formula_sum   'La8 Pb4 Se16'
_cell_volume   770.94931056
_cell_formula_units_Z   4
loop_
 _symmetry_equiv_pos_site_id
 _symmetry_equiv_pos_as_xyz
  1  'x, y, z'
loop_
 _atom_site_type_symbol
 _atom_site_label
 _atom_site_symmetry_multiplicity
 _atom_site_fract_x
 _atom_site_fract_y
 _atom_site_fract_z
 _atom_site_occupancy
  La  La0  1  0.86753200  0.75000000  0.87500000  1
  La  La1  1  0.63246800  0.75000000  0.37500000  1
  La  La2  1  0.75000000  0.36753200  0.62500000  1
  La  La3  1  0.75000000  0.13246800  0.12500000  1
  La  La4  1  0.36753200  0.25000000  0.37500000  1
  La  La5  1  0.13246800  0.25000000  0.87500000  1
  La  La6  1  0.25000000  0.86753200  0.12500000  1
  La  La7  1  0.25000000  0.63246800  0.62500000  1
  Pb  Pb8  1  0.00000000  0.00000000  0.50000000  1
  Pb  Pb9  1  0.50000000  0.00000000  0.75000000  1
  Pb  Pb10  1  0.50000000  0.50000000  0.00000000  1
  Pb  Pb11  1  0.00000000  0.50000000  0.25000000  1
  Se  Se12  1  0.07519100  0.17266400  0.19344700  1
  Se  Se13  1  0.67266400  0.07519100  0.44344700  1
  Se  Se14  1  0.67266400  0.42480900  0.30655300  1
  Se  Se15  1  0.07519100  0.32733600  0.55655300  1
  Se  Se16  1  0.42480900  0.32733600  0.69344700  1
  Se  Se17  1  0.82733600  0.07519100  0.80655300  1
  Se  Se18  1  0.42480900  0.17266400  0.05655300  1
  Se  Se19  1  0.82733600  0.42480900  0.94344700  1
  Se  Se20  1  0.57519100  0.67266400  0.69344700  1
  Se  Se21  1  0.17266400  0.57519100  0.94344700  1
  Se  Se22  1  0.17266400  0.92480900  0.80655300  1
  Se  Se23  1  0.57519100  0.82733600  0.05655300  1
  Se  Se24  1  0.92480900  0.82733600  0.19344700  1
  Se  Se25  1  0.32733600  0.57519100  0.30655300  1
  Se  Se26  1  0.92480900  0.67266400  0.55655300  1
  Se  Se27  1  0.32733600  0.92480900  0.44344700  1
