# generated using pymatgen
data_Li2NiF4
_symmetry_space_group_name_H-M   'P 1'
_cell_length_a   5.88205200
_cell_length_b   6.01267000
_cell_length_c   8.33938400
_cell_angle_alpha   90.00000000
_cell_angle_beta   90.00000000
_cell_angle_gamma   90.00000000
_symmetry_Int_Tables_number   1
_chemical_formula_structural   Li2NiF4
_chemical_formula_sum   'Li8 Ni4 F16'
_cell_volume   294.93763960
_cell_formula_units_Z   4
loop_
 _symmetry_equiv_pos_site_id
 _symmetry_equiv_pos_as_xyz
  1  'x, y, z'
loop_
 _atom_site_type_symbol
 _atom_site_label
 _atom_site_symmetry_multiplicity
 _atom_site_fract_x
 _atom_site_fract_y
 _atom_site_fract_z
 _atom_site_occupancy
  Li  Li0  1  0.50000000  0.75000000  0.36632200  1
  Li  Li1  1  0.75000000  0.25000000  0.25000000  1
  Li  Li2  1  0.25000000  0.25000000  0.25000000  1
  Li  Li3  1  0.50000000  0.25000000  0.63367800  1
  Li  Li4  1  0.00000000  0.25000000  0.86632200  1
  Li  Li5  1  0.25000000  0.75000000  0.75000000  1
  Li  Li6  1  0.75000000  0.75000000  0.75000000  1
  Li  Li7  1  0.00000000  0.75000000  0.13367800  1
  Ni  Ni8  1  0.50000000  0.00000000  0.00000000  1
  Ni  Ni9  1  0.00000000  0.00000000  0.50000000  1
  Ni  Ni10  1  0.00000000  0.50000000  0.50000000  1
  Ni  Ni11  1  0.50000000  0.50000000  0.00000000  1
  F  F12  1  0.23370400  0.75000000  0.50381200  1
  F  F13  1  0.76629600  0.75000000  0.50381200  1
  F  F14  1  0.00000000  0.98502800  0.73862200  1
  F  F15  1  0.50000000  0.01497200  0.23862200  1
  F  F16  1  0.50000000  0.98502800  0.76137800  1
  F  F17  1  0.23370400  0.25000000  0.49618800  1
  F  F18  1  0.00000000  0.01497200  0.26137800  1
  F  F19  1  0.76629600  0.25000000  0.49618800  1
  F  F20  1  0.73370400  0.25000000  0.00381200  1
  F  F21  1  0.26629600  0.25000000  0.00381200  1
  F  F22  1  0.50000000  0.48502800  0.23862200  1
  F  F23  1  0.00000000  0.51497200  0.73862200  1
  F  F24  1  0.00000000  0.48502800  0.26137800  1
  F  F25  1  0.73370400  0.75000000  0.99618800  1
  F  F26  1  0.50000000  0.51497200  0.76137800  1
  F  F27  1  0.26629600  0.75000000  0.99618800  1
