# generated using pymatgen
data_Ho2CdS4
_symmetry_space_group_name_H-M   'P 1'
_cell_length_a   5.49900600
_cell_length_b   5.49900600
_cell_length_c   11.00634600
_cell_angle_alpha   90.00000000
_cell_angle_beta   90.00000000
_cell_angle_gamma   90.00000000
_symmetry_Int_Tables_number   1
_chemical_formula_structural   Ho2CdS4
_chemical_formula_sum   'Ho4 Cd2 S8'
_cell_volume   332.82163399
_cell_formula_units_Z   2
loop_
 _symmetry_equiv_pos_site_id
 _symmetry_equiv_pos_as_xyz
  1  'x, y, z'
loop_
 _atom_site_type_symbol
 _atom_site_label
 _atom_site_symmetry_multiplicity
 _atom_site_fract_x
 _atom_site_fract_y
 _atom_site_fract_z
 _atom_site_occupancy
  Ho  Ho0  1  0.50000000  0.00000000  0.25000000  1
  Ho  Ho1  1  0.00000000  0.00000000  0.00000000  1
  Ho  Ho2  1  0.00000000  0.50000000  0.75000000  1
  Ho  Ho3  1  0.50000000  0.50000000  0.50000000  1
  Cd  Cd4  1  0.50000000  0.50000000  0.00000000  1
  Cd  Cd5  1  0.00000000  0.00000000  0.50000000  1
  S  S6  1  0.50000000  0.50000000  0.25632400  1
  S  S7  1  0.00000000  0.00000000  0.24367600  1
  S  S8  1  0.50000000  0.00000000  0.49611000  1
  S  S9  1  0.50000000  0.00000000  0.00389000  1
  S  S10  1  0.00000000  0.00000000  0.75632400  1
  S  S11  1  0.50000000  0.50000000  0.74367600  1
  S  S12  1  0.00000000  0.50000000  0.99611000  1
  S  S13  1  0.00000000  0.50000000  0.50389000  1
