# generated using pymatgen
data_HoSnAu
_symmetry_space_group_name_H-M   'P 1'
_cell_length_a   6.71837800
_cell_length_b   6.71837800
_cell_length_c   6.71837800
_cell_angle_alpha   90.00000000
_cell_angle_beta   90.00000000
_cell_angle_gamma   90.00000000
_symmetry_Int_Tables_number   1
_chemical_formula_structural   HoSnAu
_chemical_formula_sum   'Ho4 Sn4 Au4'
_cell_volume   303.24476026
_cell_formula_units_Z   4
loop_
 _symmetry_equiv_pos_site_id
 _symmetry_equiv_pos_as_xyz
  1  'x, y, z'
loop_
 _atom_site_type_symbol
 _atom_site_label
 _atom_site_symmetry_multiplicity
 _atom_site_fract_x
 _atom_site_fract_y
 _atom_site_fract_z
 _atom_site_occupancy
  Ho  Ho0  1  0.50000000  0.00000000  0.00000000  1
  Ho  Ho1  1  0.50000000  0.50000000  0.50000000  1
  Ho  Ho2  1  0.00000000  0.00000000  0.50000000  1
  Ho  Ho3  1  0.00000000  0.50000000  0.00000000  1
  Sn  Sn4  1  0.00000000  0.00000000  0.00000000  1
  Sn  Sn5  1  0.00000000  0.50000000  0.50000000  1
  Sn  Sn6  1  0.50000000  0.00000000  0.50000000  1
  Sn  Sn7  1  0.50000000  0.50000000  0.00000000  1
  Au  Au8  1  0.25000000  0.25000000  0.25000000  1
  Au  Au9  1  0.25000000  0.75000000  0.75000000  1
  Au  Au10  1  0.75000000  0.25000000  0.75000000  1
  Au  Au11  1  0.75000000  0.75000000  0.25000000  1
