# generated using pymatgen
data_H3ClO
_symmetry_space_group_name_H-M   'P 1'
_cell_length_a   4.84764059
_cell_length_b   4.84764059
_cell_length_c   9.39467327
_cell_angle_alpha   90.00000000
_cell_angle_beta   90.00000000
_cell_angle_gamma   120.00000000
_symmetry_Int_Tables_number   1
_chemical_formula_structural   H3ClO
_chemical_formula_sum   'H9 Cl3 O3'
_cell_volume   191.19350677
_cell_formula_units_Z   3
loop_
 _symmetry_equiv_pos_site_id
 _symmetry_equiv_pos_as_xyz
  1  'x, y, z'
loop_
 _atom_site_type_symbol
 _atom_site_label
 _atom_site_symmetry_multiplicity
 _atom_site_fract_x
 _atom_site_fract_y
 _atom_site_fract_z
 _atom_site_occupancy
  H  H0  1  0.56610200  0.78305100  0.07933400  1
  H  H1  1  0.21694900  0.78305100  0.07933400  1
  H  H2  1  0.21694900  0.43389800  0.07933400  1
  H  H3  1  0.23276867  0.11638433  0.41266733  1
  H  H4  1  0.88361567  0.11638433  0.41266733  1
  H  H5  1  0.88361567  0.76723133  0.41266733  1
  H  H6  1  0.89943533  0.44971767  0.74600067  1
  H  H7  1  0.55028233  0.44971767  0.74600067  1
  H  H8  1  0.55028233  0.10056467  0.74600067  1
  Cl  Cl9  1  0.33333333  0.66666667  0.68511467  1
  Cl  Cl10  1  0.00000000  0.00000000  0.01844800  1
  Cl  Cl11  1  0.66666667  0.33333333  0.35178133  1
  O  O12  1  0.33333333  0.66666667  0.11421767  1
  O  O13  1  0.00000000  0.00000000  0.44755100  1
  O  O14  1  0.66666667  0.33333333  0.78088433  1
