# generated using pymatgen
data_LaPO4
_symmetry_space_group_name_H-M   'P 1'
_cell_length_a   6.54212000
_cell_length_b   7.14851800
_cell_length_c   8.33183308
_cell_angle_alpha   90.00000000
_cell_angle_beta   125.96893304
_cell_angle_gamma   90.00000000
_symmetry_Int_Tables_number   1
_chemical_formula_structural   LaPO4
_chemical_formula_sum   'La4 P4 O16'
_cell_volume   315.35790201
_cell_formula_units_Z   4
loop_
 _symmetry_equiv_pos_site_id
 _symmetry_equiv_pos_as_xyz
  1  'x, y, z'
loop_
 _atom_site_type_symbol
 _atom_site_label
 _atom_site_symmetry_multiplicity
 _atom_site_fract_x
 _atom_site_fract_y
 _atom_site_fract_z
 _atom_site_occupancy
  La  La0  1  0.18632500  0.65885900  0.78517500  1
  La  La1  1  0.81367500  0.15885900  0.71482500  1
  La  La2  1  0.81367500  0.34114100  0.21482500  1
  La  La3  1  0.18632500  0.84114100  0.28517500  1
  P  P4  1  0.69332200  0.66198800  0.80420800  1
  P  P5  1  0.30667800  0.16198800  0.69579200  1
  P  P6  1  0.30667800  0.33801200  0.19579200  1
  P  P7  1  0.69332200  0.83801200  0.30420800  1
  O  O8  1  0.66686800  0.60352500  0.97096100  1
  O  O9  1  0.33313200  0.10352500  0.52903900  1
  O  O10  1  0.33313200  0.39647500  0.02903900  1
  O  O11  1  0.66686800  0.89647500  0.47096100  1
  O  O12  1  0.88319400  0.82937000  0.88105400  1
  O  O13  1  0.11680600  0.32937000  0.61894600  1
  O  O14  1  0.11680600  0.17063000  0.11894600  1
  O  O15  1  0.88319400  0.67063000  0.38105400  1
  O  O16  1  0.42040300  0.78705400  0.12880400  1
  O  O17  1  0.57959700  0.28705400  0.37119600  1
  O  O18  1  0.57959700  0.21294600  0.87119600  1
  O  O19  1  0.42040300  0.71294600  0.62880400  1
  O  O20  1  0.80805100  0.99344900  0.24950600  1
  O  O21  1  0.19194900  0.49344900  0.25049400  1
  O  O22  1  0.19194900  0.00655100  0.75049400  1
  O  O23  1  0.80805100  0.50655100  0.74950600  1
