# generated using pymatgen
data_Li2Fe(PO3)4
_symmetry_space_group_name_H-M   'P 1'
_cell_length_a   9.23669600
_cell_length_b   14.31638400
_cell_length_c   7.47816280
_cell_angle_alpha   90.00000000
_cell_angle_beta   97.89470384
_cell_angle_gamma   90.00000000
_symmetry_Int_Tables_number   1
_chemical_formula_structural   Li2Fe(PO3)4
_chemical_formula_sum   'Li8 Fe4 P16 O48'
_cell_volume   979.51051465
_cell_formula_units_Z   4
loop_
 _symmetry_equiv_pos_site_id
 _symmetry_equiv_pos_as_xyz
  1  'x, y, z'
loop_
 _atom_site_type_symbol
 _atom_site_label
 _atom_site_symmetry_multiplicity
 _atom_site_fract_x
 _atom_site_fract_y
 _atom_site_fract_z
 _atom_site_occupancy
  Li  Li0  1  0.66431150  0.84978850  0.71016600  1
  Li  Li1  1  0.33568850  0.15021150  0.28983400  1
  Li  Li2  1  0.33568850  0.84978850  0.78983400  1
  Li  Li3  1  0.66431150  0.15021150  0.21016600  1
  Li  Li4  1  0.16431150  0.34978850  0.71016600  1
  Li  Li5  1  0.83568850  0.65021150  0.28983400  1
  Li  Li6  1  0.83568850  0.34978850  0.78983400  1
  Li  Li7  1  0.16431150  0.65021150  0.21016600  1
  Fe  Fe8  1  0.50000000  0.63487400  0.25000000  1
  Fe  Fe9  1  0.50000000  0.36512600  0.75000000  1
  Fe  Fe10  1  0.00000000  0.13487400  0.25000000  1
  Fe  Fe11  1  0.00000000  0.86512600  0.75000000  1
  P  P12  1  0.39409350  0.16297950  0.88090500  1
  P  P13  1  0.13783100  0.07259000  0.66831500  1
  P  P14  1  0.86216900  0.07259000  0.83168500  1
  P  P15  1  0.39409350  0.83702050  0.38090500  1
  P  P16  1  0.60590650  0.16297950  0.61909500  1
  P  P17  1  0.13783100  0.92741000  0.16831500  1
  P  P18  1  0.60590650  0.83702050  0.11909500  1
  P  P19  1  0.86216900  0.92741000  0.33168500  1
  P  P20  1  0.89409350  0.66297950  0.88090500  1
  P  P21  1  0.63783100  0.57259000  0.66831500  1
  P  P22  1  0.36216900  0.57259000  0.83168500  1
  P  P23  1  0.89409350  0.33702050  0.38090500  1
  P  P24  1  0.10590650  0.66297950  0.61909500  1
  P  P25  1  0.63783100  0.42741000  0.16831500  1
  P  P26  1  0.10590650  0.33702050  0.11909500  1
  P  P27  1  0.36216900  0.42741000  0.33168500  1
  O  O28  1  0.64841800  0.73868500  0.18059200  1
  O  O29  1  0.73944350  0.09265350  0.66115600  1
  O  O30  1  0.83580500  0.87098200  0.49400600  1
  O  O31  1  0.16419500  0.12901800  0.50599400  1
  O  O32  1  0.50000000  0.11833100  0.75000000  1
  O  O33  1  0.16419500  0.87098200  0.00599400  1
  O  O34  1  0.73944350  0.90734650  0.16115600  1
  O  O35  1  0.35158200  0.73868500  0.31940800  1
  O  O36  1  0.83580500  0.12901800  0.99400600  1
  O  O37  1  0.87249000  0.03198500  0.34718500  1
  O  O38  1  0.64841800  0.26131500  0.68059200  1
  O  O39  1  0.50000000  0.88166900  0.25000000  1
  O  O40  1  0.45883450  0.85303150  0.57359900  1
  O  O41  1  0.54116550  0.85303150  0.92640100  1
  O  O42  1  0.26055650  0.90734650  0.33884400  1
  O  O43  1  0.12751000  0.96801500  0.65281500  1
  O  O44  1  0.54116550  0.14696850  0.42640100  1
  O  O45  1  0.35158200  0.26131500  0.81940800  1
  O  O46  1  0.50000000  0.38366300  0.25000000  1
  O  O47  1  0.12751000  0.03198500  0.15281500  1
  O  O48  1  0.50000000  0.61633700  0.75000000  1
  O  O49  1  0.87249000  0.96801500  0.84718500  1
  O  O50  1  0.26055650  0.09265350  0.83884400  1
  O  O51  1  0.45883450  0.14696850  0.07359900  1
  O  O52  1  0.14841800  0.23868500  0.18059200  1
  O  O53  1  0.23944350  0.59265350  0.66115600  1
  O  O54  1  0.33580500  0.37098200  0.49400600  1
  O  O55  1  0.66419500  0.62901800  0.50599400  1
  O  O56  1  0.00000000  0.61833100  0.75000000  1
  O  O57  1  0.66419500  0.37098200  0.00599400  1
  O  O58  1  0.23944350  0.40734650  0.16115600  1
  O  O59  1  0.85158200  0.23868500  0.31940800  1
  O  O60  1  0.33580500  0.62901800  0.99400600  1
  O  O61  1  0.37249000  0.53198500  0.34718500  1
  O  O62  1  0.14841800  0.76131500  0.68059200  1
  O  O63  1  0.00000000  0.38166900  0.25000000  1
  O  O64  1  0.95883450  0.35303150  0.57359900  1
  O  O65  1  0.04116550  0.35303150  0.92640100  1
  O  O66  1  0.76055650  0.40734650  0.33884400  1
  O  O67  1  0.62751000  0.46801500  0.65281500  1
  O  O68  1  0.04116550  0.64696850  0.42640100  1
  O  O69  1  0.85158200  0.76131500  0.81940800  1
  O  O70  1  0.00000000  0.88366300  0.25000000  1
  O  O71  1  0.62751000  0.53198500  0.15281500  1
  O  O72  1  0.00000000  0.11633700  0.75000000  1
  O  O73  1  0.37249000  0.46801500  0.84718500  1
  O  O74  1  0.76055650  0.59265350  0.83884400  1
  O  O75  1  0.95883450  0.64696850  0.07359900  1
