# generated using pymatgen
data_HfF4
_symmetry_space_group_name_H-M   'P 1'
_cell_length_a   11.82602400
_cell_length_b   9.95183000
_cell_length_c   7.72134728
_cell_angle_alpha   90.00000000
_cell_angle_beta   125.90104798
_cell_angle_gamma   90.00000000
_symmetry_Int_Tables_number   1
_chemical_formula_structural   HfF4
_chemical_formula_sum   'Hf12 F48'
_cell_volume   736.09926598
_cell_formula_units_Z   12
loop_
 _symmetry_equiv_pos_site_id
 _symmetry_equiv_pos_as_xyz
  1  'x, y, z'
loop_
 _atom_site_type_symbol
 _atom_site_label
 _atom_site_symmetry_multiplicity
 _atom_site_fract_x
 _atom_site_fract_y
 _atom_site_fract_z
 _atom_site_occupancy
  Hf  Hf0  1  0.00000000  0.21412700  0.25000000  1
  Hf  Hf1  1  0.00000000  0.78587300  0.75000000  1
  Hf  Hf2  1  0.79473700  0.57121800  0.16683000  1
  Hf  Hf3  1  0.20526300  0.57121800  0.33317000  1
  Hf  Hf4  1  0.20526300  0.42878200  0.83317000  1
  Hf  Hf5  1  0.79473700  0.42878200  0.66683000  1
  Hf  Hf6  1  0.50000000  0.71412700  0.25000000  1
  Hf  Hf7  1  0.50000000  0.28587300  0.75000000  1
  Hf  Hf8  1  0.29473700  0.07121800  0.16683000  1
  Hf  Hf9  1  0.70526300  0.07121800  0.33317000  1
  Hf  Hf10  1  0.70526300  0.92878200  0.83317000  1
  Hf  Hf11  1  0.29473700  0.92878200  0.66683000  1
  F  F12  1  0.78775250  0.47069550  0.39340400  1
  F  F13  1  0.21224750  0.47069550  0.10659600  1
  F  F14  1  0.21224750  0.52930450  0.60659600  1
  F  F15  1  0.78775250  0.52930450  0.89340400  1
  F  F16  1  0.10887200  0.29325500  0.57581000  1
  F  F17  1  0.89112800  0.29325500  0.92419000  1
  F  F18  1  0.00000000  0.39360100  0.75000000  1
  F  F19  1  0.00000000  0.60639900  0.25000000  1
  F  F20  1  0.88182450  0.62064050  0.71733200  1
  F  F21  1  0.11817550  0.62064050  0.78266800  1
  F  F22  1  0.11817550  0.37935950  0.28266800  1
  F  F23  1  0.88182450  0.37935950  0.21733200  1
  F  F24  1  0.87682650  0.84684050  0.85002700  1
  F  F25  1  0.12317350  0.84684050  0.64997300  1
  F  F26  1  0.12317350  0.15315950  0.14997300  1
  F  F27  1  0.87682650  0.15315950  0.35002700  1
  F  F28  1  0.75000000  0.75000000  0.00000000  1
  F  F29  1  0.25000000  0.75000000  0.50000000  1
  F  F30  1  0.61757200  0.44504100  0.95581600  1
  F  F31  1  0.38242800  0.44504100  0.54418400  1
  F  F32  1  0.38242800  0.55495900  0.04418400  1
  F  F33  1  0.61757200  0.55495900  0.45581600  1
  F  F34  1  0.10887200  0.70674500  0.07581000  1
  F  F35  1  0.89112800  0.70674500  0.42419000  1
  F  F36  1  0.28775250  0.97069550  0.39340400  1
  F  F37  1  0.71224750  0.97069550  0.10659600  1
  F  F38  1  0.71224750  0.02930450  0.60659600  1
  F  F39  1  0.28775250  0.02930450  0.89340400  1
  F  F40  1  0.60887200  0.79325500  0.57581000  1
  F  F41  1  0.39112800  0.79325500  0.92419000  1
  F  F42  1  0.50000000  0.89360100  0.75000000  1
  F  F43  1  0.50000000  0.10639900  0.25000000  1
  F  F44  1  0.38182450  0.12064050  0.71733200  1
  F  F45  1  0.61817550  0.12064050  0.78266800  1
  F  F46  1  0.61817550  0.87935950  0.28266800  1
  F  F47  1  0.38182450  0.87935950  0.21733200  1
  F  F48  1  0.37682650  0.34684050  0.85002700  1
  F  F49  1  0.62317350  0.34684050  0.64997300  1
  F  F50  1  0.62317350  0.65315950  0.14997300  1
  F  F51  1  0.37682650  0.65315950  0.35002700  1
  F  F52  1  0.25000000  0.25000000  0.00000000  1
  F  F53  1  0.75000000  0.25000000  0.50000000  1
  F  F54  1  0.11757200  0.94504100  0.95581600  1
  F  F55  1  0.88242800  0.94504100  0.54418400  1
  F  F56  1  0.88242800  0.05495900  0.04418400  1
  F  F57  1  0.11757200  0.05495900  0.45581600  1
  F  F58  1  0.60887200  0.20674500  0.07581000  1
  F  F59  1  0.39112800  0.20674500  0.42419000  1
