# generated using pymatgen
data_K2(SO2)3
_symmetry_space_group_name_H-M   'P 1'
_cell_length_a   5.81556300
_cell_length_b   9.95427500
_cell_length_c   14.30669400
_cell_angle_alpha   90.00000000
_cell_angle_beta   90.00000000
_cell_angle_gamma   90.00000000
_symmetry_Int_Tables_number   1
_chemical_formula_structural   K2(SO2)3
_chemical_formula_sum   'K8 S12 O24'
_cell_volume   828.21041510
_cell_formula_units_Z   4
loop_
 _symmetry_equiv_pos_site_id
 _symmetry_equiv_pos_as_xyz
  1  'x, y, z'
loop_
 _atom_site_type_symbol
 _atom_site_label
 _atom_site_symmetry_multiplicity
 _atom_site_fract_x
 _atom_site_fract_y
 _atom_site_fract_z
 _atom_site_occupancy
  K  K0  1  0.25000000  0.31738400  0.73528200  1
  K  K1  1  0.75000000  0.68261600  0.26471800  1
  K  K2  1  0.25000000  0.81738400  0.76471800  1
  K  K3  1  0.75000000  0.18261600  0.23528200  1
  K  K4  1  0.25000000  0.36509800  0.41079800  1
  K  K5  1  0.75000000  0.63490200  0.58920200  1
  K  K6  1  0.25000000  0.86509800  0.08920200  1
  K  K7  1  0.75000000  0.13490200  0.91079800  1
  S  S8  1  0.25000000  0.20236700  0.03254000  1
  S  S9  1  0.75000000  0.79763300  0.96746000  1
  S  S10  1  0.25000000  0.70236700  0.46746000  1
  S  S11  1  0.75000000  0.29763300  0.53254000  1
  S  S12  1  0.25000000  0.41369800  0.04131400  1
  S  S13  1  0.75000000  0.58630200  0.95868600  1
  S  S14  1  0.25000000  0.91369800  0.45868600  1
  S  S15  1  0.75000000  0.08630200  0.54131400  1
  S  S16  1  0.25000000  0.47078000  0.18474900  1
  S  S17  1  0.75000000  0.52922000  0.81525100  1
  S  S18  1  0.25000000  0.97078000  0.31525100  1
  S  S19  1  0.75000000  0.02922000  0.68474900  1
  O  O20  1  0.96047200  0.85129300  0.92449600  1
  O  O21  1  0.46047200  0.14870700  0.07550400  1
  O  O22  1  0.53952800  0.35129300  0.57550400  1
  O  O23  1  0.03952800  0.64870700  0.42449600  1
  O  O24  1  0.03952800  0.14870700  0.07550400  1
  O  O25  1  0.53952800  0.85129300  0.92449600  1
  O  O26  1  0.46047200  0.64870700  0.42449600  1
  O  O27  1  0.96047200  0.35129300  0.57550400  1
  O  O28  1  0.96064300  0.58025800  0.77114600  1
  O  O29  1  0.46064300  0.41974200  0.22885400  1
  O  O30  1  0.53935700  0.08025800  0.72885400  1
  O  O31  1  0.03935700  0.91974200  0.27114600  1
  O  O32  1  0.03935700  0.41974200  0.22885400  1
  O  O33  1  0.53935700  0.58025800  0.77114600  1
  O  O34  1  0.46064300  0.91974200  0.27114600  1
  O  O35  1  0.96064300  0.08025800  0.72885400  1
  O  O36  1  0.25000000  0.19159100  0.92966600  1
  O  O37  1  0.75000000  0.80840900  0.07033400  1
  O  O38  1  0.25000000  0.69159100  0.57033400  1
  O  O39  1  0.75000000  0.30840900  0.42966600  1
  O  O40  1  0.75000000  0.88274000  0.67167200  1
  O  O41  1  0.25000000  0.11726000  0.32832800  1
  O  O42  1  0.75000000  0.38274000  0.82832800  1
  O  O43  1  0.25000000  0.61726000  0.17167200  1
