# generated using pymatgen
data_MgCr2O4
_symmetry_space_group_name_H-M   'P 1'
_cell_length_a   6.00743400
_cell_length_b   6.22926600
_cell_length_c   8.11808800
_cell_angle_alpha   90.00000000
_cell_angle_beta   90.00000000
_cell_angle_gamma   90.00000000
_symmetry_Int_Tables_number   1
_chemical_formula_structural   MgCr2O4
_chemical_formula_sum   'Mg4 Cr8 O16'
_cell_volume   303.79431275
_cell_formula_units_Z   4
loop_
 _symmetry_equiv_pos_site_id
 _symmetry_equiv_pos_as_xyz
  1  'x, y, z'
loop_
 _atom_site_type_symbol
 _atom_site_label
 _atom_site_symmetry_multiplicity
 _atom_site_fract_x
 _atom_site_fract_y
 _atom_site_fract_z
 _atom_site_occupancy
  Mg  Mg0  1  0.50000000  0.00000000  0.00000000  1
  Mg  Mg1  1  0.00000000  0.00000000  0.50000000  1
  Mg  Mg2  1  0.00000000  0.50000000  0.50000000  1
  Mg  Mg3  1  0.50000000  0.50000000  0.00000000  1
  Cr  Cr4  1  0.50000000  0.25000000  0.37449000  1
  Cr  Cr5  1  0.00000000  0.25000000  0.12551000  1
  Cr  Cr6  1  0.25000000  0.75000000  0.25000000  1
  Cr  Cr7  1  0.25000000  0.25000000  0.75000000  1
  Cr  Cr8  1  0.00000000  0.75000000  0.87449000  1
  Cr  Cr9  1  0.50000000  0.75000000  0.62551000  1
  Cr  Cr10  1  0.75000000  0.25000000  0.75000000  1
  Cr  Cr11  1  0.75000000  0.75000000  0.25000000  1
  O  O12  1  0.73331800  0.25000000  0.99897600  1
  O  O13  1  0.00000000  0.53034900  0.24406100  1
  O  O14  1  0.26668200  0.25000000  0.99897600  1
  O  O15  1  0.50000000  0.46965100  0.74406100  1
  O  O16  1  0.00000000  0.03034900  0.75593900  1
  O  O17  1  0.50000000  0.96965100  0.25593900  1
  O  O18  1  0.23331800  0.25000000  0.50102400  1
  O  O19  1  0.76668200  0.25000000  0.50102400  1
  O  O20  1  0.23331800  0.75000000  0.49897600  1
  O  O21  1  0.50000000  0.03034900  0.74406100  1
  O  O22  1  0.76668200  0.75000000  0.49897600  1
  O  O23  1  0.00000000  0.96965100  0.24406100  1
  O  O24  1  0.50000000  0.53034900  0.25593900  1
  O  O25  1  0.00000000  0.46965100  0.75593900  1
  O  O26  1  0.73331800  0.75000000  0.00102400  1
  O  O27  1  0.26668200  0.75000000  0.00102400  1
