# generated using pymatgen
data_Dy3GaO6
_symmetry_space_group_name_H-M   'P 1'
_cell_length_a   8.90784000
_cell_length_b   11.16862600
_cell_length_c   5.44631300
_cell_angle_alpha   90.00000000
_cell_angle_beta   90.00000000
_cell_angle_gamma   90.00000000
_symmetry_Int_Tables_number   1
_chemical_formula_structural   Dy3GaO6
_chemical_formula_sum   'Dy12 Ga4 O24'
_cell_volume   541.84460370
_cell_formula_units_Z   4
loop_
 _symmetry_equiv_pos_site_id
 _symmetry_equiv_pos_as_xyz
  1  'x, y, z'
loop_
 _atom_site_type_symbol
 _atom_site_label
 _atom_site_symmetry_multiplicity
 _atom_site_fract_x
 _atom_site_fract_y
 _atom_site_fract_z
 _atom_site_occupancy
  Dy  Dy0  1  0.50000000  0.89807200  0.92244900  1
  Dy  Dy1  1  0.50000000  0.10192800  0.42244900  1
  Dy  Dy2  1  0.80641150  0.10537650  0.96978500  1
  Dy  Dy3  1  0.19358850  0.89462350  0.46978500  1
  Dy  Dy4  1  0.19358850  0.10537650  0.96978500  1
  Dy  Dy5  1  0.80641150  0.89462350  0.46978500  1
  Dy  Dy6  1  0.00000000  0.39807200  0.92244900  1
  Dy  Dy7  1  0.00000000  0.60192800  0.42244900  1
  Dy  Dy8  1  0.30641150  0.60537650  0.96978500  1
  Dy  Dy9  1  0.69358850  0.39462350  0.46978500  1
  Dy  Dy10  1  0.69358850  0.60537650  0.96978500  1
  Dy  Dy11  1  0.30641150  0.39462350  0.46978500  1
  Ga  Ga12  1  0.50000000  0.69298800  0.50018400  1
  Ga  Ga13  1  0.50000000  0.30701200  0.00018400  1
  Ga  Ga14  1  0.00000000  0.19298800  0.50018400  1
  Ga  Ga15  1  0.00000000  0.80701200  0.00018400  1
  O  O16  1  0.50000000  0.71560000  0.16267500  1
  O  O17  1  0.50000000  0.28440000  0.66267500  1
  O  O18  1  0.50000000  0.53857500  0.64224500  1
  O  O19  1  0.50000000  0.46142500  0.14224500  1
  O  O20  1  0.66013200  0.01611700  0.69728500  1
  O  O21  1  0.33986800  0.98388300  0.19728500  1
  O  O22  1  0.33986800  0.01611700  0.69728500  1
  O  O23  1  0.66013200  0.98388300  0.19728500  1
  O  O24  1  0.34184450  0.23612750  0.17908800  1
  O  O25  1  0.65815550  0.76387250  0.67908800  1
  O  O26  1  0.65815550  0.23612750  0.17908800  1
  O  O27  1  0.34184450  0.76387250  0.67908800  1
  O  O28  1  0.00000000  0.21560000  0.16267500  1
  O  O29  1  0.00000000  0.78440000  0.66267500  1
  O  O30  1  0.00000000  0.03857500  0.64224500  1
  O  O31  1  0.00000000  0.96142500  0.14224500  1
  O  O32  1  0.16013200  0.51611700  0.69728500  1
  O  O33  1  0.83986800  0.48388300  0.19728500  1
  O  O34  1  0.83986800  0.51611700  0.69728500  1
  O  O35  1  0.16013200  0.48388300  0.19728500  1
  O  O36  1  0.84184450  0.73612750  0.17908800  1
  O  O37  1  0.15815550  0.26387250  0.67908800  1
  O  O38  1  0.15815550  0.73612750  0.17908800  1
  O  O39  1  0.84184450  0.26387250  0.67908800  1
