# generated using pymatgen
data_U(SbO3)2
_symmetry_space_group_name_H-M   'P 1'
_cell_length_a   13.73383000
_cell_length_b   4.01270600
_cell_length_c   5.37239496
_cell_angle_alpha   90.00000000
_cell_angle_beta   104.89394224
_cell_angle_gamma   90.00000000
_symmetry_Int_Tables_number   1
_chemical_formula_structural   U(SbO3)2
_chemical_formula_sum   'U2 Sb4 O12'
_cell_volume   286.12468507
_cell_formula_units_Z   2
loop_
 _symmetry_equiv_pos_site_id
 _symmetry_equiv_pos_as_xyz
  1  'x, y, z'
loop_
 _atom_site_type_symbol
 _atom_site_label
 _atom_site_symmetry_multiplicity
 _atom_site_fract_x
 _atom_site_fract_y
 _atom_site_fract_z
 _atom_site_occupancy
  U  U0  1  0.00000000  0.50000000  0.50000000  1
  U  U1  1  0.50000000  0.00000000  0.50000000  1
  Sb  Sb2  1  0.19010000  0.00000000  0.24741500  1
  Sb  Sb3  1  0.30990000  0.50000000  0.75258500  1
  Sb  Sb4  1  0.69010000  0.50000000  0.24741500  1
  Sb  Sb5  1  0.80990000  0.00000000  0.75258500  1
  O  O6  1  0.08609200  0.50000000  0.82586300  1
  O  O7  1  0.41390800  0.00000000  0.17413700  1
  O  O8  1  0.30393300  0.00000000  0.59365700  1
  O  O9  1  0.43276300  0.50000000  0.62089200  1
  O  O10  1  0.06723700  0.00000000  0.37910800  1
  O  O11  1  0.19606700  0.50000000  0.40634300  1
  O  O12  1  0.58609200  0.00000000  0.82586300  1
  O  O13  1  0.91390800  0.50000000  0.17413700  1
  O  O14  1  0.80393300  0.50000000  0.59365700  1
  O  O15  1  0.93276300  0.00000000  0.62089200  1
  O  O16  1  0.56723700  0.50000000  0.37910800  1
  O  O17  1  0.69606700  0.00000000  0.40634300  1
