# generated using pymatgen
data_Ca(LaS2)2
_symmetry_space_group_name_H-M   'P 1'
_cell_length_a   8.67926200
_cell_length_b   8.67926200
_cell_length_c   8.72319200
_cell_angle_alpha   90.00000000
_cell_angle_beta   90.00000000
_cell_angle_gamma   90.00000000
_symmetry_Int_Tables_number   1
_chemical_formula_structural   Ca(LaS2)2
_chemical_formula_sum   'Ca4 La8 S16'
_cell_volume   657.11446695
_cell_formula_units_Z   4
loop_
 _symmetry_equiv_pos_site_id
 _symmetry_equiv_pos_as_xyz
  1  'x, y, z'
loop_
 _atom_site_type_symbol
 _atom_site_label
 _atom_site_symmetry_multiplicity
 _atom_site_fract_x
 _atom_site_fract_y
 _atom_site_fract_z
 _atom_site_occupancy
  Ca  Ca0  1  0.00000000  0.50000000  0.25000000  1
  Ca  Ca1  1  0.00000000  0.00000000  0.00000000  1
  Ca  Ca2  1  0.50000000  0.00000000  0.75000000  1
  Ca  Ca3  1  0.50000000  0.50000000  0.50000000  1
  La  La4  1  0.25000000  0.63022100  0.87500000  1
  La  La5  1  0.13022100  0.25000000  0.62500000  1
  La  La6  1  0.25000000  0.86977900  0.37500000  1
  La  La7  1  0.36977900  0.25000000  0.12500000  1
  La  La8  1  0.75000000  0.13022100  0.37500000  1
  La  La9  1  0.63022100  0.75000000  0.12500000  1
  La  La10  1  0.75000000  0.36977900  0.87500000  1
  La  La11  1  0.86977900  0.75000000  0.62500000  1
  S  S12  1  0.82116050  0.42666450  0.55282050  1
  S  S13  1  0.07333550  0.17883950  0.30282050  1
  S  S14  1  0.42666450  0.17883950  0.44717950  1
  S  S15  1  0.42666450  0.32116050  0.80282050  1
  S  S16  1  0.32116050  0.57333550  0.19717950  1
  S  S17  1  0.17883950  0.92666450  0.69717950  1
  S  S18  1  0.07333550  0.32116050  0.94717950  1
  S  S19  1  0.67883950  0.07333550  0.05282050  1
  S  S20  1  0.32116050  0.92666450  0.05282050  1
  S  S21  1  0.57333550  0.67883950  0.80282050  1
  S  S22  1  0.92666450  0.67883950  0.94717950  1
  S  S23  1  0.92666450  0.82116050  0.30282050  1
  S  S24  1  0.82116050  0.07333550  0.69717950  1
  S  S25  1  0.67883950  0.42666450  0.19717950  1
  S  S26  1  0.57333550  0.82116050  0.44717950  1
  S  S27  1  0.17883950  0.57333550  0.55282050  1
