# generated using pymatgen
data_Bi13O20
_symmetry_space_group_name_H-M   'P 1'
_cell_length_a   10.45506200
_cell_length_b   10.45506200
_cell_length_c   10.45506200
_cell_angle_alpha   90.00000000
_cell_angle_beta   90.00000000
_cell_angle_gamma   90.00000000
_symmetry_Int_Tables_number   1
_chemical_formula_structural   Bi13O20
_chemical_formula_sum   'Bi26 O40'
_cell_volume   1142.82527760
_cell_formula_units_Z   2
loop_
 _symmetry_equiv_pos_site_id
 _symmetry_equiv_pos_as_xyz
  1  'x, y, z'
loop_
 _atom_site_type_symbol
 _atom_site_label
 _atom_site_symmetry_multiplicity
 _atom_site_fract_x
 _atom_site_fract_y
 _atom_site_fract_z
 _atom_site_occupancy
  Bi  Bi0  1  0.32115100  0.17792300  0.01598900  1
  Bi  Bi1  1  0.17792300  0.01598900  0.32115100  1
  Bi  Bi2  1  0.01598900  0.32115100  0.17792300  1
  Bi  Bi3  1  0.00000000  0.00000000  0.00000000  1
  Bi  Bi4  1  0.51598900  0.17884900  0.32207700  1
  Bi  Bi5  1  0.17884900  0.32207700  0.51598900  1
  Bi  Bi6  1  0.32207700  0.51598900  0.17884900  1
  Bi  Bi7  1  0.17792300  0.98401100  0.67884900  1
  Bi  Bi8  1  0.98401100  0.67884900  0.17792300  1
  Bi  Bi9  1  0.67884900  0.17792300  0.98401100  1
  Bi  Bi10  1  0.48401100  0.82115100  0.32207700  1
  Bi  Bi11  1  0.82115100  0.32207700  0.48401100  1
  Bi  Bi12  1  0.32207700  0.48401100  0.82115100  1
  Bi  Bi13  1  0.82115100  0.67792300  0.51598900  1
  Bi  Bi14  1  0.67792300  0.51598900  0.82115100  1
  Bi  Bi15  1  0.51598900  0.82115100  0.67792300  1
  Bi  Bi16  1  0.50000000  0.50000000  0.50000000  1
  Bi  Bi17  1  0.01598900  0.67884900  0.82207700  1
  Bi  Bi18  1  0.67884900  0.82207700  0.01598900  1
  Bi  Bi19  1  0.82207700  0.01598900  0.67884900  1
  Bi  Bi20  1  0.67792300  0.48401100  0.17884900  1
  Bi  Bi21  1  0.48401100  0.17884900  0.67792300  1
  Bi  Bi22  1  0.17884900  0.67792300  0.48401100  1
  Bi  Bi23  1  0.98401100  0.32115100  0.82207700  1
  Bi  Bi24  1  0.32115100  0.82207700  0.98401100  1
  Bi  Bi25  1  0.82207700  0.98401100  0.32115100  1
  O  O26  1  0.36912250  0.99414650  0.26007650  1
  O  O27  1  0.11946800  0.88053200  0.11946800  1
  O  O28  1  0.11946800  0.11946800  0.88053200  1
  O  O29  1  0.50585350  0.23992350  0.86912250  1
  O  O30  1  0.31296850  0.31296850  0.68703150  1
  O  O31  1  0.31296850  0.68703150  0.31296850  1
  O  O32  1  0.49414650  0.23992350  0.13087750  1
  O  O33  1  0.63087750  0.00585350  0.26007650  1
  O  O34  1  0.26007650  0.36912250  0.99414650  1
  O  O35  1  0.88053200  0.11946800  0.11946800  1
  O  O36  1  0.23992350  0.86912250  0.50585350  1
  O  O37  1  0.68703150  0.31296850  0.31296850  1
  O  O38  1  0.23992350  0.13087750  0.49414650  1
  O  O39  1  0.26007650  0.63087750  0.00585350  1
  O  O40  1  0.99414650  0.26007650  0.36912250  1
  O  O41  1  0.86912250  0.50585350  0.23992350  1
  O  O42  1  0.13087750  0.49414650  0.23992350  1
  O  O43  1  0.00585350  0.26007650  0.63087750  1
  O  O44  1  0.18703150  0.18703150  0.18703150  1
  O  O45  1  0.38053200  0.38053200  0.38053200  1
  O  O46  1  0.86912250  0.49414650  0.76007650  1
  O  O47  1  0.61946800  0.38053200  0.61946800  1
  O  O48  1  0.61946800  0.61946800  0.38053200  1
  O  O49  1  0.00585350  0.73992350  0.36912250  1
  O  O50  1  0.81296850  0.81296850  0.18703150  1
  O  O51  1  0.81296850  0.18703150  0.81296850  1
  O  O52  1  0.99414650  0.73992350  0.63087750  1
  O  O53  1  0.13087750  0.50585350  0.76007650  1
  O  O54  1  0.76007650  0.86912250  0.49414650  1
  O  O55  1  0.38053200  0.61946800  0.61946800  1
  O  O56  1  0.73992350  0.36912250  0.00585350  1
  O  O57  1  0.18703150  0.81296850  0.81296850  1
  O  O58  1  0.73992350  0.63087750  0.99414650  1
  O  O59  1  0.76007650  0.13087750  0.50585350  1
  O  O60  1  0.49414650  0.76007650  0.86912250  1
  O  O61  1  0.36912250  0.00585350  0.73992350  1
  O  O62  1  0.63087750  0.99414650  0.73992350  1
  O  O63  1  0.50585350  0.76007650  0.13087750  1
  O  O64  1  0.68703150  0.68703150  0.68703150  1
  O  O65  1  0.88053200  0.88053200  0.88053200  1
