# generated using pymatgen
data_La2Te3
_symmetry_space_group_name_H-M   'P 1'
_cell_length_a   9.67370800
_cell_length_b   9.67370800
_cell_length_c   29.09062600
_cell_angle_alpha   90.00000000
_cell_angle_beta   90.00000000
_cell_angle_gamma   90.00000000
_symmetry_Int_Tables_number   1
_chemical_formula_structural   La2Te3
_chemical_formula_sum   'La32 Te48'
_cell_volume   2722.31900546
_cell_formula_units_Z   16
loop_
 _symmetry_equiv_pos_site_id
 _symmetry_equiv_pos_as_xyz
  1  'x, y, z'
loop_
 _atom_site_type_symbol
 _atom_site_label
 _atom_site_symmetry_multiplicity
 _atom_site_fract_x
 _atom_site_fract_y
 _atom_site_fract_z
 _atom_site_occupancy
  La  La0  1  0.86974100  0.74426650  0.45930725  1
  La  La1  1  0.50000000  0.00000000  0.41767875  1
  La  La2  1  0.25000000  0.62006900  0.37500000  1
  La  La3  1  0.63025900  0.74426650  0.29069275  1
  La  La4  1  0.00000000  0.00000000  0.33232125  1
  La  La5  1  0.36974100  0.25573350  0.29069275  1
  La  La6  1  0.75000000  0.37993100  0.37500000  1
  La  La7  1  0.75573350  0.13025900  0.20930725  1
  La  La8  1  0.12006900  0.25000000  0.12500000  1
  La  La9  1  0.50000000  0.50000000  0.16767875  1
  La  La10  1  0.87993100  0.75000000  0.12500000  1
  La  La11  1  0.24426650  0.86974100  0.20930725  1
  La  La12  1  0.50000000  0.00000000  0.08232125  1
  La  La13  1  0.24426650  0.63025900  0.04069275  1
  La  La14  1  0.13025900  0.25573350  0.45930725  1
  La  La15  1  0.75573350  0.36974100  0.04069275  1
  La  La16  1  0.36974100  0.24426650  0.95930725  1
  La  La17  1  0.00000000  0.50000000  0.91767875  1
  La  La18  1  0.75000000  0.12006900  0.87500000  1
  La  La19  1  0.13025900  0.24426650  0.79069275  1
  La  La20  1  0.50000000  0.50000000  0.83232125  1
  La  La21  1  0.86974100  0.75573350  0.79069275  1
  La  La22  1  0.25000000  0.87993100  0.87500000  1
  La  La23  1  0.25573350  0.63025900  0.70930725  1
  La  La24  1  0.62006900  0.75000000  0.62500000  1
  La  La25  1  0.00000000  0.00000000  0.66767875  1
  La  La26  1  0.37993100  0.25000000  0.62500000  1
  La  La27  1  0.74426650  0.36974100  0.70930725  1
  La  La28  1  0.00000000  0.50000000  0.58232125  1
  La  La29  1  0.74426650  0.13025900  0.54069275  1
  La  La30  1  0.63025900  0.75573350  0.95930725  1
  La  La31  1  0.25573350  0.86974100  0.54069275  1
  Te  Te32  1  0.82721450  0.07508700  0.43254375  1
  Te  Te33  1  0.42482600  0.32249850  0.39800225  1
  Te  Te34  1  0.17278550  0.92491300  0.43254375  1
  Te  Te35  1  0.32721450  0.92491300  0.31745625  1
  Te  Te36  1  0.67278550  0.07508700  0.31745625  1
  Te  Te37  1  0.57517400  0.67750150  0.39800225  1
  Te  Te38  1  0.32627200  0.58004350  0.26571325  1
  Te  Te39  1  0.92482600  0.67750150  0.35199775  1
  Te  Te40  1  0.91995650  0.82627200  0.23428675  1
  Te  Te41  1  0.67372800  0.41995650  0.26571325  1
  Te  Te42  1  0.07517400  0.32249850  0.35199775  1
  Te  Te43  1  0.82249850  0.42482600  0.14800225  1
  Te  Te44  1  0.17750150  0.57517400  0.14800225  1
  Te  Te45  1  0.08004350  0.17372800  0.23428675  1
  Te  Te46  1  0.82249850  0.07517400  0.10199775  1
  Te  Te47  1  0.42491300  0.17278550  0.18254375  1
  Te  Te48  1  0.42491300  0.32721450  0.06745625  1
  Te  Te49  1  0.17750150  0.92482600  0.10199775  1
  Te  Te50  1  0.57508700  0.82721450  0.18254375  1
  Te  Te51  1  0.82627200  0.41995650  0.48428675  1
  Te  Te52  1  0.17372800  0.58004350  0.48428675  1
  Te  Te53  1  0.57508700  0.67278550  0.06745625  1
  Te  Te54  1  0.91995650  0.67372800  0.01571325  1
  Te  Te55  1  0.08004350  0.32627200  0.01571325  1
  Te  Te56  1  0.32721450  0.57508700  0.93254375  1
  Te  Te57  1  0.92482600  0.82249850  0.89800225  1
  Te  Te58  1  0.67278550  0.42491300  0.93254375  1
  Te  Te59  1  0.82721450  0.42491300  0.81745625  1
  Te  Te60  1  0.17278550  0.57508700  0.81745625  1
  Te  Te61  1  0.07517400  0.17750150  0.89800225  1
  Te  Te62  1  0.82627200  0.08004350  0.76571325  1
  Te  Te63  1  0.42482600  0.17750150  0.85199775  1
  Te  Te64  1  0.41995650  0.32627200  0.73428675  1
  Te  Te65  1  0.17372800  0.91995650  0.76571325  1
  Te  Te66  1  0.57517400  0.82249850  0.85199775  1
  Te  Te67  1  0.32249850  0.92482600  0.64800225  1
  Te  Te68  1  0.67750150  0.07517400  0.64800225  1
  Te  Te69  1  0.58004350  0.67372800  0.73428675  1
  Te  Te70  1  0.32249850  0.57517400  0.60199775  1
  Te  Te71  1  0.92491300  0.67278550  0.68254375  1
  Te  Te72  1  0.92491300  0.82721450  0.56745625  1
  Te  Te73  1  0.67750150  0.42482600  0.60199775  1
  Te  Te74  1  0.07508700  0.32721450  0.68254375  1
  Te  Te75  1  0.32627200  0.91995650  0.98428675  1
  Te  Te76  1  0.67372800  0.08004350  0.98428675  1
  Te  Te77  1  0.07508700  0.17278550  0.56745625  1
  Te  Te78  1  0.41995650  0.17372800  0.51571325  1
  Te  Te79  1  0.58004350  0.82627200  0.51571325  1
