# generated using pymatgen
data_Fe2NiO4
_symmetry_space_group_name_H-M   'P 1'
_cell_length_a   5.96477876
_cell_length_b   5.98252972
_cell_length_c   8.43692638
_cell_angle_alpha   90.00000000
_cell_angle_beta   90.00000000
_cell_angle_gamma   90.00000000
_symmetry_Int_Tables_number   1
_chemical_formula_structural   Fe2NiO4
_chemical_formula_sum   'Fe8 Ni4 O16'
_cell_volume   301.06721449
_cell_formula_units_Z   4
loop_
 _symmetry_equiv_pos_site_id
 _symmetry_equiv_pos_as_xyz
  1  'x, y, z'
loop_
 _atom_site_type_symbol
 _atom_site_label
 _atom_site_symmetry_multiplicity
 _atom_site_fract_x
 _atom_site_fract_y
 _atom_site_fract_z
 _atom_site_occupancy
  Fe  Fe0  1  0.50000000  0.25000000  0.37108300  1
  Fe  Fe1  1  0.00000000  0.25000000  0.12891700  1
  Fe  Fe2  1  0.50000000  0.00000000  0.00000000  1
  Fe  Fe3  1  0.50000000  0.50000000  0.00000000  1
  Fe  Fe4  1  0.00000000  0.75000000  0.87108300  1
  Fe  Fe5  1  0.50000000  0.75000000  0.62891700  1
  Fe  Fe6  1  0.00000000  0.50000000  0.50000000  1
  Fe  Fe7  1  0.00000000  0.00000000  0.50000000  1
  Ni  Ni8  1  0.25000000  0.25000000  0.75000000  1
  Ni  Ni9  1  0.75000000  0.25000000  0.75000000  1
  Ni  Ni10  1  0.75000000  0.75000000  0.25000000  1
  Ni  Ni11  1  0.25000000  0.75000000  0.25000000  1
  O  O12  1  0.50000000  0.00847900  0.76030100  1
  O  O13  1  0.50000000  0.49152100  0.76030100  1
  O  O14  1  0.00000000  0.00847900  0.73969900  1
  O  O15  1  0.00000000  0.49152100  0.73969900  1
  O  O16  1  0.26481450  0.25000000  0.99755050  1
  O  O17  1  0.73518550  0.25000000  0.99755050  1
  O  O18  1  0.76481450  0.25000000  0.50244950  1
  O  O19  1  0.23518550  0.25000000  0.50244950  1
  O  O20  1  0.00000000  0.50847900  0.26030100  1
  O  O21  1  0.00000000  0.99152100  0.26030100  1
  O  O22  1  0.50000000  0.50847900  0.23969900  1
  O  O23  1  0.50000000  0.99152100  0.23969900  1
  O  O24  1  0.76481450  0.75000000  0.49755050  1
  O  O25  1  0.23518550  0.75000000  0.49755050  1
  O  O26  1  0.26481450  0.75000000  0.00244950  1
  O  O27  1  0.73518550  0.75000000  0.00244950  1
