# generated using pymatgen
data_KHS
_symmetry_space_group_name_H-M   'P 1'
_cell_length_a   5.02375682
_cell_length_b   5.02375682
_cell_length_c   9.75264423
_cell_angle_alpha   90.00000000
_cell_angle_beta   90.00000000
_cell_angle_gamma   120.00000000
_symmetry_Int_Tables_number   1
_chemical_formula_structural   KHS
_chemical_formula_sum   'K3 H3 S3'
_cell_volume   213.16221844
_cell_formula_units_Z   3
loop_
 _symmetry_equiv_pos_site_id
 _symmetry_equiv_pos_as_xyz
  1  'x, y, z'
loop_
 _atom_site_type_symbol
 _atom_site_label
 _atom_site_symmetry_multiplicity
 _atom_site_fract_x
 _atom_site_fract_y
 _atom_site_fract_z
 _atom_site_occupancy
  K  K0  1  0.33333333  0.66666667  0.66559867  1
  K  K1  1  0.00000000  0.00000000  0.99893200  1
  K  K2  1  0.66666667  0.33333333  0.33226533  1
  H  H3  1  0.33333333  0.66666667  0.02237167  1
  H  H4  1  0.00000000  0.00000000  0.35570500  1
  H  H5  1  0.66666667  0.33333333  0.68903833  1
  S  S6  1  0.33333333  0.66666667  0.16102967  1
  S  S7  1  0.00000000  0.00000000  0.49436300  1
  S  S8  1  0.66666667  0.33333333  0.82769633  1
