# generated using pymatgen
data_Dy2S3
_symmetry_space_group_name_H-M   'P 1'
_cell_length_a   8.32367600
_cell_length_b   8.32367600
_cell_length_c   24.90027200
_cell_angle_alpha   90.00000000
_cell_angle_beta   90.00000000
_cell_angle_gamma   90.00000000
_symmetry_Int_Tables_number   1
_chemical_formula_structural   Dy2S3
_chemical_formula_sum   'Dy32 S48'
_cell_volume   1725.18004074
_cell_formula_units_Z   16
loop_
 _symmetry_equiv_pos_site_id
 _symmetry_equiv_pos_as_xyz
  1  'x, y, z'
loop_
 _atom_site_type_symbol
 _atom_site_label
 _atom_site_symmetry_multiplicity
 _atom_site_fract_x
 _atom_site_fract_y
 _atom_site_fract_z
 _atom_site_occupancy
  Dy  Dy0  1  0.86127750  0.74036150  0.46118850  1
  Dy  Dy1  1  0.50000000  0.00000000  0.41544800  1
  Dy  Dy2  1  0.25000000  0.61878100  0.37500000  1
  Dy  Dy3  1  0.63872250  0.74036150  0.28881150  1
  Dy  Dy4  1  0.00000000  0.00000000  0.33455200  1
  Dy  Dy5  1  0.75000000  0.38121900  0.37500000  1
  Dy  Dy6  1  0.36127750  0.25963850  0.28881150  1
  Dy  Dy7  1  0.75963850  0.13872250  0.21118850  1
  Dy  Dy8  1  0.11878100  0.25000000  0.12500000  1
  Dy  Dy9  1  0.50000000  0.50000000  0.16544800  1
  Dy  Dy10  1  0.88121900  0.75000000  0.12500000  1
  Dy  Dy11  1  0.24036150  0.86127750  0.21118850  1
  Dy  Dy12  1  0.50000000  0.00000000  0.08455200  1
  Dy  Dy13  1  0.24036150  0.63872250  0.03881150  1
  Dy  Dy14  1  0.13872250  0.25963850  0.46118850  1
  Dy  Dy15  1  0.75963850  0.36127750  0.03881150  1
  Dy  Dy16  1  0.36127750  0.24036150  0.96118850  1
  Dy  Dy17  1  0.00000000  0.50000000  0.91544800  1
  Dy  Dy18  1  0.75000000  0.11878100  0.87500000  1
  Dy  Dy19  1  0.13872250  0.24036150  0.78881150  1
  Dy  Dy20  1  0.50000000  0.50000000  0.83455200  1
  Dy  Dy21  1  0.25000000  0.88121900  0.87500000  1
  Dy  Dy22  1  0.86127750  0.75963850  0.78881150  1
  Dy  Dy23  1  0.25963850  0.63872250  0.71118850  1
  Dy  Dy24  1  0.61878100  0.75000000  0.62500000  1
  Dy  Dy25  1  0.00000000  0.00000000  0.66544800  1
  Dy  Dy26  1  0.38121900  0.25000000  0.62500000  1
  Dy  Dy27  1  0.74036150  0.36127750  0.71118850  1
  Dy  Dy28  1  0.00000000  0.50000000  0.58455200  1
  Dy  Dy29  1  0.74036150  0.13872250  0.53881150  1
  Dy  Dy30  1  0.63872250  0.75963850  0.96118850  1
  Dy  Dy31  1  0.25963850  0.86127750  0.53881150  1
  S  S32  1  0.82015950  0.06647950  0.43423250  1
  S  S33  1  0.42941900  0.31623000  0.39410900  1
  S  S34  1  0.17984050  0.93352050  0.43423250  1
  S  S35  1  0.32015950  0.93352050  0.31576750  1
  S  S36  1  0.67984050  0.06647950  0.31576750  1
  S  S37  1  0.07058100  0.31623000  0.35589100  1
  S  S38  1  0.57058100  0.68377000  0.39410900  1
  S  S39  1  0.32609200  0.57891800  0.26725800  1
  S  S40  1  0.92941900  0.68377000  0.35589100  1
  S  S41  1  0.92108200  0.82609200  0.23274200  1
  S  S42  1  0.67390800  0.42108200  0.26725800  1
  S  S43  1  0.81623000  0.42941900  0.14410900  1
  S  S44  1  0.18377000  0.57058100  0.14410900  1
  S  S45  1  0.56647950  0.82015950  0.18423250  1
  S  S46  1  0.07891800  0.17390800  0.23274200  1
  S  S47  1  0.81623000  0.07058100  0.10589100  1
  S  S48  1  0.43352050  0.17984050  0.18423250  1
  S  S49  1  0.43352050  0.32015950  0.06576750  1
  S  S50  1  0.18377000  0.92941900  0.10589100  1
  S  S51  1  0.82609200  0.42108200  0.48274200  1
  S  S52  1  0.17390800  0.57891800  0.48274200  1
  S  S53  1  0.56647950  0.67984050  0.06576750  1
  S  S54  1  0.07891800  0.32609200  0.01725800  1
  S  S55  1  0.92108200  0.67390800  0.01725800  1
  S  S56  1  0.32015950  0.56647950  0.93423250  1
  S  S57  1  0.92941900  0.81623000  0.89410900  1
  S  S58  1  0.67984050  0.43352050  0.93423250  1
  S  S59  1  0.82015950  0.43352050  0.81576750  1
  S  S60  1  0.17984050  0.56647950  0.81576750  1
  S  S61  1  0.57058100  0.81623000  0.85589100  1
  S  S62  1  0.07058100  0.18377000  0.89410900  1
  S  S63  1  0.82609200  0.07891800  0.76725800  1
  S  S64  1  0.42941900  0.18377000  0.85589100  1
  S  S65  1  0.42108200  0.32609200  0.73274200  1
  S  S66  1  0.17390800  0.92108200  0.76725800  1
  S  S67  1  0.31623000  0.92941900  0.64410900  1
  S  S68  1  0.68377000  0.07058100  0.64410900  1
  S  S69  1  0.06647950  0.32015950  0.68423250  1
  S  S70  1  0.57891800  0.67390800  0.73274200  1
  S  S71  1  0.31623000  0.57058100  0.60589100  1
  S  S72  1  0.93352050  0.67984050  0.68423250  1
  S  S73  1  0.93352050  0.82015950  0.56576750  1
  S  S74  1  0.68377000  0.42941900  0.60589100  1
  S  S75  1  0.32609200  0.92108200  0.98274200  1
  S  S76  1  0.67390800  0.07891800  0.98274200  1
  S  S77  1  0.06647950  0.17984050  0.56576750  1
  S  S78  1  0.57891800  0.82609200  0.51725800  1
  S  S79  1  0.42108200  0.17390800  0.51725800  1
