# generated using pymatgen
data_MgTiO3
_symmetry_space_group_name_H-M   'P 1'
_cell_length_a   5.10318806
_cell_length_b   5.10318806
_cell_length_c   14.04399908
_cell_angle_alpha   90.00000000
_cell_angle_beta   90.00000000
_cell_angle_gamma   120.00000000
_symmetry_Int_Tables_number   1
_chemical_formula_structural   MgTiO3
_chemical_formula_sum   'Mg6 Ti6 O18'
_cell_volume   316.74120898
_cell_formula_units_Z   6
loop_
 _symmetry_equiv_pos_site_id
 _symmetry_equiv_pos_as_xyz
  1  'x, y, z'
loop_
 _atom_site_type_symbol
 _atom_site_label
 _atom_site_symmetry_multiplicity
 _atom_site_fract_x
 _atom_site_fract_y
 _atom_site_fract_z
 _atom_site_occupancy
  Mg  Mg0  1  0.33333333  0.66666667  0.02139767  1
  Mg  Mg1  1  0.33333333  0.66666667  0.31193567  1
  Mg  Mg2  1  0.00000000  0.00000000  0.35473100  1
  Mg  Mg3  1  0.00000000  0.00000000  0.64526900  1
  Mg  Mg4  1  0.66666667  0.33333333  0.68806433  1
  Mg  Mg5  1  0.66666667  0.33333333  0.97860233  1
  Ti  Ti6  1  0.00000000  0.00000000  0.14361100  1
  Ti  Ti7  1  0.66666667  0.33333333  0.18972233  1
  Ti  Ti8  1  0.66666667  0.33333333  0.47694433  1
  Ti  Ti9  1  0.33333333  0.66666667  0.52305567  1
  Ti  Ti10  1  0.33333333  0.66666667  0.81027767  1
  Ti  Ti11  1  0.00000000  0.00000000  0.85638900  1
  O  O12  1  0.68811167  0.64963333  0.08664333  1
  O  O13  1  0.35036667  0.03847833  0.08664333  1
  O  O14  1  0.96152167  0.31188833  0.08664333  1
  O  O15  1  0.97855500  0.68370000  0.24669000  1
  O  O16  1  0.70514500  0.02144500  0.24669000  1
  O  O17  1  0.31630000  0.29485500  0.24669000  1
  O  O18  1  0.35477833  0.98296667  0.41997667  1
  O  O19  1  0.01703333  0.37181167  0.41997667  1
  O  O20  1  0.62818833  0.64522167  0.41997667  1
  O  O21  1  0.64522167  0.01703333  0.58002333  1
  O  O22  1  0.37181167  0.35477833  0.58002333  1
  O  O23  1  0.98296667  0.62818833  0.58002333  1
  O  O24  1  0.02144500  0.31630000  0.75331000  1
  O  O25  1  0.68370000  0.70514500  0.75331000  1
  O  O26  1  0.29485500  0.97855500  0.75331000  1
  O  O27  1  0.31188833  0.35036667  0.91335667  1
  O  O28  1  0.03847833  0.68811167  0.91335667  1
  O  O29  1  0.64963333  0.96152167  0.91335667  1
