# generated using pymatgen
data_Er3GaO6
_symmetry_space_group_name_H-M   'P 1'
_cell_length_a   8.82005600
_cell_length_b   11.05982600
_cell_length_c   5.39696300
_cell_angle_alpha   90.00000000
_cell_angle_beta   90.00000000
_cell_angle_gamma   90.00000000
_symmetry_Int_Tables_number   1
_chemical_formula_structural   Er3GaO6
_chemical_formula_sum   'Er12 Ga4 O24'
_cell_volume   526.46448308
_cell_formula_units_Z   4
loop_
 _symmetry_equiv_pos_site_id
 _symmetry_equiv_pos_as_xyz
  1  'x, y, z'
loop_
 _atom_site_type_symbol
 _atom_site_label
 _atom_site_symmetry_multiplicity
 _atom_site_fract_x
 _atom_site_fract_y
 _atom_site_fract_z
 _atom_site_occupancy
  Er  Er0  1  0.50000000  0.89860500  0.92932100  1
  Er  Er1  1  0.50000000  0.10139500  0.42932100  1
  Er  Er2  1  0.80659900  0.10510900  0.97845800  1
  Er  Er3  1  0.19340100  0.89489100  0.47845800  1
  Er  Er4  1  0.19340100  0.10510900  0.97845800  1
  Er  Er5  1  0.80659900  0.89489100  0.47845800  1
  Er  Er6  1  0.00000000  0.39860500  0.92932100  1
  Er  Er7  1  0.00000000  0.60139500  0.42932100  1
  Er  Er8  1  0.30659900  0.60510900  0.97845800  1
  Er  Er9  1  0.69340100  0.39489100  0.47845800  1
  Er  Er10  1  0.69340100  0.60510900  0.97845800  1
  Er  Er11  1  0.30659900  0.39489100  0.47845800  1
  Ga  Ga12  1  0.50000000  0.69361300  0.50874800  1
  Ga  Ga13  1  0.50000000  0.30638700  0.00874800  1
  Ga  Ga14  1  0.00000000  0.19361300  0.50874800  1
  Ga  Ga15  1  0.00000000  0.80638700  0.00874800  1
  O  O16  1  0.50000000  0.71537700  0.16850800  1
  O  O17  1  0.50000000  0.28462300  0.66850800  1
  O  O18  1  0.50000000  0.53870200  0.65706700  1
  O  O19  1  0.50000000  0.46129800  0.15706700  1
  O  O20  1  0.66044550  0.01738750  0.70432500  1
  O  O21  1  0.33955450  0.98261250  0.20432500  1
  O  O22  1  0.33955450  0.01738750  0.70432500  1
  O  O23  1  0.66044550  0.98261250  0.20432500  1
  O  O24  1  0.34086750  0.23488150  0.19028500  1
  O  O25  1  0.65913250  0.76511850  0.69028500  1
  O  O26  1  0.65913250  0.23488150  0.19028500  1
  O  O27  1  0.34086750  0.76511850  0.69028500  1
  O  O28  1  0.00000000  0.21537700  0.16850800  1
  O  O29  1  0.00000000  0.78462300  0.66850800  1
  O  O30  1  0.00000000  0.03870200  0.65706700  1
  O  O31  1  0.00000000  0.96129800  0.15706700  1
  O  O32  1  0.16044550  0.51738750  0.70432500  1
  O  O33  1  0.83955450  0.48261250  0.20432500  1
  O  O34  1  0.83955450  0.51738750  0.70432500  1
  O  O35  1  0.16044550  0.48261250  0.20432500  1
  O  O36  1  0.84086750  0.73488150  0.19028500  1
  O  O37  1  0.15913250  0.26511850  0.69028500  1
  O  O38  1  0.15913250  0.73488150  0.19028500  1
  O  O39  1  0.84086750  0.26511850  0.69028500  1
