# generated using pymatgen
data_Ba(LaSe2)2
_symmetry_space_group_name_H-M   'P 1'
_cell_length_a   9.33826000
_cell_length_b   9.33826000
_cell_length_c   9.28023800
_cell_angle_alpha   90.00000000
_cell_angle_beta   90.00000000
_cell_angle_gamma   90.00000000
_symmetry_Int_Tables_number   1
_chemical_formula_structural   Ba(LaSe2)2
_chemical_formula_sum   'Ba4 La8 Se16'
_cell_volume   809.26552074
_cell_formula_units_Z   4
loop_
 _symmetry_equiv_pos_site_id
 _symmetry_equiv_pos_as_xyz
  1  'x, y, z'
loop_
 _atom_site_type_symbol
 _atom_site_label
 _atom_site_symmetry_multiplicity
 _atom_site_fract_x
 _atom_site_fract_y
 _atom_site_fract_z
 _atom_site_occupancy
  Ba  Ba0  1  0.00000000  0.00000000  0.50000000  1
  Ba  Ba1  1  0.50000000  0.00000000  0.75000000  1
  Ba  Ba2  1  0.50000000  0.50000000  0.00000000  1
  Ba  Ba3  1  0.00000000  0.50000000  0.25000000  1
  La  La4  1  0.87365100  0.75000000  0.87500000  1
  La  La5  1  0.75000000  0.37365100  0.62500000  1
  La  La6  1  0.62634900  0.75000000  0.37500000  1
  La  La7  1  0.75000000  0.12634900  0.12500000  1
  La  La8  1  0.37365100  0.25000000  0.37500000  1
  La  La9  1  0.25000000  0.87365100  0.12500000  1
  La  La10  1  0.12634900  0.25000000  0.87500000  1
  La  La11  1  0.25000000  0.62634900  0.62500000  1
  Se  Se12  1  0.07829250  0.16799650  0.18813350  1
  Se  Se13  1  0.83200350  0.07829250  0.81186650  1
  Se  Se14  1  0.66799650  0.07829250  0.43813350  1
  Se  Se15  1  0.42170750  0.16799650  0.06186650  1
  Se  Se16  1  0.07829250  0.33200350  0.56186650  1
  Se  Se17  1  0.66799650  0.42170750  0.31186650  1
  Se  Se18  1  0.42170750  0.33200350  0.68813350  1
  Se  Se19  1  0.83200350  0.42170750  0.93813350  1
  Se  Se20  1  0.57829250  0.66799650  0.68813350  1
  Se  Se21  1  0.33200350  0.57829250  0.31186650  1
  Se  Se22  1  0.16799650  0.57829250  0.93813350  1
  Se  Se23  1  0.92170750  0.66799650  0.56186650  1
  Se  Se24  1  0.57829250  0.83200350  0.06186650  1
  Se  Se25  1  0.16799650  0.92170750  0.81186650  1
  Se  Se26  1  0.92170750  0.83200350  0.18813350  1
  Se  Se27  1  0.33200350  0.92170750  0.43813350  1
