# generated using pymatgen
data_Mn(PO3)4
_symmetry_space_group_name_H-M   'P 1'
_cell_length_a   5.08681200
_cell_length_b   13.54778600
_cell_length_c   7.18245086
_cell_angle_alpha   90.00000000
_cell_angle_beta   99.07622025
_cell_angle_gamma   90.00000000
_symmetry_Int_Tables_number   1
_chemical_formula_structural   Mn(PO3)4
_chemical_formula_sum   'Mn2 P8 O24'
_cell_volume   488.78144016
_cell_formula_units_Z   2
loop_
 _symmetry_equiv_pos_site_id
 _symmetry_equiv_pos_as_xyz
  1  'x, y, z'
loop_
 _atom_site_type_symbol
 _atom_site_label
 _atom_site_symmetry_multiplicity
 _atom_site_fract_x
 _atom_site_fract_y
 _atom_site_fract_z
 _atom_site_occupancy
  Mn  Mn0  1  0.49164100  0.26398200  0.49142600  1
  Mn  Mn1  1  0.50835900  0.76398200  0.50857400  1
  P  P2  1  0.85429800  0.82937200  0.90748200  1
  P  P3  1  0.22621800  0.67570900  0.11413000  1
  P  P4  1  0.14570200  0.32937200  0.09251800  1
  P  P5  1  0.00326700  0.12555900  0.54701100  1
  P  P6  1  0.99673300  0.62555900  0.45298900  1
  P  P7  1  0.01888500  0.90273700  0.55683600  1
  P  P8  1  0.98111500  0.40273700  0.44316400  1
  P  P9  1  0.77378200  0.17570900  0.88587000  1
  O  O10  1  0.19460200  0.33617800  0.54838400  1
  O  O11  1  0.80298300  0.88429500  0.07314900  1
  O  O12  1  0.97442300  0.39650000  0.22314400  1
  O  O13  1  0.78122300  0.18535500  0.43224500  1
  O  O14  1  0.38788800  0.28871900  0.22701400  1
  O  O15  1  0.94922200  0.23615700  0.05139100  1
  O  O16  1  0.02557700  0.89650000  0.77685600  1
  O  O17  1  0.27645500  0.14190900  0.49089900  1
  O  O18  1  0.72354500  0.64190900  0.50910100  1
  O  O19  1  0.19701700  0.38429500  0.92685100  1
  O  O20  1  0.07253700  0.51280300  0.49813200  1
  O  O21  1  0.70734400  0.38736400  0.49717000  1
  O  O22  1  0.05077800  0.73615700  0.94860900  1
  O  O23  1  0.61158200  0.25187000  0.75575500  1
  O  O24  1  0.29265600  0.88736400  0.50283000  1
  O  O25  1  0.21877700  0.68535500  0.56775500  1
  O  O26  1  0.80539800  0.83617800  0.45161600  1
  O  O27  1  0.61211200  0.78871900  0.77298600  1
  O  O28  1  0.01067100  0.13841200  0.76511200  1
  O  O29  1  0.38841800  0.75187000  0.24424500  1
  O  O30  1  0.98932900  0.63841200  0.23488800  1
  O  O31  1  0.92746300  0.01280300  0.50186800  1
  O  O32  1  0.36250400  0.59331600  0.03850600  1
  O  O33  1  0.63749600  0.09331600  0.96149400  1
