# generated using pymatgen
data_Pr3OsO7
_symmetry_space_group_name_H-M   'P 1'
_cell_length_a   7.56199000
_cell_length_b   11.08777600
_cell_length_c   7.65575100
_cell_angle_alpha   90.00000000
_cell_angle_beta   90.00000000
_cell_angle_gamma   90.00000000
_symmetry_Int_Tables_number   1
_chemical_formula_structural   Pr3OsO7
_chemical_formula_sum   'Pr12 Os4 O28'
_cell_volume   641.90142828
_cell_formula_units_Z   4
loop_
 _symmetry_equiv_pos_site_id
 _symmetry_equiv_pos_as_xyz
  1  'x, y, z'
loop_
 _atom_site_type_symbol
 _atom_site_label
 _atom_site_symmetry_multiplicity
 _atom_site_fract_x
 _atom_site_fract_y
 _atom_site_fract_z
 _atom_site_occupancy
  Pr  Pr0  1  0.00000000  0.00000000  0.00000000  1
  Pr  Pr1  1  0.00000000  0.00000000  0.50000000  1
  Pr  Pr2  1  0.69480000  0.77762800  0.75000000  1
  Pr  Pr3  1  0.30520000  0.22237200  0.25000000  1
  Pr  Pr4  1  0.69480000  0.22237200  0.75000000  1
  Pr  Pr5  1  0.30520000  0.77762800  0.25000000  1
  Pr  Pr6  1  0.50000000  0.50000000  0.00000000  1
  Pr  Pr7  1  0.50000000  0.50000000  0.50000000  1
  Pr  Pr8  1  0.19480000  0.27762800  0.75000000  1
  Pr  Pr9  1  0.80520000  0.72237200  0.25000000  1
  Pr  Pr10  1  0.19480000  0.72237200  0.75000000  1
  Pr  Pr11  1  0.80520000  0.27762800  0.25000000  1
  Os  Os12  1  0.50000000  0.00000000  0.00000000  1
  Os  Os13  1  0.50000000  0.00000000  0.50000000  1
  Os  Os14  1  0.00000000  0.50000000  0.00000000  1
  Os  Os15  1  0.00000000  0.50000000  0.50000000  1
  O  O16  1  0.58253000  0.00000000  0.75000000  1
  O  O17  1  0.41747000  0.00000000  0.25000000  1
  O  O18  1  0.47360050  0.36833950  0.75000000  1
  O  O19  1  0.52639950  0.63166050  0.25000000  1
  O  O20  1  0.47360050  0.63166050  0.75000000  1
  O  O21  1  0.52639950  0.36833950  0.25000000  1
  O  O22  1  0.31532550  0.12480850  0.96108500  1
  O  O23  1  0.68467450  0.87519150  0.46108500  1
  O  O24  1  0.31532550  0.87519150  0.96108500  1
  O  O25  1  0.68467450  0.12480850  0.46108500  1
  O  O26  1  0.31532550  0.12480850  0.53891500  1
  O  O27  1  0.68467450  0.87519150  0.03891500  1
  O  O28  1  0.68467450  0.12480850  0.03891500  1
  O  O29  1  0.31532550  0.87519150  0.53891500  1
  O  O30  1  0.08253000  0.50000000  0.75000000  1
  O  O31  1  0.91747000  0.50000000  0.25000000  1
  O  O32  1  0.97360050  0.86833950  0.75000000  1
  O  O33  1  0.02639950  0.13166050  0.25000000  1
  O  O34  1  0.97360050  0.13166050  0.75000000  1
  O  O35  1  0.02639950  0.86833950  0.25000000  1
  O  O36  1  0.81532550  0.62480850  0.96108500  1
  O  O37  1  0.18467450  0.37519150  0.46108500  1
  O  O38  1  0.81532550  0.37519150  0.96108500  1
  O  O39  1  0.18467450  0.62480850  0.46108500  1
  O  O40  1  0.81532550  0.62480850  0.53891500  1
  O  O41  1  0.18467450  0.37519150  0.03891500  1
  O  O42  1  0.18467450  0.62480850  0.03891500  1
  O  O43  1  0.81532550  0.37519150  0.53891500  1
