# generated using pymatgen
data_Ho3GaO6
_symmetry_space_group_name_H-M   'P 1'
_cell_length_a   8.86336000
_cell_length_b   11.11452800
_cell_length_c   5.41991400
_cell_angle_alpha   90.00000000
_cell_angle_beta   90.00000000
_cell_angle_gamma   90.00000000
_symmetry_Int_Tables_number   1
_chemical_formula_structural   Ho3GaO6
_chemical_formula_sum   'Ho12 Ga4 O24'
_cell_volume   533.92690885
_cell_formula_units_Z   4
loop_
 _symmetry_equiv_pos_site_id
 _symmetry_equiv_pos_as_xyz
  1  'x, y, z'
loop_
 _atom_site_type_symbol
 _atom_site_label
 _atom_site_symmetry_multiplicity
 _atom_site_fract_x
 _atom_site_fract_y
 _atom_site_fract_z
 _atom_site_occupancy
  Ho  Ho0  1  0.50000000  0.89839500  0.07244700  1
  Ho  Ho1  1  0.50000000  0.10160500  0.57244700  1
  Ho  Ho2  1  0.19352900  0.10523300  0.02404400  1
  Ho  Ho3  1  0.80647100  0.89476700  0.52404400  1
  Ho  Ho4  1  0.80647100  0.10523300  0.02404400  1
  Ho  Ho5  1  0.19352900  0.89476700  0.52404400  1
  Ho  Ho6  1  0.00000000  0.39839500  0.07244700  1
  Ho  Ho7  1  0.00000000  0.60160500  0.57244700  1
  Ho  Ho8  1  0.69352900  0.60523300  0.02404400  1
  Ho  Ho9  1  0.30647100  0.39476700  0.52404400  1
  Ho  Ho10  1  0.30647100  0.60523300  0.02404400  1
  Ho  Ho11  1  0.69352900  0.39476700  0.52404400  1
  Ga  Ga12  1  0.50000000  0.69339700  0.49351700  1
  Ga  Ga13  1  0.50000000  0.30660300  0.99351700  1
  Ga  Ga14  1  0.00000000  0.19339700  0.49351700  1
  Ga  Ga15  1  0.00000000  0.80660300  0.99351700  1
  O  O16  1  0.50000000  0.71537000  0.83256100  1
  O  O17  1  0.50000000  0.28463000  0.33256100  1
  O  O18  1  0.50000000  0.53889100  0.34756300  1
  O  O19  1  0.50000000  0.46110900  0.84756300  1
  O  O20  1  0.33971700  0.01689200  0.29761600  1
  O  O21  1  0.66028300  0.98310800  0.79761600  1
  O  O22  1  0.66028300  0.01689200  0.29761600  1
  O  O23  1  0.33971700  0.98310800  0.79761600  1
  O  O24  1  0.65869150  0.23532650  0.81342500  1
  O  O25  1  0.34130850  0.76467350  0.31342500  1
  O  O26  1  0.34130850  0.23532650  0.81342500  1
  O  O27  1  0.65869150  0.76467350  0.31342500  1
  O  O28  1  0.00000000  0.21537000  0.83256100  1
  O  O29  1  0.00000000  0.78463000  0.33256100  1
  O  O30  1  0.00000000  0.03889100  0.34756300  1
  O  O31  1  0.00000000  0.96110900  0.84756300  1
  O  O32  1  0.83971700  0.51689200  0.29761600  1
  O  O33  1  0.16028300  0.48310800  0.79761600  1
  O  O34  1  0.16028300  0.51689200  0.29761600  1
  O  O35  1  0.83971700  0.48310800  0.79761600  1
  O  O36  1  0.15869150  0.73532650  0.81342500  1
  O  O37  1  0.84130850  0.26467350  0.31342500  1
  O  O38  1  0.84130850  0.73532650  0.81342500  1
  O  O39  1  0.15869150  0.26467350  0.31342500  1
