# generated using pymatgen
data_Na2CaPO4F
_symmetry_space_group_name_H-M   'P 1'
_cell_length_a   12.42501600
_cell_length_b   7.07462600
_cell_length_c   14.29540937
_cell_angle_alpha   90.00000000
_cell_angle_beta   107.66396072
_cell_angle_gamma   90.00000000
_symmetry_Int_Tables_number   1
_chemical_formula_structural   Na2CaPO4F
_chemical_formula_sum   'Na20 Ca10 P10 O40 F10'
_cell_volume   1197.35444536
_cell_formula_units_Z   10
loop_
 _symmetry_equiv_pos_site_id
 _symmetry_equiv_pos_as_xyz
  1  'x, y, z'
loop_
 _atom_site_type_symbol
 _atom_site_label
 _atom_site_symmetry_multiplicity
 _atom_site_fract_x
 _atom_site_fract_y
 _atom_site_fract_z
 _atom_site_occupancy
  Na  Na0  1  0.31429000  0.73289400  0.20466600  1
  Na  Na1  1  0.31429000  0.26710600  0.20466600  1
  Na  Na2  1  0.54560150  0.74422650  0.40598600  1
  Na  Na3  1  0.54560150  0.25577350  0.40598600  1
  Na  Na4  1  0.45917750  0.75321650  0.61241200  1
  Na  Na5  1  0.45917750  0.24678350  0.61241200  1
  Na  Na6  1  0.68093600  0.75207600  0.80953900  1
  Na  Na7  1  0.68093600  0.24792400  0.80953900  1
  Na  Na8  1  0.09385850  0.25114750  0.00657000  1
  Na  Na9  1  0.09385850  0.74885250  0.00657000  1
  Na  Na10  1  0.81429000  0.23289400  0.20466600  1
  Na  Na11  1  0.81429000  0.76710600  0.20466600  1
  Na  Na12  1  0.04560150  0.24422650  0.40598600  1
  Na  Na13  1  0.04560150  0.75577350  0.40598600  1
  Na  Na14  1  0.95917750  0.25321650  0.61241200  1
  Na  Na15  1  0.95917750  0.74678350  0.61241200  1
  Na  Na16  1  0.18093600  0.25207600  0.80953900  1
  Na  Na17  1  0.18093600  0.74792400  0.80953900  1
  Na  Na18  1  0.59385850  0.75114750  0.00657000  1
  Na  Na19  1  0.59385850  0.24885250  0.00657000  1
  Ca  Ca20  1  0.58189000  0.00000000  0.20586800  1
  Ca  Ca21  1  0.30853100  0.00000000  0.40363600  1
  Ca  Ca22  1  0.68556400  0.00000000  0.60850900  1
  Ca  Ca23  1  0.45011500  0.00000000  0.80912400  1
  Ca  Ca24  1  0.32553600  0.50000000  0.00894100  1
  Ca  Ca25  1  0.08189000  0.50000000  0.20586800  1
  Ca  Ca26  1  0.80853100  0.50000000  0.40363600  1
  Ca  Ca27  1  0.18556400  0.50000000  0.60850900  1
  Ca  Ca28  1  0.95011500  0.50000000  0.80912400  1
  Ca  Ca29  1  0.82553600  0.00000000  0.00894100  1
  P  P30  1  0.56513800  0.50000000  0.20204600  1
  P  P31  1  0.70424800  0.50000000  0.59812600  1
  P  P32  1  0.83864200  0.50000000  0.99780400  1
  P  P33  1  0.29950500  0.50000000  0.41228100  1
  P  P34  1  0.42768000  0.50000000  0.80017300  1
  P  P35  1  0.06513800  0.00000000  0.20204600  1
  P  P36  1  0.20424800  0.00000000  0.59812600  1
  P  P37  1  0.33864200  0.00000000  0.99780400  1
  P  P38  1  0.79950500  0.00000000  0.41228100  1
  P  P39  1  0.92768000  0.00000000  0.80017300  1
  O  O40  1  0.52772500  0.50000000  0.08699300  1
  O  O41  1  0.67300800  0.50000000  0.48286800  1
  O  O42  1  0.80507800  0.50000000  0.88295100  1
  O  O43  1  0.29038700  0.81956200  0.03327800  1
  O  O44  1  0.47020300  0.00000000  0.04061500  1
  O  O45  1  0.29038700  0.18043800  0.03327800  1
  O  O46  1  0.37053200  0.68232000  0.44774000  1
  O  O47  1  0.69261700  0.00000000  0.44761600  1
  O  O48  1  0.37053200  0.31768000  0.44774000  1
  O  O49  1  0.65387600  0.67966000  0.63188000  1
  O  O50  1  0.33529000  0.00000000  0.64289300  1
  O  O51  1  0.65387600  0.32034000  0.63188000  1
  O  O52  1  0.50138700  0.68011100  0.83468800  1
  O  O53  1  0.50138700  0.31988900  0.83468800  1
  O  O54  1  0.82737300  0.00000000  0.84455000  1
  O  O55  1  0.13967500  0.17756200  0.24425800  1
  O  O56  1  0.13967500  0.82243800  0.24425800  1
  O  O57  1  0.45938600  0.50000000  0.23753800  1
  O  O58  1  0.26423100  0.50000000  0.29963900  1
  O  O59  1  0.38084800  0.50000000  0.68544300  1
  O  O60  1  0.02772500  0.00000000  0.08699300  1
  O  O61  1  0.17300800  0.00000000  0.48286800  1
  O  O62  1  0.30507800  0.00000000  0.88295100  1
  O  O63  1  0.79038700  0.31956200  0.03327800  1
  O  O64  1  0.97020300  0.50000000  0.04061500  1
  O  O65  1  0.79038700  0.68043800  0.03327800  1
  O  O66  1  0.87053200  0.18232000  0.44774000  1
  O  O67  1  0.19261700  0.50000000  0.44761600  1
  O  O68  1  0.87053200  0.81768000  0.44774000  1
  O  O69  1  0.15387600  0.17966000  0.63188000  1
  O  O70  1  0.83529000  0.50000000  0.64289300  1
  O  O71  1  0.15387600  0.82034000  0.63188000  1
  O  O72  1  0.00138700  0.18011100  0.83468800  1
  O  O73  1  0.00138700  0.81988900  0.83468800  1
  O  O74  1  0.32737300  0.50000000  0.84455000  1
  O  O75  1  0.63967500  0.67756200  0.24425800  1
  O  O76  1  0.63967500  0.32243800  0.24425800  1
  O  O77  1  0.95938600  0.00000000  0.23753800  1
  O  O78  1  0.76423100  0.00000000  0.29963900  1
  O  O79  1  0.88084800  0.00000000  0.68544300  1
  F  F80  1  0.42752300  0.00000000  0.28201900  1
  F  F81  1  0.49686400  0.00000000  0.50153900  1
  F  F82  1  0.57208700  0.00000000  0.71129900  1
  F  F83  1  0.63655900  0.00000000  0.91166200  1
  F  F84  1  0.20291900  0.50000000  0.10783000  1
  F  F85  1  0.92752300  0.50000000  0.28201900  1
  F  F86  1  0.99686400  0.50000000  0.50153900  1
  F  F87  1  0.07208700  0.50000000  0.71129900  1
  F  F88  1  0.13655900  0.50000000  0.91166200  1
  F  F89  1  0.70291900  0.00000000  0.10783000  1
