# generated using pymatgen
data_LiGa3Te5
_symmetry_space_group_name_H-M   'P 1'
_cell_length_a   14.69152038
_cell_length_b   14.69152038
_cell_length_c   17.97462167
_cell_angle_alpha   90.00000000
_cell_angle_beta   90.00000000
_cell_angle_gamma   120.00000000
_symmetry_Int_Tables_number   1
_chemical_formula_structural   LiGa3Te5
_chemical_formula_sum   'Li12 Ga36 Te60'
_cell_volume   3359.88082788
_cell_formula_units_Z   12
loop_
 _symmetry_equiv_pos_site_id
 _symmetry_equiv_pos_as_xyz
  1  'x, y, z'
loop_
 _atom_site_type_symbol
 _atom_site_label
 _atom_site_symmetry_multiplicity
 _atom_site_fract_x
 _atom_site_fract_y
 _atom_site_fract_z
 _atom_site_occupancy
  Li  Li0  1  0.06895700  0.39896800  0.66606800  1
  Li  Li1  1  0.00000000  0.00000000  0.44559600  1
  Li  Li2  1  0.60103200  0.66998900  0.66606800  1
  Li  Li3  1  0.33001100  0.93104300  0.66606800  1
  Li  Li4  1  0.73562367  0.73230133  0.99940133  1
  Li  Li5  1  0.66666667  0.33333333  0.77892933  1
  Li  Li6  1  0.26769867  0.00332233  0.99940133  1
  Li  Li7  1  0.99667767  0.26437633  0.99940133  1
  Li  Li8  1  0.40229033  0.06563467  0.33273467  1
  Li  Li9  1  0.33333333  0.66666667  0.11226267  1
  Li  Li10  1  0.93436533  0.33665567  0.33273467  1
  Li  Li11  1  0.66334433  0.59770967  0.33273467  1
  Ga  Ga12  1  0.11129067  0.19125333  0.76156133  1
  Ga  Ga13  1  0.07996267  0.88870933  0.76156133  1
  Ga  Ga14  1  0.25100133  0.33193767  0.58176867  1
  Ga  Ga15  1  0.33224600  0.25294300  0.41964500  1
  Ga  Ga16  1  0.08093633  0.74899867  0.58176867  1
  Ga  Ga17  1  0.80874667  0.92003733  0.76156133  1
  Ga  Ga18  1  0.19140733  0.11223267  0.23685267  1
  Ga  Ga19  1  0.92069700  0.66775400  0.41964500  1
  Ga  Ga20  1  0.66806233  0.91906367  0.58176867  1
  Ga  Ga21  1  0.74705700  0.07930300  0.41964500  1
  Ga  Ga22  1  0.92082533  0.80859267  0.23685267  1
  Ga  Ga23  1  0.88776733  0.07917467  0.23685267  1
  Ga  Ga24  1  0.77795733  0.52458667  0.09489467  1
  Ga  Ga25  1  0.74662933  0.22204267  0.09489467  1
  Ga  Ga26  1  0.91766800  0.66527100  0.91510200  1
  Ga  Ga27  1  0.99891267  0.58627633  0.75297833  1
  Ga  Ga28  1  0.74760300  0.08233200  0.91510200  1
  Ga  Ga29  1  0.47541333  0.25337067  0.09489467  1
  Ga  Ga30  1  0.85807400  0.44556600  0.57018600  1
  Ga  Ga31  1  0.58736367  0.00108733  0.75297833  1
  Ga  Ga32  1  0.33472900  0.25239700  0.91510200  1
  Ga  Ga33  1  0.41372367  0.41263633  0.75297833  1
  Ga  Ga34  1  0.58749200  0.14192600  0.57018600  1
  Ga  Ga35  1  0.55443400  0.41250800  0.57018600  1
  Ga  Ga36  1  0.44462400  0.85792000  0.42822800  1
  Ga  Ga37  1  0.41329600  0.55537600  0.42822800  1
  Ga  Ga38  1  0.58433467  0.99860433  0.24843533  1
  Ga  Ga39  1  0.66557933  0.91960967  0.08631167  1
  Ga  Ga40  1  0.41426967  0.41566533  0.24843533  1
  Ga  Ga41  1  0.14208000  0.58670400  0.42822800  1
  Ga  Ga42  1  0.52474067  0.77889933  0.90351933  1
  Ga  Ga43  1  0.25403033  0.33442067  0.08631167  1
  Ga  Ga44  1  0.00139567  0.58573033  0.24843533  1
  Ga  Ga45  1  0.08039033  0.74596967  0.08631167  1
  Ga  Ga46  1  0.25415867  0.47525933  0.90351933  1
  Ga  Ga47  1  0.22110067  0.74584133  0.90351933  1
  Te  Te48  1  0.66870767  0.16712233  0.33336033  1
  Te  Te49  1  0.36743400  0.23627900  0.56486900  1
  Te  Te50  1  0.41548600  0.00001100  0.50019600  1
  Te  Te51  1  0.49841467  0.33129233  0.33336033  1
  Te  Te52  1  0.00000000  0.00000000  0.82767600  1
  Te  Te53  1  0.13817767  0.94210833  0.62169233  1
  Te  Te54  1  0.05789167  0.19606933  0.62169233  1
  Te  Te55  1  0.23654767  0.36818533  0.43599333  1
  Te  Te56  1  0.19754067  0.05805733  0.37754333  1
  Te  Te57  1  0.13163767  0.76345233  0.43599333  1
  Te  Te58  1  0.99998900  0.41547500  0.50019600  1
  Te  Te59  1  0.86884500  0.63256600  0.56486900  1
  Te  Te60  1  0.80393067  0.86182233  0.62169233  1
  Te  Te61  1  0.76372100  0.13115500  0.56486900  1
  Te  Te62  1  0.94194267  0.13948333  0.37754333  1
  Te  Te63  1  0.86051667  0.80245933  0.37754333  1
  Te  Te64  1  0.00000000  0.00000000  0.17194100  1
  Te  Te65  1  0.83287767  0.50158533  0.33336033  1
  Te  Te66  1  0.58452500  0.58451400  0.50019600  1
  Te  Te67  1  0.63181467  0.86836233  0.43599333  1
  Te  Te68  1  0.33537433  0.50045567  0.66669367  1
  Te  Te69  1  0.03410067  0.56961233  0.89820233  1
  Te  Te70  1  0.08215267  0.33334433  0.83352933  1
  Te  Te71  1  0.16508133  0.66462567  0.66669367  1
  Te  Te72  1  0.66666667  0.33333333  0.16100933  1
  Te  Te73  1  0.80484433  0.27544167  0.95502567  1
  Te  Te74  1  0.72455833  0.52940267  0.95502567  1
  Te  Te75  1  0.90321433  0.70151867  0.76932667  1
  Te  Te76  1  0.86420733  0.39139067  0.71087667  1
  Te  Te77  1  0.79830433  0.09678567  0.76932667  1
  Te  Te78  1  0.66665567  0.74880833  0.83352933  1
  Te  Te79  1  0.53551167  0.96589933  0.89820233  1
  Te  Te80  1  0.47059733  0.19515567  0.95502567  1
  Te  Te81  1  0.43038767  0.46448833  0.89820233  1
  Te  Te82  1  0.60860933  0.47281667  0.71087667  1
  Te  Te83  1  0.52718333  0.13579267  0.71087667  1
  Te  Te84  1  0.66666667  0.33333333  0.50527433  1
  Te  Te85  1  0.49954433  0.83491867  0.66669367  1
  Te  Te86  1  0.25119167  0.91784733  0.83352933  1
  Te  Te87  1  0.29848133  0.20169567  0.76932667  1
  Te  Te88  1  0.00204100  0.83378900  0.00002700  1
  Te  Te89  1  0.70076733  0.90294567  0.23153567  1
  Te  Te90  1  0.74881933  0.66667767  0.16686267  1
  Te  Te91  1  0.83174800  0.99795900  0.00002700  1
  Te  Te92  1  0.33333333  0.66666667  0.49434267  1
  Te  Te93  1  0.47151100  0.60877500  0.28835900  1
  Te  Te94  1  0.39122500  0.86273600  0.28835900  1
  Te  Te95  1  0.56988100  0.03485200  0.10266000  1
  Te  Te96  1  0.53087400  0.72472400  0.04421000  1
  Te  Te97  1  0.46497100  0.43011900  0.10266000  1
  Te  Te98  1  0.33332233  0.08214167  0.16686267  1
  Te  Te99  1  0.20217833  0.29923267  0.23153567  1
  Te  Te100  1  0.13726400  0.52848900  0.28835900  1
  Te  Te101  1  0.09705433  0.79782167  0.23153567  1
  Te  Te102  1  0.27527600  0.80615000  0.04421000  1
  Te  Te103  1  0.19385000  0.46912600  0.04421000  1
  Te  Te104  1  0.33333333  0.66666667  0.83860767  1
  Te  Te105  1  0.16621100  0.16825200  0.00002700  1
  Te  Te106  1  0.91785833  0.25118067  0.16686267  1
  Te  Te107  1  0.96514800  0.53502900  0.10266000  1
