# generated using pymatgen
data_Hg4OF6
_symmetry_space_group_name_H-M   'P 1'
_cell_length_a   7.92679021
_cell_length_b   7.92679021
_cell_length_c   6.16816100
_cell_angle_alpha   90.00000000
_cell_angle_beta   90.00000000
_cell_angle_gamma   120.00000000
_symmetry_Int_Tables_number   1
_chemical_formula_structural   Hg4OF6
_chemical_formula_sum   'Hg8 O2 F12'
_cell_volume   335.64567981
_cell_formula_units_Z   2
loop_
 _symmetry_equiv_pos_site_id
 _symmetry_equiv_pos_as_xyz
  1  'x, y, z'
loop_
 _atom_site_type_symbol
 _atom_site_label
 _atom_site_symmetry_multiplicity
 _atom_site_fract_x
 _atom_site_fract_y
 _atom_site_fract_z
 _atom_site_occupancy
  Hg  Hg0  1  0.81772450  0.18227550  0.00026500  1
  Hg  Hg1  1  0.63544900  0.81772450  0.50026500  1
  Hg  Hg2  1  0.18227550  0.36455100  0.50026500  1
  Hg  Hg3  1  0.81772450  0.63544900  0.00026500  1
  Hg  Hg4  1  0.36455100  0.18227550  0.00026500  1
  Hg  Hg5  1  0.18227550  0.81772450  0.50026500  1
  Hg  Hg6  1  0.66666667  0.33333333  0.47591900  1
  Hg  Hg7  1  0.33333333  0.66666667  0.97591900  1
  O  O8  1  0.33333333  0.66666667  0.62766600  1
  O  O9  1  0.66666667  0.33333333  0.12766600  1
  F  F10  1  0.45996050  0.54003950  0.22664900  1
  F  F11  1  0.54003950  0.45996050  0.72664900  1
  F  F12  1  0.54003950  0.08007900  0.72664900  1
  F  F13  1  0.08007900  0.54003950  0.22664900  1
  F  F14  1  0.87260750  0.12739250  0.39552400  1
  F  F15  1  0.74521500  0.87260750  0.89552400  1
  F  F16  1  0.91992100  0.45996050  0.72664900  1
  F  F17  1  0.45996050  0.91992100  0.22664900  1
  F  F18  1  0.12739250  0.87260750  0.89552400  1
  F  F19  1  0.25478500  0.12739250  0.39552400  1
  F  F20  1  0.87260750  0.74521500  0.39552400  1
  F  F21  1  0.12739250  0.25478500  0.89552400  1
