# generated using pymatgen
data_TlIO4
_symmetry_space_group_name_H-M   'P 1'
_cell_length_a   5.99764200
_cell_length_b   5.99764200
_cell_length_c   13.24783800
_cell_angle_alpha   90.00000000
_cell_angle_beta   90.00000000
_cell_angle_gamma   90.00000000
_symmetry_Int_Tables_number   1
_chemical_formula_structural   TlIO4
_chemical_formula_sum   'Tl4 I4 O16'
_cell_volume   476.54738084
_cell_formula_units_Z   4
loop_
 _symmetry_equiv_pos_site_id
 _symmetry_equiv_pos_as_xyz
  1  'x, y, z'
loop_
 _atom_site_type_symbol
 _atom_site_label
 _atom_site_symmetry_multiplicity
 _atom_site_fract_x
 _atom_site_fract_y
 _atom_site_fract_z
 _atom_site_occupancy
  Tl  Tl0  1  0.50000000  0.50000000  0.00000000  1
  Tl  Tl1  1  0.50000000  0.00000000  0.25000000  1
  Tl  Tl2  1  0.00000000  0.00000000  0.50000000  1
  Tl  Tl3  1  0.00000000  0.50000000  0.75000000  1
  I  I4  1  0.00000000  0.00000000  0.00000000  1
  I  I5  1  0.00000000  0.50000000  0.25000000  1
  I  I6  1  0.50000000  0.50000000  0.50000000  1
  I  I7  1  0.50000000  0.00000000  0.75000000  1
  O  O8  1  0.62022850  0.28262750  0.42325750  1
  O  O9  1  0.21737250  0.62022850  0.17325750  1
  O  O10  1  0.78262750  0.37977150  0.17325750  1
  O  O11  1  0.37977150  0.71737250  0.42325750  1
  O  O12  1  0.12022850  0.28262750  0.32674250  1
  O  O13  1  0.21737250  0.12022850  0.07674250  1
  O  O14  1  0.78262750  0.87977150  0.07674250  1
  O  O15  1  0.87977150  0.71737250  0.32674250  1
  O  O16  1  0.12022850  0.78262750  0.92325750  1
  O  O17  1  0.71737250  0.12022850  0.67325750  1
  O  O18  1  0.28262750  0.87977150  0.67325750  1
  O  O19  1  0.87977150  0.21737250  0.92325750  1
  O  O20  1  0.62022850  0.78262750  0.82674250  1
  O  O21  1  0.71737250  0.62022850  0.57674250  1
  O  O22  1  0.28262750  0.37977150  0.57674250  1
  O  O23  1  0.37977150  0.21737250  0.82674250  1
