# generated using pymatgen
data_Mn(PO3)4
_symmetry_space_group_name_H-M   'P 1'
_cell_length_a   16.76970000
_cell_length_b   12.27088600
_cell_length_c   5.14682979
_cell_angle_alpha   90.00000000
_cell_angle_beta   98.62533368
_cell_angle_gamma   90.00000000
_symmetry_Int_Tables_number   1
_chemical_formula_structural   Mn(PO3)4
_chemical_formula_sum   'Mn4 P16 O48'
_cell_volume   1047.13152657
_cell_formula_units_Z   4
loop_
 _symmetry_equiv_pos_site_id
 _symmetry_equiv_pos_as_xyz
  1  'x, y, z'
loop_
 _atom_site_type_symbol
 _atom_site_label
 _atom_site_symmetry_multiplicity
 _atom_site_fract_x
 _atom_site_fract_y
 _atom_site_fract_z
 _atom_site_occupancy
  Mn  Mn0  1  0.75000000  0.25000000  0.00000000  1
  Mn  Mn1  1  0.75000000  0.75000000  0.00000000  1
  Mn  Mn2  1  0.25000000  0.75000000  0.00000000  1
  Mn  Mn3  1  0.25000000  0.25000000  0.00000000  1
  P  P4  1  0.57525800  0.78895600  0.18178900  1
  P  P5  1  0.81917050  0.87725250  0.52807000  1
  P  P6  1  0.42474200  0.21104400  0.81821100  1
  P  P7  1  0.57525800  0.21104400  0.18178900  1
  P  P8  1  0.18082950  0.12274750  0.47193000  1
  P  P9  1  0.81917050  0.12274750  0.52807000  1
  P  P10  1  0.42474200  0.78895600  0.81821100  1
  P  P11  1  0.18082950  0.87725250  0.47193000  1
  P  P12  1  0.07525800  0.28895600  0.18178900  1
  P  P13  1  0.31917050  0.37725250  0.52807000  1
  P  P14  1  0.92474200  0.71104400  0.81821100  1
  P  P15  1  0.07525800  0.71104400  0.18178900  1
  P  P16  1  0.68082950  0.62274750  0.47193000  1
  P  P17  1  0.31917050  0.62274750  0.52807000  1
  P  P18  1  0.92474200  0.28895600  0.81821100  1
  P  P19  1  0.68082950  0.37725250  0.47193000  1
  O  O20  1  0.40129050  0.31462450  0.61781300  1
  O  O21  1  0.64253050  0.80110250  0.01217400  1
  O  O22  1  0.79519900  0.12814600  0.23345900  1
  O  O23  1  0.35746950  0.80110250  0.98782600  1
  O  O24  1  0.20480100  0.12814600  0.76654100  1
  O  O25  1  0.55324850  0.11358350  0.32186700  1
  O  O26  1  0.44675150  0.88641650  0.67813300  1
  O  O27  1  0.75451600  0.15560500  0.68908300  1
  O  O28  1  0.15285600  0.00000000  0.40465200  1
  O  O29  1  0.50000000  0.73076800  0.00000000  1
  O  O30  1  0.59870950  0.31462450  0.38218700  1
  O  O31  1  0.64253050  0.19889750  0.01217400  1
  O  O32  1  0.24548400  0.15560500  0.31091700  1
  O  O33  1  0.40129050  0.68537550  0.61781300  1
  O  O34  1  0.35746950  0.19889750  0.98782600  1
  O  O35  1  0.75451600  0.84439500  0.68908300  1
  O  O36  1  0.20480100  0.87185400  0.76654100  1
  O  O37  1  0.79519900  0.87185400  0.23345900  1
  O  O38  1  0.44675150  0.11358350  0.67813300  1
  O  O39  1  0.50000000  0.26923200  0.00000000  1
  O  O40  1  0.84714400  0.00000000  0.59534800  1
  O  O41  1  0.55324850  0.88641650  0.32186700  1
  O  O42  1  0.59870950  0.68537550  0.38218700  1
  O  O43  1  0.24548400  0.84439500  0.31091700  1
  O  O44  1  0.90129050  0.81462450  0.61781300  1
  O  O45  1  0.14253050  0.30110250  0.01217400  1
  O  O46  1  0.29519900  0.62814600  0.23345900  1
  O  O47  1  0.85746950  0.30110250  0.98782600  1
  O  O48  1  0.70480100  0.62814600  0.76654100  1
  O  O49  1  0.05324850  0.61358350  0.32186700  1
  O  O50  1  0.94675150  0.38641650  0.67813300  1
  O  O51  1  0.25451600  0.65560500  0.68908300  1
  O  O52  1  0.65285600  0.50000000  0.40465200  1
  O  O53  1  0.00000000  0.23076800  0.00000000  1
  O  O54  1  0.09870950  0.81462450  0.38218700  1
  O  O55  1  0.14253050  0.69889750  0.01217400  1
  O  O56  1  0.74548400  0.65560500  0.31091700  1
  O  O57  1  0.90129050  0.18537550  0.61781300  1
  O  O58  1  0.85746950  0.69889750  0.98782600  1
  O  O59  1  0.25451600  0.34439500  0.68908300  1
  O  O60  1  0.70480100  0.37185400  0.76654100  1
  O  O61  1  0.29519900  0.37185400  0.23345900  1
  O  O62  1  0.94675150  0.61358350  0.67813300  1
  O  O63  1  0.00000000  0.76923200  0.00000000  1
  O  O64  1  0.34714400  0.50000000  0.59534800  1
  O  O65  1  0.05324850  0.38641650  0.32186700  1
  O  O66  1  0.09870950  0.18537550  0.38218700  1
  O  O67  1  0.74548400  0.34439500  0.31091700  1
