# generated using pymatgen
data_Ga2NiO4
_symmetry_space_group_name_H-M   'P 1'
_cell_length_a   5.86275732
_cell_length_b   5.97702936
_cell_length_c   8.33097924
_cell_angle_alpha   90.00000000
_cell_angle_beta   90.00000000
_cell_angle_gamma   90.00000000
_symmetry_Int_Tables_number   1
_chemical_formula_structural   Ga2NiO4
_chemical_formula_sum   'Ga8 Ni4 O16'
_cell_volume   291.93311345
_cell_formula_units_Z   4
loop_
 _symmetry_equiv_pos_site_id
 _symmetry_equiv_pos_as_xyz
  1  'x, y, z'
loop_
 _atom_site_type_symbol
 _atom_site_label
 _atom_site_symmetry_multiplicity
 _atom_site_fract_x
 _atom_site_fract_y
 _atom_site_fract_z
 _atom_site_occupancy
  Ga  Ga0  1  0.00000000  0.75000000  0.86728100  1
  Ga  Ga1  1  0.50000000  0.75000000  0.63271900  1
  Ga  Ga2  1  0.00000000  0.50000000  0.50000000  1
  Ga  Ga3  1  0.00000000  0.00000000  0.50000000  1
  Ga  Ga4  1  0.50000000  0.25000000  0.36728100  1
  Ga  Ga5  1  0.00000000  0.25000000  0.13271900  1
  Ga  Ga6  1  0.50000000  0.00000000  0.00000000  1
  Ga  Ga7  1  0.50000000  0.50000000  0.00000000  1
  Ni  Ni8  1  0.25000000  0.75000000  0.25000000  1
  Ni  Ni9  1  0.75000000  0.75000000  0.25000000  1
  Ni  Ni10  1  0.75000000  0.25000000  0.75000000  1
  Ni  Ni11  1  0.25000000  0.25000000  0.75000000  1
  O  O12  1  0.00000000  0.50789300  0.26192550  1
  O  O13  1  0.00000000  0.99210700  0.26192550  1
  O  O14  1  0.50000000  0.50789300  0.23807450  1
  O  O15  1  0.50000000  0.99210700  0.23807450  1
  O  O16  1  0.23511550  0.75000000  0.49879800  1
  O  O17  1  0.76488450  0.75000000  0.49879800  1
  O  O18  1  0.73511550  0.75000000  0.00120200  1
  O  O19  1  0.26488450  0.75000000  0.00120200  1
  O  O20  1  0.50000000  0.00789300  0.76192550  1
  O  O21  1  0.50000000  0.49210700  0.76192550  1
  O  O22  1  0.00000000  0.00789300  0.73807450  1
  O  O23  1  0.00000000  0.49210700  0.73807450  1
  O  O24  1  0.73511550  0.25000000  0.99879800  1
  O  O25  1  0.26488450  0.25000000  0.99879800  1
  O  O26  1  0.23511550  0.25000000  0.50120200  1
  O  O27  1  0.76488450  0.25000000  0.50120200  1
