# generated using pymatgen
data_SrLaMnRuO6
_symmetry_space_group_name_H-M   'P 1'
_cell_length_a   5.73663689
_cell_length_b   5.73663689
_cell_length_c   13.68259415
_cell_angle_alpha   90.00000000
_cell_angle_beta   90.00000000
_cell_angle_gamma   120.00000000
_symmetry_Int_Tables_number   1
_chemical_formula_structural   SrLaMnRuO6
_chemical_formula_sum   'Sr3 La3 Mn3 Ru3 O18'
_cell_volume   389.95437770
_cell_formula_units_Z   3
loop_
 _symmetry_equiv_pos_site_id
 _symmetry_equiv_pos_as_xyz
  1  'x, y, z'
loop_
 _atom_site_type_symbol
 _atom_site_label
 _atom_site_symmetry_multiplicity
 _atom_site_fract_x
 _atom_site_fract_y
 _atom_site_fract_z
 _atom_site_occupancy
  Sr  Sr0  1  0.33333333  0.66666667  0.91304667  1
  Sr  Sr1  1  0.00000000  0.00000000  0.24638000  1
  Sr  Sr2  1  0.66666667  0.33333333  0.57971333  1
  La  La3  1  0.33333333  0.66666667  0.41364133  1
  La  La4  1  0.00000000  0.00000000  0.74697467  1
  La  La5  1  0.66666667  0.33333333  0.08030800  1
  Mn  Mn6  1  0.33333333  0.66666667  0.16413400  1
  Mn  Mn7  1  0.00000000  0.00000000  0.49746733  1
  Mn  Mn8  1  0.66666667  0.33333333  0.83080067  1
  Ru  Ru9  1  0.33333333  0.66666667  0.66495100  1
  Ru  Ru10  1  0.00000000  0.00000000  0.99828433  1
  Ru  Ru11  1  0.66666667  0.33333333  0.33161767  1
  O  O12  1  0.07324633  0.75711767  0.08342367  1
  O  O13  1  0.24288233  0.31612867  0.08342367  1
  O  O14  1  0.68387133  0.92675367  0.08342367  1
  O  O15  1  0.98907000  0.42764800  0.25354900  1
  O  O16  1  0.43857800  0.01093000  0.25354900  1
  O  O17  1  0.57235200  0.56142200  0.25354900  1
  O  O18  1  0.73991300  0.09045100  0.41675700  1
  O  O19  1  0.90954900  0.64946200  0.41675700  1
  O  O20  1  0.35053800  0.26008700  0.41675700  1
  O  O21  1  0.65573667  0.76098133  0.58688233  1
  O  O22  1  0.10524467  0.34426333  0.58688233  1
  O  O23  1  0.23901867  0.89475533  0.58688233  1
  O  O24  1  0.40657967  0.42378433  0.75009033  1
  O  O25  1  0.57621567  0.98279533  0.75009033  1
  O  O26  1  0.01720467  0.59342033  0.75009033  1
  O  O27  1  0.32240333  0.09431467  0.92021567  1
  O  O28  1  0.77191133  0.67759667  0.92021567  1
  O  O29  1  0.90568533  0.22808867  0.92021567  1
