# generated using pymatgen
data_Mn2SnO4
_symmetry_space_group_name_H-M   'P 1'
_cell_length_a   6.31118361
_cell_length_b   6.40644353
_cell_length_c   9.06801447
_cell_angle_alpha   90.00000000
_cell_angle_beta   90.00000000
_cell_angle_gamma   90.00000000
_symmetry_Int_Tables_number   1
_chemical_formula_structural   Mn2SnO4
_chemical_formula_sum   'Mn8 Sn4 O16'
_cell_volume   366.64015042
_cell_formula_units_Z   4
loop_
 _symmetry_equiv_pos_site_id
 _symmetry_equiv_pos_as_xyz
  1  'x, y, z'
loop_
 _atom_site_type_symbol
 _atom_site_label
 _atom_site_symmetry_multiplicity
 _atom_site_fract_x
 _atom_site_fract_y
 _atom_site_fract_z
 _atom_site_occupancy
  Mn  Mn0  1  0.50000000  0.25000000  0.64072600  1
  Mn  Mn1  1  0.00000000  0.25000000  0.85927400  1
  Mn  Mn2  1  0.75000000  0.25000000  0.25000000  1
  Mn  Mn3  1  0.25000000  0.25000000  0.25000000  1
  Mn  Mn4  1  0.00000000  0.75000000  0.14072600  1
  Mn  Mn5  1  0.50000000  0.75000000  0.35927400  1
  Mn  Mn6  1  0.25000000  0.75000000  0.75000000  1
  Mn  Mn7  1  0.75000000  0.75000000  0.75000000  1
  Sn  Sn8  1  0.50000000  0.00000000  0.00000000  1
  Sn  Sn9  1  0.50000000  0.50000000  0.00000000  1
  Sn  Sn10  1  0.00000000  0.50000000  0.50000000  1
  Sn  Sn11  1  0.00000000  0.00000000  0.50000000  1
  O  O12  1  0.72612200  0.25000000  0.00085300  1
  O  O13  1  0.27387800  0.25000000  0.00085300  1
  O  O14  1  0.22612200  0.25000000  0.49914700  1
  O  O15  1  0.77387800  0.25000000  0.49914700  1
  O  O16  1  0.50000000  0.01474900  0.22772400  1
  O  O17  1  0.50000000  0.48525100  0.22772400  1
  O  O18  1  0.00000000  0.01474900  0.27227600  1
  O  O19  1  0.00000000  0.48525100  0.27227600  1
  O  O20  1  0.22612200  0.75000000  0.50085300  1
  O  O21  1  0.77387800  0.75000000  0.50085300  1
  O  O22  1  0.72612200  0.75000000  0.99914700  1
  O  O23  1  0.27387800  0.75000000  0.99914700  1
  O  O24  1  0.00000000  0.51474900  0.72772400  1
  O  O25  1  0.00000000  0.98525100  0.72772400  1
  O  O26  1  0.50000000  0.51474900  0.77227600  1
  O  O27  1  0.50000000  0.98525100  0.77227600  1
