# generated using pymatgen
data_Sr3MoN4
_symmetry_space_group_name_H-M   'P 1'
_cell_length_a   9.79806100
_cell_length_b   10.57687300
_cell_length_c   11.68246600
_cell_angle_alpha   90.00000000
_cell_angle_beta   90.00000000
_cell_angle_gamma   90.00000000
_symmetry_Int_Tables_number   1
_chemical_formula_structural   Sr3MoN4
_chemical_formula_sum   'Sr24 Mo8 N32'
_cell_volume   1210.68720973
_cell_formula_units_Z   8
loop_
 _symmetry_equiv_pos_site_id
 _symmetry_equiv_pos_as_xyz
  1  'x, y, z'
loop_
 _atom_site_type_symbol
 _atom_site_label
 _atom_site_symmetry_multiplicity
 _atom_site_fract_x
 _atom_site_fract_y
 _atom_site_fract_z
 _atom_site_occupancy
  Sr  Sr0  1  0.97296100  0.12503500  0.39643400  1
  Sr  Sr1  1  0.47296100  0.87496500  0.10356600  1
  Sr  Sr2  1  0.52703900  0.62503500  0.60356600  1
  Sr  Sr3  1  0.02703900  0.37496500  0.89643400  1
  Sr  Sr4  1  0.02703900  0.87496500  0.60356600  1
  Sr  Sr5  1  0.52703900  0.12503500  0.89643400  1
  Sr  Sr6  1  0.47296100  0.37496500  0.39643400  1
  Sr  Sr7  1  0.97296100  0.62503500  0.10356600  1
  Sr  Sr8  1  0.63199400  0.02720600  0.35710100  1
  Sr  Sr9  1  0.13199400  0.97279400  0.14289900  1
  Sr  Sr10  1  0.86800600  0.52720600  0.64289900  1
  Sr  Sr11  1  0.36800600  0.47279400  0.85710100  1
  Sr  Sr12  1  0.36800600  0.97279400  0.64289900  1
  Sr  Sr13  1  0.86800600  0.02720600  0.85710100  1
  Sr  Sr14  1  0.13199400  0.47279400  0.35710100  1
  Sr  Sr15  1  0.63199400  0.52720600  0.14289900  1
  Sr  Sr16  1  0.30421200  0.28992000  0.11706200  1
  Sr  Sr17  1  0.80421200  0.21008000  0.11706200  1
  Sr  Sr18  1  0.19578800  0.28992000  0.61706200  1
  Sr  Sr19  1  0.69578800  0.71008000  0.88293800  1
  Sr  Sr20  1  0.69578800  0.21008000  0.61706200  1
  Sr  Sr21  1  0.19578800  0.78992000  0.88293800  1
  Sr  Sr22  1  0.80421200  0.71008000  0.38293800  1
  Sr  Sr23  1  0.30421200  0.78992000  0.38293800  1
  Mo  Mo24  1  0.30877300  0.10084300  0.38758700  1
  Mo  Mo25  1  0.80877300  0.89915700  0.11241300  1
  Mo  Mo26  1  0.19122700  0.60084300  0.61241300  1
  Mo  Mo27  1  0.69122700  0.39915700  0.88758700  1
  Mo  Mo28  1  0.69122700  0.89915700  0.61241300  1
  Mo  Mo29  1  0.19122700  0.10084300  0.88758700  1
  Mo  Mo30  1  0.80877300  0.39915700  0.38758700  1
  Mo  Mo31  1  0.30877300  0.60084300  0.11241300  1
  N  N32  1  0.44209400  0.15867000  0.49192500  1
  N  N33  1  0.94209400  0.84133000  0.00807500  1
  N  N34  1  0.05790600  0.65867000  0.50807500  1
  N  N35  1  0.55790600  0.34133000  0.99192500  1
  N  N36  1  0.55790600  0.84133000  0.50807500  1
  N  N37  1  0.05790600  0.15867000  0.99192500  1
  N  N38  1  0.94209400  0.34133000  0.49192500  1
  N  N39  1  0.44209400  0.65867000  0.00807500  1
  N  N40  1  0.38848600  0.99537100  0.27729500  1
  N  N41  1  0.88848600  0.00462900  0.22270500  1
  N  N42  1  0.11151400  0.49537100  0.72270500  1
  N  N43  1  0.61151400  0.50462900  0.77729500  1
  N  N44  1  0.61151400  0.00462900  0.72270500  1
  N  N45  1  0.11151400  0.99537100  0.77729500  1
  N  N46  1  0.88848600  0.50462900  0.27729500  1
  N  N47  1  0.18701300  0.49594400  0.03027100  1
  N  N48  1  0.21405600  0.23729700  0.32066800  1
  N  N49  1  0.71405600  0.76270300  0.17933200  1
  N  N50  1  0.28594400  0.73729700  0.67933200  1
  N  N51  1  0.78594400  0.26270300  0.82066800  1
  N  N52  1  0.78594400  0.76270300  0.67933200  1
  N  N53  1  0.28594400  0.23729700  0.82066800  1
  N  N54  1  0.71405600  0.26270300  0.32066800  1
  N  N55  1  0.21405600  0.73729700  0.17933200  1
  N  N56  1  0.18701300  0.99594400  0.46972900  1
  N  N57  1  0.68701300  0.00405600  0.03027100  1
  N  N58  1  0.31298700  0.49594400  0.53027100  1
  N  N59  1  0.81298700  0.50405600  0.96972900  1
  N  N60  1  0.81298700  0.00405600  0.53027100  1
  N  N61  1  0.31298700  0.99594400  0.96972900  1
  N  N62  1  0.68701300  0.50405600  0.46972900  1
  N  N63  1  0.38848600  0.49537100  0.22270500  1
