# generated using pymatgen
data_Li6NCl3
_symmetry_space_group_name_H-M   'P 1'
_cell_length_a   6.47499800
_cell_length_b   3.74309800
_cell_length_c   13.52890731
_cell_angle_alpha   90.00000000
_cell_angle_beta   99.92459655
_cell_angle_gamma   90.00000000
_symmetry_Int_Tables_number   1
_chemical_formula_structural   Li6NCl3
_chemical_formula_sum   'Li12 N2 Cl6'
_cell_volume   322.98727196
_cell_formula_units_Z   2
loop_
 _symmetry_equiv_pos_site_id
 _symmetry_equiv_pos_as_xyz
  1  'x, y, z'
loop_
 _atom_site_type_symbol
 _atom_site_label
 _atom_site_symmetry_multiplicity
 _atom_site_fract_x
 _atom_site_fract_y
 _atom_site_fract_z
 _atom_site_occupancy
  Li  Li0  1  0.65167400  0.00000000  0.03242400  1
  Li  Li1  1  0.53106500  0.50000000  0.16157300  1
  Li  Li2  1  0.92508800  0.00000000  0.87147400  1
  Li  Li3  1  0.76640700  0.00000000  0.41492800  1
  Li  Li4  1  0.01792400  0.50000000  0.66531800  1
  Li  Li5  1  0.30715500  0.00000000  0.00238900  1
  Li  Li6  1  0.15167400  0.50000000  0.03242400  1
  Li  Li7  1  0.03106500  0.00000000  0.16157300  1
  Li  Li8  1  0.42508800  0.50000000  0.87147400  1
  Li  Li9  1  0.26640700  0.50000000  0.41492800  1
  Li  Li10  1  0.51792400  0.00000000  0.66531800  1
  Li  Li11  1  0.80715500  0.50000000  0.00238900  1
  N  N12  1  0.97730800  0.00000000  0.01207800  1
  N  N13  1  0.47730800  0.50000000  0.01207800  1
  Cl  Cl14  1  0.72641100  0.00000000  0.24320300  1
  Cl  Cl15  1  0.96173700  0.50000000  0.49388300  1
  Cl  Cl16  1  0.71448800  0.50000000  0.74772900  1
  Cl  Cl17  1  0.22641100  0.50000000  0.24320300  1
  Cl  Cl18  1  0.46173700  0.00000000  0.49388300  1
  Cl  Cl19  1  0.21448800  0.00000000  0.74772900  1
