# generated using pymatgen
data_Ba(IO3)2
_symmetry_space_group_name_H-M   'P 1'
_cell_length_a   12.64180600
_cell_length_b   8.37640600
_cell_length_c   8.52064010
_cell_angle_alpha   90.00000000
_cell_angle_beta   128.20417263
_cell_angle_gamma   90.00000000
_symmetry_Int_Tables_number   1
_chemical_formula_structural   Ba(IO3)2
_chemical_formula_sum   'Ba4 I8 O24'
_cell_volume   709.01861662
_cell_formula_units_Z   4
loop_
 _symmetry_equiv_pos_site_id
 _symmetry_equiv_pos_as_xyz
  1  'x, y, z'
loop_
 _atom_site_type_symbol
 _atom_site_label
 _atom_site_symmetry_multiplicity
 _atom_site_fract_x
 _atom_site_fract_y
 _atom_site_fract_z
 _atom_site_occupancy
  Ba  Ba0  1  0.00000000  0.35518900  0.25000000  1
  Ba  Ba1  1  0.50000000  0.14481100  0.75000000  1
  Ba  Ba2  1  0.50000000  0.85518900  0.25000000  1
  Ba  Ba3  1  0.00000000  0.64481100  0.75000000  1
  I  I4  1  0.18202150  0.02602550  0.69317500  1
  I  I5  1  0.31797850  0.52602550  0.80682500  1
  I  I6  1  0.31797850  0.47397450  0.30682500  1
  I  I7  1  0.18202150  0.97397450  0.19317500  1
  I  I8  1  0.68202150  0.52602550  0.69317500  1
  I  I9  1  0.81797850  0.02602550  0.80682500  1
  I  I10  1  0.81797850  0.97397450  0.30682500  1
  I  I11  1  0.68202150  0.47397450  0.19317500  1
  O  O12  1  0.08367050  0.84296750  0.57610600  1
  O  O13  1  0.41632950  0.34296750  0.92389400  1
  O  O14  1  0.41632950  0.65703250  0.42389400  1
  O  O15  1  0.08367050  0.15703250  0.07610600  1
  O  O16  1  0.35425500  0.94799600  0.85074700  1
  O  O17  1  0.64574500  0.94799600  0.64925300  1
  O  O18  1  0.18419950  0.90054450  0.99170300  1
  O  O19  1  0.31580050  0.40054450  0.50829700  1
  O  O20  1  0.31580050  0.59945550  0.00829700  1
  O  O21  1  0.18419950  0.09945550  0.49170300  1
  O  O22  1  0.85425500  0.55200400  0.35074700  1
  O  O23  1  0.14574500  0.55200400  0.14925300  1
  O  O24  1  0.58367050  0.34296750  0.57610600  1
  O  O25  1  0.91632950  0.84296750  0.92389400  1
  O  O26  1  0.91632950  0.15703250  0.42389400  1
  O  O27  1  0.58367050  0.65703250  0.07610600  1
  O  O28  1  0.85425500  0.44799600  0.85074700  1
  O  O29  1  0.14574500  0.44799600  0.64925300  1
  O  O30  1  0.68419950  0.40054450  0.99170300  1
  O  O31  1  0.81580050  0.90054450  0.50829700  1
  O  O32  1  0.81580050  0.09945550  0.00829700  1
  O  O33  1  0.68419950  0.59945550  0.49170300  1
  O  O34  1  0.35425500  0.05200400  0.35074700  1
  O  O35  1  0.64574500  0.05200400  0.14925300  1
