# generated using pymatgen
data_K3Zn2F7
_symmetry_space_group_name_H-M   'P 1'
_cell_length_a   4.14201000
_cell_length_b   4.14201000
_cell_length_c   21.46518000
_cell_angle_alpha   90.00000000
_cell_angle_beta   90.00000000
_cell_angle_gamma   90.00000000
_symmetry_Int_Tables_number   1
_chemical_formula_structural   K3Zn2F7
_chemical_formula_sum   'K6 Zn4 F14'
_cell_volume   368.26192655
_cell_formula_units_Z   2
loop_
 _symmetry_equiv_pos_site_id
 _symmetry_equiv_pos_as_xyz
  1  'x, y, z'
loop_
 _atom_site_type_symbol
 _atom_site_label
 _atom_site_symmetry_multiplicity
 _atom_site_fract_x
 _atom_site_fract_y
 _atom_site_fract_z
 _atom_site_occupancy
  K  K0  1  0.00000000  0.00000000  0.31529700  1
  K  K1  1  0.50000000  0.50000000  0.18470300  1
  K  K2  1  0.50000000  0.50000000  0.00000000  1
  K  K3  1  0.50000000  0.50000000  0.81529700  1
  K  K4  1  0.00000000  0.00000000  0.68470300  1
  K  K5  1  0.00000000  0.00000000  0.50000000  1
  Zn  Zn6  1  0.00000000  0.00000000  0.09680800  1
  Zn  Zn7  1  0.50000000  0.50000000  0.40319200  1
  Zn  Zn8  1  0.50000000  0.50000000  0.59680800  1
  Zn  Zn9  1  0.00000000  0.00000000  0.90319200  1
  F  F10  1  0.00000000  0.00000000  0.00000000  1
  F  F11  1  0.00000000  0.50000000  0.40468400  1
  F  F12  1  0.50000000  0.00000000  0.40468400  1
  F  F13  1  0.50000000  0.00000000  0.09531600  1
  F  F14  1  0.00000000  0.50000000  0.09531600  1
  F  F15  1  0.00000000  0.00000000  0.19193800  1
  F  F16  1  0.50000000  0.50000000  0.30806200  1
  F  F17  1  0.50000000  0.50000000  0.50000000  1
  F  F18  1  0.50000000  0.00000000  0.90468400  1
  F  F19  1  0.00000000  0.50000000  0.90468400  1
  F  F20  1  0.00000000  0.50000000  0.59531600  1
  F  F21  1  0.50000000  0.00000000  0.59531600  1
  F  F22  1  0.50000000  0.50000000  0.69193800  1
  F  F23  1  0.00000000  0.00000000  0.80806200  1
