# generated using pymatgen
data_AlTlF4
_symmetry_space_group_name_H-M   'P 1'
_cell_length_a   13.91008600
_cell_length_b   5.17264400
_cell_length_c   5.20513221
_cell_angle_alpha   90.00000000
_cell_angle_beta   111.57763841
_cell_angle_gamma   90.00000000
_symmetry_Int_Tables_number   1
_chemical_formula_structural   AlTlF4
_chemical_formula_sum   'Al4 Tl4 F16'
_cell_volume   348.27299361
_cell_formula_units_Z   4
loop_
 _symmetry_equiv_pos_site_id
 _symmetry_equiv_pos_as_xyz
  1  'x, y, z'
loop_
 _atom_site_type_symbol
 _atom_site_label
 _atom_site_symmetry_multiplicity
 _atom_site_fract_x
 _atom_site_fract_y
 _atom_site_fract_z
 _atom_site_occupancy
  Al  Al0  1  0.25000000  0.75000000  0.50000000  1
  Al  Al1  1  0.25000000  0.25000000  0.00000000  1
  Al  Al2  1  0.75000000  0.25000000  0.50000000  1
  Al  Al3  1  0.75000000  0.75000000  0.00000000  1
  Tl  Tl4  1  0.00000000  0.74338500  0.75000000  1
  Tl  Tl5  1  0.00000000  0.25661500  0.25000000  1
  Tl  Tl6  1  0.50000000  0.24338500  0.75000000  1
  Tl  Tl7  1  0.50000000  0.75661500  0.25000000  1
  F  F8  1  0.11340900  0.80624300  0.35987700  1
  F  F9  1  0.38659100  0.30624300  0.14012300  1
  F  F10  1  0.38659100  0.69375700  0.64012300  1
  F  F11  1  0.11340900  0.19375700  0.85987700  1
  F  F12  1  0.23127450  0.47371350  0.25729300  1
  F  F13  1  0.26872550  0.97371350  0.24270700  1
  F  F14  1  0.26872550  0.02628650  0.74270700  1
  F  F15  1  0.23127450  0.52628650  0.75729300  1
  F  F16  1  0.61340900  0.30624300  0.35987700  1
  F  F17  1  0.88659100  0.80624300  0.14012300  1
  F  F18  1  0.88659100  0.19375700  0.64012300  1
  F  F19  1  0.61340900  0.69375700  0.85987700  1
  F  F20  1  0.73127450  0.97371350  0.25729300  1
  F  F21  1  0.76872550  0.47371350  0.24270700  1
  F  F22  1  0.76872550  0.52628650  0.74270700  1
  F  F23  1  0.73127450  0.02628650  0.75729300  1
