# generated using pymatgen
data_Pr2Te3
_symmetry_space_group_name_H-M   'P 1'
_cell_length_a   9.58991800
_cell_length_b   9.58991800
_cell_length_c   28.85498800
_cell_angle_alpha   90.00000000
_cell_angle_beta   90.00000000
_cell_angle_gamma   90.00000000
_symmetry_Int_Tables_number   1
_chemical_formula_structural   Pr2Te3
_chemical_formula_sum   'Pr32 Te48'
_cell_volume   2653.69304011
_cell_formula_units_Z   16
loop_
 _symmetry_equiv_pos_site_id
 _symmetry_equiv_pos_as_xyz
  1  'x, y, z'
loop_
 _atom_site_type_symbol
 _atom_site_label
 _atom_site_symmetry_multiplicity
 _atom_site_fract_x
 _atom_site_fract_y
 _atom_site_fract_z
 _atom_site_occupancy
  Pr  Pr0  1  0.50000000  0.00000000  0.41775300  1
  Pr  Pr1  1  0.25000000  0.61948600  0.37500000  1
  Pr  Pr2  1  0.00000000  0.00000000  0.33224700  1
  Pr  Pr3  1  0.62991750  0.74414650  0.29065850  1
  Pr  Pr4  1  0.37008250  0.25585350  0.29065850  1
  Pr  Pr5  1  0.75000000  0.38051400  0.37500000  1
  Pr  Pr6  1  0.75585350  0.12991750  0.20934150  1
  Pr  Pr7  1  0.50000000  0.50000000  0.16775300  1
  Pr  Pr8  1  0.11948600  0.25000000  0.12500000  1
  Pr  Pr9  1  0.88051400  0.75000000  0.12500000  1
  Pr  Pr10  1  0.24414650  0.87008250  0.20934150  1
  Pr  Pr11  1  0.50000000  0.00000000  0.08224700  1
  Pr  Pr12  1  0.24414650  0.62991750  0.04065850  1
  Pr  Pr13  1  0.12991750  0.25585350  0.45934150  1
  Pr  Pr14  1  0.87008250  0.74414650  0.45934150  1
  Pr  Pr15  1  0.75585350  0.37008250  0.04065850  1
  Pr  Pr16  1  0.00000000  0.50000000  0.91775300  1
  Pr  Pr17  1  0.75000000  0.11948600  0.87500000  1
  Pr  Pr18  1  0.50000000  0.50000000  0.83224700  1
  Pr  Pr19  1  0.12991750  0.24414650  0.79065850  1
  Pr  Pr20  1  0.87008250  0.75585350  0.79065850  1
  Pr  Pr21  1  0.25000000  0.88051400  0.87500000  1
  Pr  Pr22  1  0.25585350  0.62991750  0.70934150  1
  Pr  Pr23  1  0.00000000  0.00000000  0.66775300  1
  Pr  Pr24  1  0.61948600  0.75000000  0.62500000  1
  Pr  Pr25  1  0.38051400  0.25000000  0.62500000  1
  Pr  Pr26  1  0.74414650  0.37008250  0.70934150  1
  Pr  Pr27  1  0.00000000  0.50000000  0.58224700  1
  Pr  Pr28  1  0.74414650  0.12991750  0.54065850  1
  Pr  Pr29  1  0.62991750  0.75585350  0.95934150  1
  Pr  Pr30  1  0.37008250  0.24414650  0.95934150  1
  Pr  Pr31  1  0.25585350  0.87008250  0.54065850  1
  Te  Te32  1  0.82728050  0.07471050  0.43249550  1
  Te  Te33  1  0.42507300  0.32273900  0.39783800  1
  Te  Te34  1  0.17271950  0.92528950  0.43249550  1
  Te  Te35  1  0.32728050  0.92528950  0.31750450  1
  Te  Te36  1  0.67271950  0.07471050  0.31750450  1
  Te  Te37  1  0.07492700  0.32273900  0.35216200  1
  Te  Te38  1  0.57492700  0.67726100  0.39783800  1
  Te  Te39  1  0.32627700  0.58090000  0.26570000  1
  Te  Te40  1  0.92507300  0.67726100  0.35216200  1
  Te  Te41  1  0.91910000  0.82627700  0.23430000  1
  Te  Te42  1  0.67372300  0.41910000  0.26570000  1
  Te  Te43  1  0.82273900  0.42507300  0.14783800  1
  Te  Te44  1  0.17726100  0.57492700  0.14783800  1
  Te  Te45  1  0.57471050  0.82728050  0.18249550  1
  Te  Te46  1  0.08090000  0.17372300  0.23430000  1
  Te  Te47  1  0.82273900  0.07492700  0.10216200  1
  Te  Te48  1  0.42528950  0.17271950  0.18249550  1
  Te  Te49  1  0.42528950  0.32728050  0.06750450  1
  Te  Te50  1  0.17726100  0.92507300  0.10216200  1
  Te  Te51  1  0.82627700  0.41910000  0.48430000  1
  Te  Te52  1  0.17372300  0.58090000  0.48430000  1
  Te  Te53  1  0.08090000  0.32627700  0.01570000  1
  Te  Te54  1  0.57471050  0.67271950  0.06750450  1
  Te  Te55  1  0.91910000  0.67372300  0.01570000  1
  Te  Te56  1  0.32728050  0.57471050  0.93249550  1
  Te  Te57  1  0.92507300  0.82273900  0.89783800  1
  Te  Te58  1  0.67271950  0.42528950  0.93249550  1
  Te  Te59  1  0.82728050  0.42528950  0.81750450  1
  Te  Te60  1  0.17271950  0.57471050  0.81750450  1
  Te  Te61  1  0.57492700  0.82273900  0.85216200  1
  Te  Te62  1  0.07492700  0.17726100  0.89783800  1
  Te  Te63  1  0.82627700  0.08090000  0.76570000  1
  Te  Te64  1  0.42507300  0.17726100  0.85216200  1
  Te  Te65  1  0.41910000  0.32627700  0.73430000  1
  Te  Te66  1  0.17372300  0.91910000  0.76570000  1
  Te  Te67  1  0.32273900  0.92507300  0.64783800  1
  Te  Te68  1  0.67726100  0.07492700  0.64783800  1
  Te  Te69  1  0.07471050  0.32728050  0.68249550  1
  Te  Te70  1  0.58090000  0.67372300  0.73430000  1
  Te  Te71  1  0.32273900  0.57492700  0.60216200  1
  Te  Te72  1  0.92528950  0.67271950  0.68249550  1
  Te  Te73  1  0.92528950  0.82728050  0.56750450  1
  Te  Te74  1  0.67726100  0.42507300  0.60216200  1
  Te  Te75  1  0.32627700  0.91910000  0.98430000  1
  Te  Te76  1  0.67372300  0.08090000  0.98430000  1
  Te  Te77  1  0.58090000  0.82627700  0.51570000  1
  Te  Te78  1  0.07471050  0.17271950  0.56750450  1
  Te  Te79  1  0.41910000  0.17372300  0.51570000  1
