# generated using pymatgen
data_Sb2Te2Se
_symmetry_space_group_name_H-M   'P 1'
_cell_length_a   4.24088403
_cell_length_b   4.24088403
_cell_length_c   31.19838695
_cell_angle_alpha   90.00000000
_cell_angle_beta   90.00000000
_cell_angle_gamma   120.00000000
_symmetry_Int_Tables_number   1
_chemical_formula_structural   Sb2Te2Se
_chemical_formula_sum   'Sb6 Te6 Se3'
_cell_volume   485.93207432
_cell_formula_units_Z   3
loop_
 _symmetry_equiv_pos_site_id
 _symmetry_equiv_pos_as_xyz
  1  'x, y, z'
loop_
 _atom_site_type_symbol
 _atom_site_label
 _atom_site_symmetry_multiplicity
 _atom_site_fract_x
 _atom_site_fract_y
 _atom_site_fract_z
 _atom_site_occupancy
  Sb  Sb0  1  0.00000000  0.00000000  0.10909000  1
  Sb  Sb1  1  0.66666667  0.33333333  0.22424333  1
  Sb  Sb2  1  0.66666667  0.33333333  0.44242333  1
  Sb  Sb3  1  0.33333333  0.66666667  0.55757667  1
  Sb  Sb4  1  0.33333333  0.66666667  0.77575667  1
  Sb  Sb5  1  0.00000000  0.00000000  0.89091000  1
  Te  Te6  1  0.00000000  0.00000000  0.28023000  1
  Te  Te7  1  0.66666667  0.33333333  0.05310333  1
  Te  Te8  1  0.66666667  0.33333333  0.61356333  1
  Te  Te9  1  0.33333333  0.66666667  0.38643667  1
  Te  Te10  1  0.33333333  0.66666667  0.94689667  1
  Te  Te11  1  0.00000000  0.00000000  0.71977000  1
  Se  Se12  1  0.33333333  0.66666667  0.16666667  1
  Se  Se13  1  1.00000000  1.00000000  0.50000000  1
  Se  Se14  1  0.66666667  0.33333333  0.83333333  1
