# generated using pymatgen
data_Na2SO4
_symmetry_space_group_name_H-M   'P 1'
_cell_length_a   5.71028000
_cell_length_b   9.06050000
_cell_length_c   7.02748500
_cell_angle_alpha   90.00000000
_cell_angle_beta   90.00000000
_cell_angle_gamma   90.00000000
_symmetry_Int_Tables_number   1
_chemical_formula_structural   Na2SO4
_chemical_formula_sum   'Na8 S4 O16'
_cell_volume   363.58796229
_cell_formula_units_Z   4
loop_
 _symmetry_equiv_pos_site_id
 _symmetry_equiv_pos_as_xyz
  1  'x, y, z'
loop_
 _atom_site_type_symbol
 _atom_site_label
 _atom_site_symmetry_multiplicity
 _atom_site_fract_x
 _atom_site_fract_y
 _atom_site_fract_z
 _atom_site_occupancy
  Na  Na0  1  0.50000000  0.31484300  0.75000000  1
  Na  Na1  1  0.50000000  0.68515700  0.25000000  1
  Na  Na2  1  0.50000000  0.00000000  0.50000000  1
  Na  Na3  1  0.50000000  0.00000000  0.00000000  1
  Na  Na4  1  0.00000000  0.81484300  0.75000000  1
  Na  Na5  1  0.00000000  0.18515700  0.25000000  1
  Na  Na6  1  0.00000000  0.50000000  0.50000000  1
  Na  Na7  1  0.00000000  0.50000000  0.00000000  1
  S  S8  1  0.50000000  0.65156800  0.75000000  1
  S  S9  1  0.50000000  0.34843200  0.25000000  1
  S  S10  1  0.00000000  0.15156800  0.75000000  1
  S  S11  1  0.00000000  0.84843200  0.25000000  1
  O  O12  1  0.50000000  0.25382200  0.07770800  1
  O  O13  1  0.50000000  0.74617800  0.57770800  1
  O  O14  1  0.50000000  0.74617800  0.92229200  1
  O  O15  1  0.50000000  0.25382200  0.42229200  1
  O  O16  1  0.21339400  0.05430900  0.75000000  1
  O  O17  1  0.78660600  0.94569100  0.25000000  1
  O  O18  1  0.78660600  0.05430900  0.75000000  1
  O  O19  1  0.21339400  0.94569100  0.25000000  1
  O  O20  1  0.00000000  0.75382200  0.07770800  1
  O  O21  1  0.00000000  0.24617800  0.57770800  1
  O  O22  1  0.00000000  0.24617800  0.92229200  1
  O  O23  1  0.00000000  0.75382200  0.42229200  1
  O  O24  1  0.71339400  0.55430900  0.75000000  1
  O  O25  1  0.28660600  0.44569100  0.25000000  1
  O  O26  1  0.28660600  0.55430900  0.75000000  1
  O  O27  1  0.71339400  0.44569100  0.25000000  1
