# generated using pymatgen
data_Sr2Al6O11
_symmetry_space_group_name_H-M   'P 1'
_cell_length_a   4.93206300
_cell_length_b   8.49226700
_cell_length_c   22.17484400
_cell_angle_alpha   90.00000000
_cell_angle_beta   90.00000000
_cell_angle_gamma   90.00000000
_symmetry_Int_Tables_number   1
_chemical_formula_structural   Sr2Al6O11
_chemical_formula_sum   'Sr8 Al24 O44'
_cell_volume   928.77994416
_cell_formula_units_Z   4
loop_
 _symmetry_equiv_pos_site_id
 _symmetry_equiv_pos_as_xyz
  1  'x, y, z'
loop_
 _atom_site_type_symbol
 _atom_site_label
 _atom_site_symmetry_multiplicity
 _atom_site_fract_x
 _atom_site_fract_y
 _atom_site_fract_z
 _atom_site_occupancy
  Sr  Sr0  1  0.96087900  0.50000000  0.65455600  1
  Sr  Sr1  1  0.46087900  0.00000000  0.84544400  1
  Sr  Sr2  1  0.03912100  0.50000000  0.34544400  1
  Sr  Sr3  1  0.53912100  0.00000000  0.15455600  1
  Sr  Sr4  1  0.38460100  0.50000000  0.86177200  1
  Sr  Sr5  1  0.88460100  0.00000000  0.63822800  1
  Sr  Sr6  1  0.61539900  0.50000000  0.13822800  1
  Sr  Sr7  1  0.11539900  0.00000000  0.36177200  1
  Al  Al8  1  0.50704000  0.67902000  0.42572500  1
  Al  Al9  1  0.00704000  0.82098000  0.07427500  1
  Al  Al10  1  0.49296000  0.67902000  0.57427500  1
  Al  Al11  1  0.99296000  0.82098000  0.92572500  1
  Al  Al12  1  0.49296000  0.32098000  0.57427500  1
  Al  Al13  1  0.99296000  0.17902000  0.92572500  1
  Al  Al14  1  0.50704000  0.32098000  0.42572500  1
  Al  Al15  1  0.00704000  0.17902000  0.07427500  1
  Al  Al16  1  0.61471500  0.79480700  0.28625300  1
  Al  Al17  1  0.11471500  0.70519300  0.21374700  1
  Al  Al18  1  0.38528500  0.79480700  0.71374700  1
  Al  Al19  1  0.88528500  0.70519300  0.78625300  1
  Al  Al20  1  0.38528500  0.20519300  0.71374700  1
  Al  Al21  1  0.88528500  0.29480700  0.78625300  1
  Al  Al22  1  0.61471500  0.20519300  0.28625300  1
  Al  Al23  1  0.11471500  0.29480700  0.21374700  1
  Al  Al24  1  0.00000000  0.16690600  0.50000000  1
  Al  Al25  1  0.50000000  0.33309400  0.00000000  1
  Al  Al26  1  0.00000000  0.83309400  0.50000000  1
  Al  Al27  1  0.50000000  0.66690600  0.00000000  1
  Al  Al28  1  0.00000000  0.50000000  0.50000000  1
  Al  Al29  1  0.50000000  0.00000000  0.00000000  1
  Al  Al30  1  0.50000000  0.00000000  0.50000000  1
  Al  Al31  1  0.00000000  0.50000000  0.00000000  1
  O  O32  1  0.47016500  0.73904600  0.21593700  1
  O  O33  1  0.97016500  0.76095400  0.28406300  1
  O  O34  1  0.52983500  0.73904600  0.78406300  1
  O  O35  1  0.02983500  0.76095400  0.71593700  1
  O  O36  1  0.52983500  0.26095400  0.78406300  1
  O  O37  1  0.02983500  0.23904600  0.71593700  1
  O  O38  1  0.47016500  0.26095400  0.21593700  1
  O  O39  1  0.97016500  0.23904600  0.28406300  1
  O  O40  1  0.15216400  0.33704400  0.54836700  1
  O  O41  1  0.65216400  0.16295600  0.95163300  1
  O  O42  1  0.84783600  0.33704400  0.45163300  1
  O  O43  1  0.34783600  0.16295600  0.04836700  1
  O  O44  1  0.84783600  0.66295600  0.45163300  1
  O  O45  1  0.34783600  0.83704400  0.04836700  1
  O  O46  1  0.15216400  0.66295600  0.54836700  1
  O  O47  1  0.65216400  0.83704400  0.95163300  1
  O  O48  1  0.67095200  0.50000000  0.95517500  1
  O  O49  1  0.17095200  0.00000000  0.54482500  1
  O  O50  1  0.17809800  0.65789500  0.95168100  1
  O  O51  1  0.32904800  0.50000000  0.04482500  1
  O  O52  1  0.99330500  0.81839100  0.15343400  1
  O  O53  1  0.49330500  0.68160900  0.34656600  1
  O  O54  1  0.00669500  0.81839100  0.84656600  1
  O  O55  1  0.50669500  0.68160900  0.65343400  1
  O  O56  1  0.00669500  0.18160900  0.84656600  1
  O  O57  1  0.50669500  0.31839100  0.65343400  1
  O  O58  1  0.99330500  0.18160900  0.15343400  1
  O  O59  1  0.49330500  0.31839100  0.34656600  1
  O  O60  1  0.82190200  0.34210500  0.04831900  1
  O  O61  1  0.32190200  0.15789500  0.45168100  1
  O  O62  1  0.17809800  0.34210500  0.95168100  1
  O  O63  1  0.67809800  0.15789500  0.54831900  1
  O  O64  1  0.82483300  0.00000000  0.05612200  1
  O  O65  1  0.32483300  0.50000000  0.44387800  1
  O  O66  1  0.17516700  0.00000000  0.94387800  1
  O  O67  1  0.67516700  0.50000000  0.55612200  1
  O  O68  1  0.56029900  0.00000000  0.29772800  1
  O  O69  1  0.06029900  0.50000000  0.20227200  1
  O  O70  1  0.43970100  0.00000000  0.70227200  1
  O  O71  1  0.93970100  0.50000000  0.79772800  1
  O  O72  1  0.32190200  0.84210500  0.45168100  1
  O  O73  1  0.82190200  0.65789500  0.04831900  1
  O  O74  1  0.67809800  0.84210500  0.54831900  1
  O  O75  1  0.82904800  0.00000000  0.45517500  1
