# generated using pymatgen
data_Ba(InTe2)2
_symmetry_space_group_name_H-M   'P 1'
_cell_length_a   8.72807600
_cell_length_b   8.72807600
_cell_length_c   7.19266200
_cell_angle_alpha   90.00000000
_cell_angle_beta   90.00000000
_cell_angle_gamma   90.00000000
_symmetry_Int_Tables_number   1
_chemical_formula_structural   Ba(InTe2)2
_chemical_formula_sum   'Ba2 In4 Te8'
_cell_volume   547.93203298
_cell_formula_units_Z   2
loop_
 _symmetry_equiv_pos_site_id
 _symmetry_equiv_pos_as_xyz
  1  'x, y, z'
loop_
 _atom_site_type_symbol
 _atom_site_label
 _atom_site_symmetry_multiplicity
 _atom_site_fract_x
 _atom_site_fract_y
 _atom_site_fract_z
 _atom_site_occupancy
  Ba  Ba0  1  0.00000000  0.00000000  0.00000000  1
  Ba  Ba1  1  0.50000000  0.50000000  0.50000000  1
  In  In2  1  0.50000000  0.00000000  0.00000000  1
  In  In3  1  0.00000000  0.50000000  0.00000000  1
  In  In4  1  0.00000000  0.50000000  0.50000000  1
  In  In5  1  0.50000000  0.00000000  0.50000000  1
  Te  Te6  1  0.67900400  0.82099600  0.25000000  1
  Te  Te7  1  0.82099600  0.32099600  0.25000000  1
  Te  Te8  1  0.17900400  0.67900400  0.25000000  1
  Te  Te9  1  0.32099600  0.17900400  0.25000000  1
  Te  Te10  1  0.17900400  0.32099600  0.75000000  1
  Te  Te11  1  0.32099600  0.82099600  0.75000000  1
  Te  Te12  1  0.67900400  0.17900400  0.75000000  1
  Te  Te13  1  0.82099600  0.67900400  0.75000000  1
