# generated using pymatgen
data_Na6CoSe4
_symmetry_space_group_name_H-M   'P 1'
_cell_length_a   9.32632166
_cell_length_b   9.32632166
_cell_length_c   7.20781200
_cell_angle_alpha   90.00000000
_cell_angle_beta   90.00000000
_cell_angle_gamma   120.00000000
_symmetry_Int_Tables_number   1
_chemical_formula_structural   Na6CoSe4
_chemical_formula_sum   'Na12 Co2 Se8'
_cell_volume   542.94378040
_cell_formula_units_Z   2
loop_
 _symmetry_equiv_pos_site_id
 _symmetry_equiv_pos_as_xyz
  1  'x, y, z'
loop_
 _atom_site_type_symbol
 _atom_site_label
 _atom_site_symmetry_multiplicity
 _atom_site_fract_x
 _atom_site_fract_y
 _atom_site_fract_z
 _atom_site_occupancy
  Na  Na0  1  0.85165200  0.70330400  0.03260200  1
  Na  Na1  1  0.14834800  0.85165200  0.53260200  1
  Na  Na2  1  0.70330400  0.85165200  0.53260200  1
  Na  Na3  1  0.29669600  0.14834800  0.03260200  1
  Na  Na4  1  0.85165200  0.14834800  0.03260200  1
  Na  Na5  1  0.14834800  0.29669600  0.53260200  1
  Na  Na6  1  0.47097200  0.94194400  0.85886200  1
  Na  Na7  1  0.52902800  0.47097200  0.35886200  1
  Na  Na8  1  0.94194400  0.47097200  0.35886200  1
  Na  Na9  1  0.05805600  0.52902800  0.85886200  1
  Na  Na10  1  0.47097200  0.52902800  0.85886200  1
  Na  Na11  1  0.52902800  0.05805600  0.35886200  1
  Co  Co12  1  0.66666667  0.33333333  0.74373300  1
  Co  Co13  1  0.33333333  0.66666667  0.24373300  1
  Se  Se14  1  0.66666667  0.33333333  0.08280800  1
  Se  Se15  1  0.33333333  0.66666667  0.58280800  1
  Se  Se16  1  0.81063100  0.62126200  0.63592200  1
  Se  Se17  1  0.18936900  0.81063100  0.13592200  1
  Se  Se18  1  0.62126200  0.81063100  0.13592200  1
  Se  Se19  1  0.37873800  0.18936900  0.63592200  1
  Se  Se20  1  0.81063100  0.18936900  0.63592200  1
  Se  Se21  1  0.18936900  0.37873800  0.13592200  1
