# generated using pymatgen
data_Rb6Te2O9
_symmetry_space_group_name_H-M   'P 1'
_cell_length_a   12.27539600
_cell_length_b   12.92347200
_cell_length_c   11.22966094
_cell_angle_alpha   90.00000000
_cell_angle_beta   123.06177867
_cell_angle_gamma   90.00000000
_symmetry_Int_Tables_number   1
_chemical_formula_structural   Rb6Te2O9
_chemical_formula_sum   'Rb24 Te8 O36'
_cell_volume   1493.02920648
_cell_formula_units_Z   4
loop_
 _symmetry_equiv_pos_site_id
 _symmetry_equiv_pos_as_xyz
  1  'x, y, z'
loop_
 _atom_site_type_symbol
 _atom_site_label
 _atom_site_symmetry_multiplicity
 _atom_site_fract_x
 _atom_site_fract_y
 _atom_site_fract_z
 _atom_site_occupancy
  Rb  Rb0  1  0.40206050  0.09883150  0.02297500  1
  Rb  Rb1  1  0.59793950  0.09883150  0.47702500  1
  Rb  Rb2  1  0.59793950  0.90116850  0.97702500  1
  Rb  Rb3  1  0.40206050  0.90116850  0.52297500  1
  Rb  Rb4  1  0.14734400  0.85307600  0.02772600  1
  Rb  Rb5  1  0.85265600  0.85307600  0.47227400  1
  Rb  Rb6  1  0.85265600  0.14692400  0.97227400  1
  Rb  Rb7  1  0.14734400  0.14692400  0.52772600  1
  Rb  Rb8  1  0.78831450  0.11250950  0.26109500  1
  Rb  Rb9  1  0.21168550  0.11250950  0.23890500  1
  Rb  Rb10  1  0.21168550  0.88749050  0.73890500  1
  Rb  Rb11  1  0.78831450  0.88749050  0.76109500  1
  Rb  Rb12  1  0.90206050  0.59883150  0.02297500  1
  Rb  Rb13  1  0.09793950  0.59883150  0.47702500  1
  Rb  Rb14  1  0.09793950  0.40116850  0.97702500  1
  Rb  Rb15  1  0.90206050  0.40116850  0.52297500  1
  Rb  Rb16  1  0.64734400  0.35307600  0.02772600  1
  Rb  Rb17  1  0.35265600  0.35307600  0.47227400  1
  Rb  Rb18  1  0.35265600  0.64692400  0.97227400  1
  Rb  Rb19  1  0.64734400  0.64692400  0.52772600  1
  Rb  Rb20  1  0.28831450  0.61250950  0.26109500  1
  Rb  Rb21  1  0.71168550  0.61250950  0.23890500  1
  Rb  Rb22  1  0.71168550  0.38749050  0.73890500  1
  Rb  Rb23  1  0.28831450  0.38749050  0.76109500  1
  Te  Te24  1  0.50000000  0.12579100  0.75000000  1
  Te  Te25  1  0.50000000  0.87420900  0.25000000  1
  Te  Te26  1  0.50000000  0.35408500  0.25000000  1
  Te  Te27  1  0.50000000  0.64591500  0.75000000  1
  Te  Te28  1  0.00000000  0.62579100  0.75000000  1
  Te  Te29  1  0.00000000  0.37420900  0.25000000  1
  Te  Te30  1  0.00000000  0.85408500  0.25000000  1
  Te  Te31  1  0.00000000  0.14591500  0.75000000  1
  O  O32  1  0.63668700  0.27023200  0.28481100  1
  O  O33  1  0.36331300  0.27023200  0.21518900  1
  O  O34  1  0.36331300  0.72976800  0.71518900  1
  O  O35  1  0.63668700  0.72976800  0.78481100  1
  O  O36  1  0.55056750  0.56397550  0.90703400  1
  O  O37  1  0.44943250  0.56397550  0.59296600  1
  O  O38  1  0.44943250  0.43602450  0.09296600  1
  O  O39  1  0.55056750  0.43602450  0.40703400  1
  O  O40  1  0.37413900  0.95706500  0.25579900  1
  O  O41  1  0.62586100  0.95706500  0.24420100  1
  O  O42  1  0.62586100  0.04293500  0.74420100  1
  O  O43  1  0.37413900  0.04293500  0.75579900  1
  O  O44  1  0.60804000  0.87154900  0.45773500  1
  O  O45  1  0.39196000  0.87154900  0.04226500  1
  O  O46  1  0.39196000  0.12845100  0.54226500  1
  O  O47  1  0.60804000  0.12845100  0.95773500  1
  O  O48  1  0.50000000  0.27428000  0.75000000  1
  O  O49  1  0.50000000  0.72572000  0.25000000  1
  O  O50  1  0.13668700  0.77023200  0.28481100  1
  O  O51  1  0.86331300  0.77023200  0.21518900  1
  O  O52  1  0.86331300  0.22976800  0.71518900  1
  O  O53  1  0.13668700  0.22976800  0.78481100  1
  O  O54  1  0.05056750  0.06397550  0.90703400  1
  O  O55  1  0.94943250  0.06397550  0.59296600  1
  O  O56  1  0.94943250  0.93602450  0.09296600  1
  O  O57  1  0.05056750  0.93602450  0.40703400  1
  O  O58  1  0.87413900  0.45706500  0.25579900  1
  O  O59  1  0.12586100  0.45706500  0.24420100  1
  O  O60  1  0.12586100  0.54293500  0.74420100  1
  O  O61  1  0.87413900  0.54293500  0.75579900  1
  O  O62  1  0.10804000  0.37154900  0.45773500  1
  O  O63  1  0.89196000  0.37154900  0.04226500  1
  O  O64  1  0.89196000  0.62845100  0.54226500  1
  O  O65  1  0.10804000  0.62845100  0.95773500  1
  O  O66  1  0.00000000  0.77428000  0.75000000  1
  O  O67  1  0.00000000  0.22572000  0.25000000  1
