# generated using pymatgen
data_LiMn2(PO3)5
_symmetry_space_group_name_H-M   'P 1'
_cell_length_a   5.34416400
_cell_length_b   9.03898200
_cell_length_c   13.39133304
_cell_angle_alpha   90.00000000
_cell_angle_beta   111.55975671
_cell_angle_gamma   90.00000000
_symmetry_Int_Tables_number   1
_chemical_formula_structural   LiMn2(PO3)5
_chemical_formula_sum   'Li2 Mn4 P10 O30'
_cell_volume   601.62007277
_cell_formula_units_Z   2
loop_
 _symmetry_equiv_pos_site_id
 _symmetry_equiv_pos_as_xyz
  1  'x, y, z'
loop_
 _atom_site_type_symbol
 _atom_site_label
 _atom_site_symmetry_multiplicity
 _atom_site_fract_x
 _atom_site_fract_y
 _atom_site_fract_z
 _atom_site_occupancy
  Li  Li0  1  0.91556800  0.98664000  0.97069900  1
  Li  Li1  1  0.91556800  0.01336000  0.47069900  1
  Mn  Mn2  1  0.04576600  0.69231100  0.42730400  1
  Mn  Mn3  1  0.95802600  0.31126000  0.57542200  1
  Mn  Mn4  1  0.04576600  0.30768900  0.92730400  1
  Mn  Mn5  1  0.95802600  0.68874000  0.07542200  1
  P  P6  1  0.66307300  0.80876600  0.57901400  1
  P  P7  1  0.66307300  0.19123400  0.07901400  1
  P  P8  1  0.33637300  0.18730900  0.41957100  1
  P  P9  1  0.45866500  0.51839300  0.85409600  1
  P  P10  1  0.54415000  0.51704000  0.64690200  1
  P  P11  1  0.45866500  0.48160700  0.35409600  1
  P  P12  1  0.33637300  0.81269100  0.91957100  1
  P  P13  1  0.99575500  0.97663200  0.24948600  1
  P  P14  1  0.99575500  0.02336800  0.74948600  1
  P  P15  1  0.54415000  0.48296000  0.14690200  1
  O  O16  1  0.26608500  0.49157800  0.05952200  1
  O  O17  1  0.63466200  0.83548600  0.97446500  1
  O  O18  1  0.91005100  0.09969600  0.83184300  1
  O  O19  1  0.07675800  0.11149300  0.67178200  1
  O  O20  1  0.84422200  0.82666200  0.51655500  1
  O  O21  1  0.73502900  0.51030800  0.94242700  1
  O  O22  1  0.71815300  0.38097300  0.67142800  1
  O  O23  1  0.50377400  0.58367900  0.75078600  1
  O  O24  1  0.36642500  0.82897800  0.52285500  1
  O  O25  1  0.15663800  0.17144700  0.48281000  1
  O  O26  1  0.73502900  0.48969200  0.44242700  1
  O  O27  1  0.84422200  0.17333800  0.01655500  1
  O  O28  1  0.28179800  0.61660300  0.32904900  1
  O  O29  1  0.75567000  0.90953800  0.68551600  1
  O  O30  1  0.36642500  0.17102200  0.02285500  1
  O  O31  1  0.27646100  0.64832300  0.87164100  1
  O  O32  1  0.71815300  0.61902700  0.17142800  1
  O  O33  1  0.24349100  0.91196500  0.81241300  1
  O  O34  1  0.63466200  0.16451400  0.47446500  1
  O  O35  1  0.72880900  0.64522800  0.62881600  1
  O  O36  1  0.50377400  0.41632100  0.25078600  1
  O  O37  1  0.24349100  0.08803500  0.31241300  1
  O  O38  1  0.28179800  0.38339700  0.82904900  1
  O  O39  1  0.07675800  0.88850700  0.17178200  1
  O  O40  1  0.91005100  0.90030400  0.33184300  1
  O  O41  1  0.26608500  0.50842200  0.55952200  1
  O  O42  1  0.15663800  0.82855300  0.98281000  1
  O  O43  1  0.27646100  0.35167700  0.37164100  1
  O  O44  1  0.75567000  0.09046200  0.18551600  1
  O  O45  1  0.72880900  0.35477200  0.12881600  1
