# generated using pymatgen
data_Mg(FeO2)2
_symmetry_space_group_name_H-M   'P 1'
_cell_length_a   10.45684600
_cell_length_b   6.04021400
_cell_length_c   20.01395315
_cell_angle_alpha   90.00000000
_cell_angle_beta   100.13616865
_cell_angle_gamma   90.00000000
_symmetry_Int_Tables_number   1
_chemical_formula_structural   Mg(FeO2)2
_chemical_formula_sum   'Mg16 Fe32 O64'
_cell_volume   1244.38313429
_cell_formula_units_Z   16
loop_
 _symmetry_equiv_pos_site_id
 _symmetry_equiv_pos_as_xyz
  1  'x, y, z'
loop_
 _atom_site_type_symbol
 _atom_site_label
 _atom_site_symmetry_multiplicity
 _atom_site_fract_x
 _atom_site_fract_y
 _atom_site_fract_z
 _atom_site_occupancy
  Mg  Mg0  1  0.84635000  0.00000000  0.03049600  1
  Mg  Mg1  1  0.37615600  0.00000000  0.12492000  1
  Mg  Mg2  1  0.59669100  0.00000000  0.28160100  1
  Mg  Mg3  1  0.62563000  0.50000000  0.37540400  1
  Mg  Mg4  1  0.87497900  0.00000000  0.62482500  1
  Mg  Mg5  1  0.99986500  0.00000000  0.49965000  1
  Mg  Mg6  1  0.12533000  0.50000000  0.87433700  1
  Mg  Mg7  1  0.74977800  0.00000000  0.74952200  1
  Mg  Mg8  1  0.34635000  0.50000000  0.03049600  1
  Mg  Mg9  1  0.87615600  0.50000000  0.12492000  1
  Mg  Mg10  1  0.09669100  0.50000000  0.28160100  1
  Mg  Mg11  1  0.12563000  0.00000000  0.37540400  1
  Mg  Mg12  1  0.37497900  0.50000000  0.62482500  1
  Mg  Mg13  1  0.49986500  0.50000000  0.49965000  1
  Mg  Mg14  1  0.62533000  0.00000000  0.87433700  1
  Mg  Mg15  1  0.24977800  0.50000000  0.74952200  1
  Fe  Fe16  1  0.62215200  0.24434000  0.12475600  1
  Fe  Fe17  1  0.75026900  0.50000000  0.25300200  1
  Fe  Fe18  1  0.62215200  0.75566000  0.12475600  1
  Fe  Fe19  1  0.84778300  0.50000000  0.53279100  1
  Fe  Fe20  1  0.87367650  0.74813750  0.37502900  1
  Fe  Fe21  1  0.90247700  0.00000000  0.21921900  1
  Fe  Fe22  1  0.59752200  0.50000000  0.78158900  1
  Fe  Fe23  1  0.37367650  0.75186250  0.37502900  1
  Fe  Fe24  1  0.62484650  0.75000050  0.62470000  1
  Fe  Fe25  1  0.65199700  0.00000000  0.46720900  1
  Fe  Fe26  1  0.12484650  0.74999950  0.62470000  1
  Fe  Fe27  1  0.87351150  0.75348850  0.87439700  1
  Fe  Fe28  1  0.87351150  0.24651150  0.87439700  1
  Fe  Fe29  1  0.90224600  0.50000000  0.71747100  1
  Fe  Fe30  1  0.49997900  0.00000000  0.00278300  1
  Fe  Fe31  1  0.65264200  0.50000000  0.96955100  1
  Fe  Fe32  1  0.12215200  0.74434000  0.12475600  1
  Fe  Fe33  1  0.25026900  0.00000000  0.25300200  1
  Fe  Fe34  1  0.12215200  0.25566000  0.12475600  1
  Fe  Fe35  1  0.34778300  0.00000000  0.53279100  1
  Fe  Fe36  1  0.37367650  0.24813750  0.37502900  1
  Fe  Fe37  1  0.40247700  0.50000000  0.21921900  1
  Fe  Fe38  1  0.09752200  0.00000000  0.78158900  1
  Fe  Fe39  1  0.87367650  0.25186250  0.37502900  1
  Fe  Fe40  1  0.12484650  0.25000050  0.62470000  1
  Fe  Fe41  1  0.15199700  0.50000000  0.46720900  1
  Fe  Fe42  1  0.62484650  0.24999950  0.62470000  1
  Fe  Fe43  1  0.37351150  0.25348850  0.87439700  1
  Fe  Fe44  1  0.37351150  0.74651150  0.87439700  1
  Fe  Fe45  1  0.40224600  0.00000000  0.71747100  1
  Fe  Fe46  1  0.99997900  0.50000000  0.00278300  1
  Fe  Fe47  1  0.15264200  0.00000000  0.96955100  1
  O  O48  1  0.44766800  0.76770400  0.06382700  1
  O  O49  1  0.56415100  0.00000000  0.18025500  1
  O  O50  1  0.44766800  0.23229600  0.06382700  1
  O  O51  1  0.67666700  0.00000000  0.06461900  1
  O  O52  1  0.57045400  0.50000000  0.18558300  1
  O  O53  1  0.69861450  0.26909050  0.31438900  1
  O  O54  1  0.30581350  0.76266850  0.18604700  1
  O  O55  1  0.81379300  0.50000000  0.43395100  1
  O  O56  1  0.69861450  0.73090950  0.31438900  1
  O  O57  1  0.18710000  0.00000000  0.06731500  1
  O  O58  1  0.42573000  0.00000000  0.31511400  1
  O  O59  1  0.80581350  0.73733150  0.18604700  1
  O  O60  1  0.94502050  0.75988850  0.56509300  1
  O  O61  1  0.81878800  0.00000000  0.43426100  1
  O  O62  1  0.05550600  0.75882200  0.43476300  1
  O  O63  1  0.56325800  0.50000000  0.68237500  1
  O  O64  1  0.44502050  0.74011150  0.56509300  1
  O  O65  1  0.93712900  0.00000000  0.31709100  1
  O  O66  1  0.68023600  0.50000000  0.56561600  1
  O  O67  1  0.55550600  0.74117800  0.43476300  1
  O  O68  1  0.06956600  0.50000000  0.68480100  1
  O  O69  1  0.69406400  0.75836000  0.81474500  1
  O  O70  1  0.80544100  0.75928100  0.68533800  1
  O  O71  1  0.31353800  0.50000000  0.92853800  1
  O  O72  1  0.19406400  0.74164000  0.81474500  1
  O  O73  1  0.68670800  0.00000000  0.56770500  1
  O  O74  1  0.93144600  0.00000000  0.81521100  1
  O  O75  1  0.80544100  0.24071900  0.68533800  1
  O  O76  1  0.82118500  0.50000000  0.93602600  1
  O  O77  1  0.05568150  0.26313850  0.93650800  1
  O  O78  1  0.93656400  0.50000000  0.81798300  1
  O  O79  1  0.05568150  0.73686150  0.93650800  1
  O  O80  1  0.94766800  0.26770400  0.06382700  1
  O  O81  1  0.06415100  0.50000000  0.18025500  1
  O  O82  1  0.94766800  0.73229600  0.06382700  1
  O  O83  1  0.17666700  0.50000000  0.06461900  1
  O  O84  1  0.07045400  0.00000000  0.18558300  1
  O  O85  1  0.19861450  0.76909050  0.31438900  1
  O  O86  1  0.80581350  0.26266850  0.18604700  1
  O  O87  1  0.31379300  0.00000000  0.43395100  1
  O  O88  1  0.19861450  0.23090950  0.31438900  1
  O  O89  1  0.68710000  0.50000000  0.06731500  1
  O  O90  1  0.92573000  0.50000000  0.31511400  1
  O  O91  1  0.30581350  0.23733150  0.18604700  1
  O  O92  1  0.44502050  0.25988850  0.56509300  1
  O  O93  1  0.31878800  0.50000000  0.43426100  1
  O  O94  1  0.55550600  0.25882200  0.43476300  1
  O  O95  1  0.06325800  0.00000000  0.68237500  1
  O  O96  1  0.94502050  0.24011150  0.56509300  1
  O  O97  1  0.43712900  0.50000000  0.31709100  1
  O  O98  1  0.18023600  0.00000000  0.56561600  1
  O  O99  1  0.05550600  0.24117800  0.43476300  1
  O  O100  1  0.56956600  0.00000000  0.68480100  1
  O  O101  1  0.19406400  0.25836000  0.81474500  1
  O  O102  1  0.30544100  0.25928100  0.68533800  1
  O  O103  1  0.81353800  0.00000000  0.92853800  1
  O  O104  1  0.69406400  0.24164000  0.81474500  1
  O  O105  1  0.18670800  0.50000000  0.56770500  1
  O  O106  1  0.43144600  0.50000000  0.81521100  1
  O  O107  1  0.30544100  0.74071900  0.68533800  1
  O  O108  1  0.32118500  0.00000000  0.93602600  1
  O  O109  1  0.55568150  0.76313850  0.93650800  1
  O  O110  1  0.43656400  0.00000000  0.81798300  1
  O  O111  1  0.55568150  0.23686150  0.93650800  1
