# generated using pymatgen
data_AlPO4
_symmetry_space_group_name_H-M   'P 1'
_cell_length_a   13.85593200
_cell_length_b   13.85593200
_cell_length_c   13.85593200
_cell_angle_alpha   90.00000000
_cell_angle_beta   90.00000000
_cell_angle_gamma   90.00000000
_symmetry_Int_Tables_number   1
_chemical_formula_structural   AlPO4
_chemical_formula_sum   'Al20 P20 O80'
_cell_volume   2660.15676051
_cell_formula_units_Z   20
loop_
 _symmetry_equiv_pos_site_id
 _symmetry_equiv_pos_as_xyz
  1  'x, y, z'
loop_
 _atom_site_type_symbol
 _atom_site_label
 _atom_site_symmetry_multiplicity
 _atom_site_fract_x
 _atom_site_fract_y
 _atom_site_fract_z
 _atom_site_occupancy
  Al  Al0  1  0.25000000  0.25000000  0.25000000  1
  Al  Al1  1  0.11394033  0.11394033  0.88605967  1
  Al  Al2  1  0.38605967  0.11394033  0.61394033  1
  Al  Al3  1  0.11394033  0.38605967  0.61394033  1
  Al  Al4  1  0.38605967  0.38605967  0.88605967  1
  Al  Al5  1  0.25000000  0.75000000  0.75000000  1
  Al  Al6  1  0.11394033  0.61394033  0.38605967  1
  Al  Al7  1  0.38605967  0.61394033  0.11394033  1
  Al  Al8  1  0.11394033  0.88605967  0.11394033  1
  Al  Al9  1  0.38605967  0.88605967  0.38605967  1
  Al  Al10  1  0.75000000  0.25000000  0.75000000  1
  Al  Al11  1  0.61394033  0.11394033  0.38605967  1
  Al  Al12  1  0.88605967  0.11394033  0.11394033  1
  Al  Al13  1  0.61394033  0.38605967  0.11394033  1
  Al  Al14  1  0.88605967  0.38605967  0.38605967  1
  Al  Al15  1  0.75000000  0.75000000  0.25000000  1
  Al  Al16  1  0.61394033  0.61394033  0.88605967  1
  Al  Al17  1  0.88605967  0.61394033  0.61394033  1
  Al  Al18  1  0.61394033  0.88605967  0.61394033  1
  Al  Al19  1  0.88605967  0.88605967  0.88605967  1
  P  P20  1  0.11474600  0.11474600  0.11474600  1
  P  P21  1  0.11474600  0.38525400  0.38525400  1
  P  P22  1  0.38525400  0.11474600  0.38525400  1
  P  P23  1  0.38525400  0.38525400  0.11474600  1
  P  P24  1  0.25000000  0.25000000  0.75000000  1
  P  P25  1  0.11474600  0.61474600  0.61474600  1
  P  P26  1  0.11474600  0.88525400  0.88525400  1
  P  P27  1  0.38525400  0.61474600  0.88525400  1
  P  P28  1  0.38525400  0.88525400  0.61474600  1
  P  P29  1  0.25000000  0.75000000  0.25000000  1
  P  P30  1  0.61474600  0.11474600  0.61474600  1
  P  P31  1  0.61474600  0.38525400  0.88525400  1
  P  P32  1  0.88525400  0.11474600  0.88525400  1
  P  P33  1  0.88525400  0.38525400  0.61474600  1
  P  P34  1  0.75000000  0.25000000  0.25000000  1
  P  P35  1  0.61474600  0.61474600  0.11474600  1
  P  P36  1  0.61474600  0.88525400  0.38525400  1
  P  P37  1  0.88525400  0.61474600  0.38525400  1
  P  P38  1  0.88525400  0.88525400  0.11474600  1
  P  P39  1  0.75000000  0.75000000  0.75000000  1
  O  O40  1  0.13709750  0.00815300  0.13709750  1
  O  O41  1  0.13709750  0.13709750  0.00815300  1
  O  O42  1  0.00815300  0.36290250  0.36290250  1
  O  O43  1  0.17792067  0.17792067  0.17792067  1
  O  O44  1  0.32207933  0.17792067  0.32207933  1
  O  O45  1  0.17792067  0.32207933  0.32207933  1
  O  O46  1  0.13709750  0.36290250  0.49184700  1
  O  O47  1  0.32207933  0.32207933  0.17792067  1
  O  O48  1  0.13709750  0.49184700  0.36290250  1
  O  O49  1  0.36290250  0.36290250  0.00815300  1
  O  O50  1  0.49184700  0.36290250  0.13709750  1
  O  O51  1  0.36290250  0.49184700  0.13709750  1
  O  O52  1  0.00815300  0.13709750  0.13709750  1
  O  O53  1  0.49184700  0.13709750  0.36290250  1
  O  O54  1  0.18621567  0.18621567  0.81378433  1
  O  O55  1  0.36290250  0.13709750  0.49184700  1
  O  O56  1  0.31378433  0.18621567  0.68621567  1
  O  O57  1  0.18621567  0.31378433  0.68621567  1
  O  O58  1  0.31378433  0.31378433  0.81378433  1
  O  O59  1  0.36290250  0.00815300  0.36290250  1
  O  O60  1  0.13709750  0.50815300  0.63709750  1
  O  O61  1  0.13709750  0.63709750  0.50815300  1
  O  O62  1  0.00815300  0.86290250  0.86290250  1
  O  O63  1  0.17792067  0.67792067  0.67792067  1
  O  O64  1  0.32207933  0.67792067  0.82207933  1
  O  O65  1  0.17792067  0.82207933  0.82207933  1
  O  O66  1  0.13709750  0.86290250  0.99184700  1
  O  O67  1  0.32207933  0.82207933  0.67792067  1
  O  O68  1  0.13709750  0.99184700  0.86290250  1
  O  O69  1  0.36290250  0.86290250  0.50815300  1
  O  O70  1  0.49184700  0.86290250  0.63709750  1
  O  O71  1  0.36290250  0.99184700  0.63709750  1
  O  O72  1  0.00815300  0.63709750  0.63709750  1
  O  O73  1  0.49184700  0.63709750  0.86290250  1
  O  O74  1  0.18621567  0.68621567  0.31378433  1
  O  O75  1  0.36290250  0.63709750  0.99184700  1
  O  O76  1  0.31378433  0.68621567  0.18621567  1
  O  O77  1  0.18621567  0.81378433  0.18621567  1
  O  O78  1  0.31378433  0.81378433  0.31378433  1
  O  O79  1  0.36290250  0.50815300  0.86290250  1
  O  O80  1  0.63709750  0.00815300  0.63709750  1
  O  O81  1  0.63709750  0.13709750  0.50815300  1
  O  O82  1  0.50815300  0.36290250  0.86290250  1
  O  O83  1  0.67792067  0.17792067  0.67792067  1
  O  O84  1  0.82207933  0.17792067  0.82207933  1
  O  O85  1  0.67792067  0.32207933  0.82207933  1
  O  O86  1  0.63709750  0.36290250  0.99184700  1
  O  O87  1  0.82207933  0.32207933  0.67792067  1
  O  O88  1  0.63709750  0.49184700  0.86290250  1
  O  O89  1  0.86290250  0.36290250  0.50815300  1
  O  O90  1  0.99184700  0.36290250  0.63709750  1
  O  O91  1  0.86290250  0.49184700  0.63709750  1
  O  O92  1  0.50815300  0.13709750  0.63709750  1
  O  O93  1  0.99184700  0.13709750  0.86290250  1
  O  O94  1  0.68621567  0.18621567  0.31378433  1
  O  O95  1  0.86290250  0.13709750  0.99184700  1
  O  O96  1  0.81378433  0.18621567  0.18621567  1
  O  O97  1  0.68621567  0.31378433  0.18621567  1
  O  O98  1  0.81378433  0.31378433  0.31378433  1
  O  O99  1  0.86290250  0.00815300  0.86290250  1
  O  O100  1  0.63709750  0.50815300  0.13709750  1
  O  O101  1  0.63709750  0.63709750  0.00815300  1
  O  O102  1  0.50815300  0.86290250  0.36290250  1
  O  O103  1  0.67792067  0.67792067  0.17792067  1
  O  O104  1  0.82207933  0.67792067  0.32207933  1
  O  O105  1  0.67792067  0.82207933  0.32207933  1
  O  O106  1  0.63709750  0.86290250  0.49184700  1
  O  O107  1  0.82207933  0.82207933  0.17792067  1
  O  O108  1  0.63709750  0.99184700  0.36290250  1
  O  O109  1  0.86290250  0.86290250  0.00815300  1
  O  O110  1  0.99184700  0.86290250  0.13709750  1
  O  O111  1  0.86290250  0.99184700  0.13709750  1
  O  O112  1  0.50815300  0.63709750  0.13709750  1
  O  O113  1  0.99184700  0.63709750  0.36290250  1
  O  O114  1  0.68621567  0.68621567  0.81378433  1
  O  O115  1  0.86290250  0.63709750  0.49184700  1
  O  O116  1  0.81378433  0.68621567  0.68621567  1
  O  O117  1  0.68621567  0.81378433  0.68621567  1
  O  O118  1  0.81378433  0.81378433  0.81378433  1
  O  O119  1  0.86290250  0.50815300  0.36290250  1
