# generated using pymatgen
data_Ca(NdS2)2
_symmetry_space_group_name_H-M   'P 1'
_cell_length_a   8.56258400
_cell_length_b   8.56258400
_cell_length_c   8.61715800
_cell_angle_alpha   90.00000000
_cell_angle_beta   90.00000000
_cell_angle_gamma   90.00000000
_symmetry_Int_Tables_number   1
_chemical_formula_structural   Ca(NdS2)2
_chemical_formula_sum   'Ca4 Nd8 S16'
_cell_volume   631.79145249
_cell_formula_units_Z   4
loop_
 _symmetry_equiv_pos_site_id
 _symmetry_equiv_pos_as_xyz
  1  'x, y, z'
loop_
 _atom_site_type_symbol
 _atom_site_label
 _atom_site_symmetry_multiplicity
 _atom_site_fract_x
 _atom_site_fract_y
 _atom_site_fract_z
 _atom_site_occupancy
  Ca  Ca0  1  0.00000000  0.00000000  0.50000000  1
  Ca  Ca1  1  0.50000000  0.00000000  0.25000000  1
  Ca  Ca2  1  0.50000000  0.50000000  0.00000000  1
  Ca  Ca3  1  0.00000000  0.50000000  0.75000000  1
  Nd  Nd4  1  0.37115100  0.75000000  0.62500000  1
  Nd  Nd5  1  0.25000000  0.12884900  0.87500000  1
  Nd  Nd6  1  0.12884900  0.75000000  0.12500000  1
  Nd  Nd7  1  0.25000000  0.37115100  0.37500000  1
  Nd  Nd8  1  0.87115100  0.25000000  0.12500000  1
  Nd  Nd9  1  0.75000000  0.62884900  0.37500000  1
  Nd  Nd10  1  0.62884900  0.25000000  0.62500000  1
  Nd  Nd11  1  0.75000000  0.87115100  0.87500000  1
  S  S12  1  0.57386100  0.32173100  0.30435100  1
  S  S13  1  0.32173100  0.07386100  0.55435100  1
  S  S14  1  0.32173100  0.42613900  0.69564900  1
  S  S15  1  0.17826900  0.42613900  0.05435100  1
  S  S16  1  0.92613900  0.32173100  0.44564900  1
  S  S17  1  0.57386100  0.17826900  0.94564900  1
  S  S18  1  0.17826900  0.07386100  0.19564900  1
  S  S19  1  0.92613900  0.17826900  0.80435100  1
  S  S20  1  0.07386100  0.82173100  0.80435100  1
  S  S21  1  0.82173100  0.57386100  0.05435100  1
  S  S22  1  0.82173100  0.92613900  0.19564900  1
  S  S23  1  0.67826900  0.92613900  0.55435100  1
  S  S24  1  0.42613900  0.82173100  0.94564900  1
  S  S25  1  0.07386100  0.67826900  0.44564900  1
  S  S26  1  0.67826900  0.57386100  0.69564900  1
  S  S27  1  0.42613900  0.67826900  0.30435100  1
