# generated using pymatgen
data_Ba(LaS2)2
_symmetry_space_group_name_H-M   'P 1'
_cell_length_a   8.98707000
_cell_length_b   8.98707000
_cell_length_c   8.92568400
_cell_angle_alpha   90.00000000
_cell_angle_beta   90.00000000
_cell_angle_gamma   90.00000000
_symmetry_Int_Tables_number   1
_chemical_formula_structural   Ba(LaS2)2
_chemical_formula_sum   'Ba4 La8 S16'
_cell_volume   720.90453255
_cell_formula_units_Z   4
loop_
 _symmetry_equiv_pos_site_id
 _symmetry_equiv_pos_as_xyz
  1  'x, y, z'
loop_
 _atom_site_type_symbol
 _atom_site_label
 _atom_site_symmetry_multiplicity
 _atom_site_fract_x
 _atom_site_fract_y
 _atom_site_fract_z
 _atom_site_occupancy
  Ba  Ba0  1  0.50000000  0.00000000  0.75000000  1
  Ba  Ba1  1  0.00000000  0.00000000  0.50000000  1
  Ba  Ba2  1  0.00000000  0.50000000  0.25000000  1
  Ba  Ba3  1  0.50000000  0.50000000  0.00000000  1
  La  La4  1  0.25000000  0.12577900  0.12500000  1
  La  La5  1  0.87422100  0.25000000  0.87500000  1
  La  La6  1  0.25000000  0.37422100  0.62500000  1
  La  La7  1  0.62577900  0.25000000  0.37500000  1
  La  La8  1  0.75000000  0.62577900  0.62500000  1
  La  La9  1  0.37422100  0.75000000  0.37500000  1
  La  La10  1  0.75000000  0.87422100  0.12500000  1
  La  La11  1  0.12577900  0.75000000  0.87500000  1
  S  S12  1  0.57691200  0.16845800  0.06347800  1
  S  S13  1  0.92308800  0.33154200  0.56347800  1
  S  S14  1  0.57691200  0.33154200  0.68652200  1
  S  S15  1  0.83154200  0.92308800  0.81347800  1
  S  S16  1  0.66845800  0.57691200  0.31347800  1
  S  S17  1  0.66845800  0.92308800  0.43652200  1
  S  S18  1  0.83154200  0.57691200  0.93652200  1
  S  S19  1  0.92308800  0.16845800  0.18652200  1
  S  S20  1  0.07691200  0.66845800  0.56347800  1
  S  S21  1  0.42308800  0.83154200  0.06347800  1
  S  S22  1  0.07691200  0.83154200  0.18652200  1
  S  S23  1  0.33154200  0.42308800  0.31347800  1
  S  S24  1  0.16845800  0.07691200  0.81347800  1
  S  S25  1  0.16845800  0.42308800  0.93652200  1
  S  S26  1  0.33154200  0.07691200  0.43652200  1
  S  S27  1  0.42308800  0.66845800  0.68652200  1
