# generated using pymatgen
data_NiP2O7
_symmetry_space_group_name_H-M   'P 1'
_cell_length_a   7.33396500
_cell_length_b   8.40245200
_cell_length_c   9.28721679
_cell_angle_alpha   90.00000000
_cell_angle_beta   115.27201781
_cell_angle_gamma   90.00000000
_symmetry_Int_Tables_number   1
_chemical_formula_structural   NiP2O7
_chemical_formula_sum   'Ni4 P8 O28'
_cell_volume   517.53382494
_cell_formula_units_Z   4
loop_
 _symmetry_equiv_pos_site_id
 _symmetry_equiv_pos_as_xyz
  1  'x, y, z'
loop_
 _atom_site_type_symbol
 _atom_site_label
 _atom_site_symmetry_multiplicity
 _atom_site_fract_x
 _atom_site_fract_y
 _atom_site_fract_z
 _atom_site_occupancy
  Ni  Ni0  1  0.23002400  0.41682500  0.10875600  1
  Ni  Ni1  1  0.76997600  0.91682500  0.39124400  1
  Ni  Ni2  1  0.76997600  0.58317500  0.89124400  1
  Ni  Ni3  1  0.23002400  0.08317500  0.60875600  1
  P  P4  1  0.93304500  0.21838800  0.25069500  1
  P  P5  1  0.54176600  0.23617900  0.96722800  1
  P  P6  1  0.93304500  0.28161200  0.75069500  1
  P  P7  1  0.45823400  0.76382100  0.03277200  1
  P  P8  1  0.06695500  0.71838800  0.24930500  1
  P  P9  1  0.54176600  0.26382100  0.46722800  1
  P  P10  1  0.45823400  0.73617900  0.53277200  1
  P  P11  1  0.06695500  0.78161200  0.74930500  1
  O  O12  1  0.46776700  0.38982900  0.33541400  1
  O  O13  1  0.90609700  0.75227400  0.30792000  1
  O  O14  1  0.73619300  0.15024600  0.10487800  1
  O  O15  1  0.53223300  0.61017100  0.66458600  1
  O  O16  1  0.09390300  0.25227400  0.19208000  1
  O  O17  1  0.39189000  0.23123600  0.53719800  1
  O  O18  1  0.39240000  0.60863100  0.08243100  1
  O  O19  1  0.53223300  0.88982900  0.16458600  1
  O  O20  1  0.26380700  0.65024600  0.39512200  1
  O  O21  1  0.10632100  0.62002700  0.68846900  1
  O  O22  1  0.60811000  0.76876400  0.46280200  1
  O  O23  1  0.01916300  0.58600200  0.12287000  1
  O  O24  1  0.39240000  0.89136900  0.58243100  1
  O  O25  1  0.89367900  0.37997300  0.31153100  1
  O  O26  1  0.26380700  0.84975400  0.89512200  1
  O  O27  1  0.60760000  0.39136900  0.91756900  1
  O  O28  1  0.60811000  0.73123600  0.96280200  1
  O  O29  1  0.98083700  0.41399800  0.87713000  1
  O  O30  1  0.98083700  0.08600200  0.37713000  1
  O  O31  1  0.60760000  0.10863100  0.41756900  1
  O  O32  1  0.09390300  0.24772600  0.69208000  1
  O  O33  1  0.46776700  0.11017100  0.83541400  1
  O  O34  1  0.01916300  0.91399800  0.62287000  1
  O  O35  1  0.90609700  0.74772600  0.80792000  1
  O  O36  1  0.73619300  0.34975400  0.60487800  1
  O  O37  1  0.89367900  0.12002700  0.81153100  1
  O  O38  1  0.39189000  0.26876400  0.03719800  1
  O  O39  1  0.10632100  0.87997300  0.18846900  1
