# generated using pymatgen
data_Dy5AgS8
_symmetry_space_group_name_H-M   'P 1'
_cell_length_a   8.32592200
_cell_length_b   8.32592200
_cell_length_c   8.36782600
_cell_angle_alpha   90.00000000
_cell_angle_beta   90.00000000
_cell_angle_gamma   90.00000000
_symmetry_Int_Tables_number   1
_chemical_formula_structural   Dy5AgS8
_chemical_formula_sum   'Dy10 Ag2 S16'
_cell_volume   580.06587494
_cell_formula_units_Z   2
loop_
 _symmetry_equiv_pos_site_id
 _symmetry_equiv_pos_as_xyz
  1  'x, y, z'
loop_
 _atom_site_type_symbol
 _atom_site_label
 _atom_site_symmetry_multiplicity
 _atom_site_fract_x
 _atom_site_fract_y
 _atom_site_fract_z
 _atom_site_occupancy
  Dy  Dy0  1  0.74712050  0.36515550  0.38141650  1
  Dy  Dy1  1  0.13484450  0.24712050  0.11858350  1
  Dy  Dy2  1  0.75287950  0.13484450  0.88141650  1
  Dy  Dy3  1  0.00000000  0.00000000  0.50000000  1
  Dy  Dy4  1  0.36515550  0.25287950  0.61858350  1
  Dy  Dy5  1  0.24712050  0.86515550  0.88141650  1
  Dy  Dy6  1  0.63484450  0.74712050  0.61858350  1
  Dy  Dy7  1  0.25287950  0.63484450  0.38141650  1
  Dy  Dy8  1  0.50000000  0.50000000  0.00000000  1
  Dy  Dy9  1  0.86515550  0.75287950  0.11858350  1
  Ag  Ag10  1  0.50000000  0.00000000  0.25000000  1
  Ag  Ag11  1  0.00000000  0.50000000  0.75000000  1
  S  S12  1  0.43101600  0.32065500  0.30197000  1
  S  S13  1  0.42725550  0.18686150  0.93155050  1
  S  S14  1  0.18686150  0.57274450  0.06844950  1
  S  S15  1  0.31313850  0.92725550  0.56844950  1
  S  S16  1  0.06898400  0.17934500  0.80197000  1
  S  S17  1  0.32065500  0.56898400  0.69803000  1
  S  S18  1  0.17934500  0.93101600  0.19803000  1
  S  S19  1  0.07274450  0.31313850  0.43155050  1
  S  S20  1  0.93101600  0.82065500  0.80197000  1
  S  S21  1  0.92725550  0.68686150  0.43155050  1
  S  S22  1  0.68686150  0.07274450  0.56844950  1
  S  S23  1  0.81313850  0.42725550  0.06844950  1
  S  S24  1  0.56898400  0.67934500  0.30197000  1
  S  S25  1  0.82065500  0.06898400  0.19803000  1
  S  S26  1  0.67934500  0.43101600  0.69803000  1
  S  S27  1  0.57274450  0.81313850  0.93155050  1
