# generated using pymatgen
data_Nd2S3
_symmetry_space_group_name_H-M   'P 1'
_cell_length_a   8.60332600
_cell_length_b   8.60332600
_cell_length_c   25.69678000
_cell_angle_alpha   90.00000000
_cell_angle_beta   90.00000000
_cell_angle_gamma   90.00000000
_symmetry_Int_Tables_number   1
_chemical_formula_structural   Nd2S3
_chemical_formula_sum   'Nd32 S48'
_cell_volume   1902.00417390
_cell_formula_units_Z   16
loop_
 _symmetry_equiv_pos_site_id
 _symmetry_equiv_pos_as_xyz
  1  'x, y, z'
loop_
 _atom_site_type_symbol
 _atom_site_label
 _atom_site_symmetry_multiplicity
 _atom_site_fract_x
 _atom_site_fract_y
 _atom_site_fract_z
 _atom_site_occupancy
  Nd  Nd0  1  0.13827850  0.25820800  0.46079875  1
  Nd  Nd1  1  0.50000000  0.00000000  0.41573775  1
  Nd  Nd2  1  0.25000000  0.62003600  0.37500000  1
  Nd  Nd3  1  0.00000000  0.00000000  0.33426225  1
  Nd  Nd4  1  0.63827850  0.74179200  0.28920125  1
  Nd  Nd5  1  0.36172150  0.25820800  0.28920125  1
  Nd  Nd6  1  0.75000000  0.37996400  0.37500000  1
  Nd  Nd7  1  0.75820800  0.13827850  0.21079875  1
  Nd  Nd8  1  0.12003600  0.25000000  0.12500000  1
  Nd  Nd9  1  0.50000000  0.50000000  0.16573775  1
  Nd  Nd10  1  0.24179200  0.86172150  0.21079875  1
  Nd  Nd11  1  0.87996400  0.75000000  0.12500000  1
  Nd  Nd12  1  0.50000000  0.00000000  0.08426225  1
  Nd  Nd13  1  0.24179200  0.63827850  0.03920125  1
  Nd  Nd14  1  0.86172150  0.74179200  0.46079875  1
  Nd  Nd15  1  0.75820800  0.36172150  0.03920125  1
  Nd  Nd16  1  0.63827850  0.75820800  0.96079875  1
  Nd  Nd17  1  0.00000000  0.50000000  0.91573775  1
  Nd  Nd18  1  0.75000000  0.12003600  0.87500000  1
  Nd  Nd19  1  0.50000000  0.50000000  0.83426225  1
  Nd  Nd20  1  0.13827850  0.24179200  0.78920125  1
  Nd  Nd21  1  0.86172150  0.75820800  0.78920125  1
  Nd  Nd22  1  0.25000000  0.87996400  0.87500000  1
  Nd  Nd23  1  0.25820800  0.63827850  0.71079875  1
  Nd  Nd24  1  0.62003600  0.75000000  0.62500000  1
  Nd  Nd25  1  0.00000000  0.00000000  0.66573775  1
  Nd  Nd26  1  0.74179200  0.36172150  0.71079875  1
  Nd  Nd27  1  0.37996400  0.25000000  0.62500000  1
  Nd  Nd28  1  0.00000000  0.50000000  0.58426225  1
  Nd  Nd29  1  0.74179200  0.13827850  0.53920125  1
  Nd  Nd30  1  0.36172150  0.24179200  0.96079875  1
  Nd  Nd31  1  0.25820800  0.86172150  0.53920125  1
  S  S32  1  0.42676450  0.31851300  0.39525475  1
  S  S33  1  0.17599200  0.92855850  0.43317725  1
  S  S34  1  0.32400800  0.92855850  0.31682275  1
  S  S35  1  0.82400800  0.07144150  0.43317725  1
  S  S36  1  0.67599200  0.07144150  0.31682275  1
  S  S37  1  0.57323550  0.68148700  0.39525475  1
  S  S38  1  0.92676450  0.68148700  0.35474525  1
  S  S39  1  0.91949250  0.83112200  0.23360675  1
  S  S40  1  0.66887800  0.41949250  0.26639325  1
  S  S41  1  0.07323550  0.31851300  0.35474525  1
  S  S42  1  0.33112200  0.58050750  0.26639325  1
  S  S43  1  0.81851300  0.42676450  0.14525475  1
  S  S44  1  0.18148700  0.57323550  0.14525475  1
  S  S45  1  0.08050750  0.16887800  0.23360675  1
  S  S46  1  0.42855850  0.17599200  0.18317725  1
  S  S47  1  0.42855850  0.32400800  0.06682275  1
  S  S48  1  0.18148700  0.92676450  0.10474525  1
  S  S49  1  0.57144150  0.82400800  0.18317725  1
  S  S50  1  0.83112200  0.41949250  0.48360675  1
  S  S51  1  0.81851300  0.07323550  0.10474525  1
  S  S52  1  0.16887800  0.58050750  0.48360675  1
  S  S53  1  0.57144150  0.67599200  0.06682275  1
  S  S54  1  0.91949250  0.66887800  0.01639325  1
  S  S55  1  0.08050750  0.33112200  0.01639325  1
  S  S56  1  0.92676450  0.81851300  0.89525475  1
  S  S57  1  0.67599200  0.42855850  0.93317725  1
  S  S58  1  0.82400800  0.42855850  0.81682275  1
  S  S59  1  0.32400800  0.57144150  0.93317725  1
  S  S60  1  0.17599200  0.57144150  0.81682275  1
  S  S61  1  0.07323550  0.18148700  0.89525475  1
  S  S62  1  0.42676450  0.18148700  0.85474525  1
  S  S63  1  0.41949250  0.33112200  0.73360675  1
  S  S64  1  0.16887800  0.91949250  0.76639325  1
  S  S65  1  0.57323550  0.81851300  0.85474525  1
  S  S66  1  0.83112200  0.08050750  0.76639325  1
  S  S67  1  0.31851300  0.92676450  0.64525475  1
  S  S68  1  0.68148700  0.07323550  0.64525475  1
  S  S69  1  0.58050750  0.66887800  0.73360675  1
  S  S70  1  0.92855850  0.67599200  0.68317725  1
  S  S71  1  0.92855850  0.82400800  0.56682275  1
  S  S72  1  0.68148700  0.42676450  0.60474525  1
  S  S73  1  0.07144150  0.32400800  0.68317725  1
  S  S74  1  0.33112200  0.91949250  0.98360675  1
  S  S75  1  0.31851300  0.57323550  0.60474525  1
  S  S76  1  0.66887800  0.08050750  0.98360675  1
  S  S77  1  0.07144150  0.17599200  0.56682275  1
  S  S78  1  0.41949250  0.16887800  0.51639325  1
  S  S79  1  0.58050750  0.83112200  0.51639325  1
