# generated using pymatgen
data_V(PO3)4
_symmetry_space_group_name_H-M   'P 1'
_cell_length_a   12.34770800
_cell_length_b   8.17084600
_cell_length_c   9.94436410
_cell_angle_alpha   90.00000000
_cell_angle_beta   116.84589504
_cell_angle_gamma   90.00000000
_symmetry_Int_Tables_number   1
_chemical_formula_structural   V(PO3)4
_chemical_formula_sum   'V4 P16 O48'
_cell_volume   895.16784676
_cell_formula_units_Z   4
loop_
 _symmetry_equiv_pos_site_id
 _symmetry_equiv_pos_as_xyz
  1  'x, y, z'
loop_
 _atom_site_type_symbol
 _atom_site_label
 _atom_site_symmetry_multiplicity
 _atom_site_fract_x
 _atom_site_fract_y
 _atom_site_fract_z
 _atom_site_occupancy
  V  V0  1  0.25000000  0.75000000  0.00000000  1
  V  V1  1  0.25000000  0.25000000  0.50000000  1
  V  V2  1  0.75000000  0.25000000  0.00000000  1
  V  V3  1  0.75000000  0.75000000  0.50000000  1
  P  P4  1  0.50549950  0.75280450  0.53286300  1
  P  P5  1  0.49450050  0.75280450  0.96713700  1
  P  P6  1  0.17849000  0.48355300  0.18851300  1
  P  P7  1  0.00549950  0.74719550  0.03286300  1
  P  P8  1  0.99450050  0.74719550  0.46713700  1
  P  P9  1  0.32151000  0.98355300  0.31148700  1
  P  P10  1  0.17849000  0.51644700  0.68851300  1
  P  P11  1  0.32151000  0.01644700  0.81148700  1
  P  P12  1  0.00549950  0.25280450  0.53286300  1
  P  P13  1  0.99450050  0.25280450  0.96713700  1
  P  P14  1  0.67849000  0.98355300  0.18851300  1
  P  P15  1  0.50549950  0.24719550  0.03286300  1
  P  P16  1  0.49450050  0.24719550  0.46713700  1
  P  P17  1  0.82151000  0.48355300  0.31148700  1
  P  P18  1  0.67849000  0.01644700  0.68851300  1
  P  P19  1  0.82151000  0.51644700  0.81148700  1
  O  O20  1  0.56403450  0.90331550  0.65506200  1
  O  O21  1  0.26933900  0.07441200  0.65071900  1
  O  O22  1  0.23066100  0.42558800  0.34928100  1
  O  O23  1  0.58093400  0.75527800  0.44263500  1
  O  O24  1  0.58093400  0.24472200  0.94263500  1
  O  O25  1  0.06403450  0.59668450  0.15506200  1
  O  O26  1  0.23375400  0.92363800  0.85120400  1
  O  O27  1  0.37418150  0.17025350  0.92090900  1
  O  O28  1  0.37418150  0.82974650  0.42090900  1
  O  O29  1  0.99123250  0.89481450  0.10429400  1
  O  O30  1  0.93596550  0.59668450  0.34493800  1
  O  O31  1  0.76933900  0.42558800  0.15071900  1
  O  O32  1  0.26624600  0.42363800  0.64879600  1
  O  O33  1  0.00876750  0.89481450  0.39570600  1
  O  O34  1  0.49123250  0.60518550  0.60429400  1
  O  O35  1  0.91906600  0.25527800  0.05736500  1
  O  O36  1  0.73066100  0.07441200  0.84928100  1
  O  O37  1  0.91906600  0.74472200  0.55736500  1
  O  O38  1  0.50876750  0.60518550  0.89570600  1
  O  O39  1  0.12581850  0.67025350  0.57909100  1
  O  O40  1  0.12581850  0.32974650  0.07909100  1
  O  O41  1  0.26624600  0.57636200  0.14879600  1
  O  O42  1  0.43596550  0.90331550  0.84493800  1
  O  O43  1  0.23375400  0.07636200  0.35120400  1
  O  O44  1  0.06403450  0.40331550  0.65506200  1
  O  O45  1  0.76933900  0.57441200  0.65071900  1
  O  O46  1  0.73066100  0.92558800  0.34928100  1
  O  O47  1  0.08093400  0.25527800  0.44263500  1
  O  O48  1  0.08093400  0.74472200  0.94263500  1
  O  O49  1  0.56403450  0.09668450  0.15506200  1
  O  O50  1  0.73375400  0.42363800  0.85120400  1
  O  O51  1  0.87418150  0.67025350  0.92090900  1
  O  O52  1  0.87418150  0.32974650  0.42090900  1
  O  O53  1  0.49123250  0.39481450  0.10429400  1
  O  O54  1  0.43596550  0.09668450  0.34493800  1
  O  O55  1  0.26933900  0.92558800  0.15071900  1
  O  O56  1  0.76624600  0.92363800  0.64879600  1
  O  O57  1  0.50876750  0.39481450  0.39570600  1
  O  O58  1  0.99123250  0.10518550  0.60429400  1
  O  O59  1  0.41906600  0.75527800  0.05736500  1
  O  O60  1  0.23066100  0.57441200  0.84928100  1
  O  O61  1  0.41906600  0.24472200  0.55736500  1
  O  O62  1  0.00876750  0.10518550  0.89570600  1
  O  O63  1  0.62581850  0.17025350  0.57909100  1
  O  O64  1  0.62581850  0.82974650  0.07909100  1
  O  O65  1  0.76624600  0.07636200  0.14879600  1
  O  O66  1  0.93596550  0.40331550  0.84493800  1
  O  O67  1  0.73375400  0.57636200  0.35120400  1
