# generated using pymatgen
data_Ho10Ti6O27
_symmetry_space_group_name_H-M   'P 1'
_cell_length_a   12.80251600
_cell_length_b   7.60404000
_cell_length_c   12.15810288
_cell_angle_alpha   90.00000000
_cell_angle_beta   112.07432542
_cell_angle_gamma   90.00000000
_symmetry_Int_Tables_number   1
_chemical_formula_structural   Ho10Ti6O27
_chemical_formula_sum   'Ho20 Ti12 O54'
_cell_volume   1096.84017724
_cell_formula_units_Z   2
loop_
 _symmetry_equiv_pos_site_id
 _symmetry_equiv_pos_as_xyz
  1  'x, y, z'
loop_
 _atom_site_type_symbol
 _atom_site_label
 _atom_site_symmetry_multiplicity
 _atom_site_fract_x
 _atom_site_fract_y
 _atom_site_fract_z
 _atom_site_occupancy
  Ho  Ho0  1  0.25368500  0.73581100  0.98155500  1
  Ho  Ho1  1  0.99993500  0.72124200  0.75320800  1
  Ho  Ho2  1  0.75368500  0.76418900  0.98155500  1
  Ho  Ho3  1  0.26002400  0.00000000  0.25051000  1
  Ho  Ho4  1  0.99993500  0.27875800  0.75320800  1
  Ho  Ho5  1  0.50815100  0.75743900  0.24910900  1
  Ho  Ho6  1  0.76712800  0.50000000  0.75669200  1
  Ho  Ho7  1  0.50815100  0.24256100  0.24910900  1
  Ho  Ho8  1  0.50354600  0.50000000  0.52125700  1
  Ho  Ho9  1  0.74581000  0.00000000  0.24594800  1
  Ho  Ho10  1  0.75368500  0.23581100  0.98155500  1
  Ho  Ho11  1  0.49993500  0.22124200  0.75320800  1
  Ho  Ho12  1  0.25368500  0.26418900  0.98155500  1
  Ho  Ho13  1  0.76002400  0.50000000  0.25051000  1
  Ho  Ho14  1  0.49993500  0.77875800  0.75320800  1
  Ho  Ho15  1  0.00815100  0.25743900  0.24910900  1
  Ho  Ho16  1  0.26712800  0.00000000  0.75669200  1
  Ho  Ho17  1  0.00815100  0.74256100  0.24910900  1
  Ho  Ho18  1  0.00354600  0.00000000  0.52125700  1
  Ho  Ho19  1  0.24581000  0.50000000  0.24594800  1
  Ti  Ti20  1  0.99771500  0.00000000  0.99606900  1
  Ti  Ti21  1  0.99765500  0.50000000  0.51128100  1
  Ti  Ti22  1  0.73791500  0.75328300  0.49963000  1
  Ti  Ti23  1  0.49141500  0.00000000  0.01647000  1
  Ti  Ti24  1  0.23791500  0.74671700  0.49963000  1
  Ti  Ti25  1  0.73887800  0.00000000  0.71788800  1
  Ti  Ti26  1  0.49771500  0.50000000  0.99606900  1
  Ti  Ti27  1  0.49765500  0.00000000  0.51128100  1
  Ti  Ti28  1  0.23791500  0.25328300  0.49963000  1
  Ti  Ti29  1  0.99141500  0.50000000  0.01647000  1
  Ti  Ti30  1  0.73791500  0.24671700  0.49963000  1
  Ti  Ti31  1  0.23887800  0.50000000  0.71788800  1
  O  O32  1  0.08057500  0.50000000  0.69353200  1
  O  O33  1  0.07014650  0.83687650  0.93529000  1
  O  O34  1  0.82201700  0.81639800  0.68460400  1
  O  O35  1  0.95214800  0.50000000  0.83879700  1
  O  O36  1  0.07014650  0.16312350  0.93529000  1
  O  O37  1  0.57375750  0.70238950  0.44757100  1
  O  O38  1  0.56300900  0.50000000  0.16761100  1
  O  O39  1  0.66771900  0.71190100  0.77014400  1
  O  O40  1  0.74494600  0.50000000  0.56161000  1
  O  O41  1  0.80521300  0.50000000  0.95582000  1
  O  O42  1  0.82201700  0.18360200  0.68460400  1
  O  O43  1  0.42198350  0.80668850  0.54376000  1
  O  O44  1  0.31826800  0.73491000  0.18450100  1
  O  O45  1  0.16771900  0.78809900  0.77014400  1
  O  O46  1  0.07375750  0.79761050  0.44757100  1
  O  O47  1  0.70986750  0.27634750  0.33981600  1
  O  O48  1  0.65024900  0.00000000  0.02935100  1
  O  O49  1  0.82414800  0.00000000  0.45060200  1
  O  O50  1  0.32568600  0.50000000  0.90010600  1
  O  O51  1  0.81826800  0.76509000  0.18450100  1
  O  O52  1  0.92198350  0.69331150  0.54376000  1
  O  O53  1  0.56628800  0.00000000  0.19966500  1
  O  O54  1  0.44857350  0.23266850  0.04670200  1
  O  O55  1  0.70986750  0.72365250  0.33981600  1
  O  O56  1  0.66516400  0.00000000  0.53400600  1
  O  O57  1  0.44386700  0.00000000  0.34350400  1
  O  O58  1  0.44857350  0.76733150  0.04670200  1
  O  O59  1  0.58057500  0.00000000  0.69353200  1
  O  O60  1  0.57014650  0.33687650  0.93529000  1
  O  O61  1  0.32201700  0.31639800  0.68460400  1
  O  O62  1  0.45214800  0.00000000  0.83879700  1
  O  O63  1  0.57014650  0.66312350  0.93529000  1
  O  O64  1  0.07375750  0.20238950  0.44757100  1
  O  O65  1  0.06300900  0.00000000  0.16761100  1
  O  O66  1  0.16771900  0.21190100  0.77014400  1
  O  O67  1  0.24494600  0.00000000  0.56161000  1
  O  O68  1  0.30521300  0.00000000  0.95582000  1
  O  O69  1  0.32201700  0.68360200  0.68460400  1
  O  O70  1  0.92198350  0.30668850  0.54376000  1
  O  O71  1  0.81826800  0.23491000  0.18450100  1
  O  O72  1  0.66771900  0.28809900  0.77014400  1
  O  O73  1  0.57375750  0.29761050  0.44757100  1
  O  O74  1  0.20986750  0.77634750  0.33981600  1
  O  O75  1  0.15024900  0.50000000  0.02935100  1
  O  O76  1  0.32414800  0.50000000  0.45060200  1
  O  O77  1  0.82568600  0.00000000  0.90010600  1
  O  O78  1  0.31826800  0.26509000  0.18450100  1
  O  O79  1  0.42198350  0.19331150  0.54376000  1
  O  O80  1  0.06628800  0.50000000  0.19966500  1
  O  O81  1  0.94857350  0.73266850  0.04670200  1
  O  O82  1  0.20986750  0.22365250  0.33981600  1
  O  O83  1  0.16516400  0.50000000  0.53400600  1
  O  O84  1  0.94386700  0.50000000  0.34350400  1
  O  O85  1  0.94857350  0.26733150  0.04670200  1
