# generated using pymatgen
data_Nd2CdS4
_symmetry_space_group_name_H-M   'P 1'
_cell_length_a   8.47399600
_cell_length_b   8.47399600
_cell_length_c   8.86801200
_cell_angle_alpha   90.00000000
_cell_angle_beta   90.00000000
_cell_angle_gamma   90.00000000
_symmetry_Int_Tables_number   1
_chemical_formula_structural   Nd2CdS4
_chemical_formula_sum   'Nd8 Cd4 S16'
_cell_volume   636.79959929
_cell_formula_units_Z   4
loop_
 _symmetry_equiv_pos_site_id
 _symmetry_equiv_pos_as_xyz
  1  'x, y, z'
loop_
 _atom_site_type_symbol
 _atom_site_label
 _atom_site_symmetry_multiplicity
 _atom_site_fract_x
 _atom_site_fract_y
 _atom_site_fract_z
 _atom_site_occupancy
  Nd  Nd0  1  0.63850200  0.25000000  0.12500000  1
  Nd  Nd1  1  0.25000000  0.13850200  0.37500000  1
  Nd  Nd2  1  0.86149800  0.25000000  0.62500000  1
  Nd  Nd3  1  0.25000000  0.36149800  0.87500000  1
  Nd  Nd4  1  0.13850200  0.75000000  0.62500000  1
  Nd  Nd5  1  0.75000000  0.63850200  0.87500000  1
  Nd  Nd6  1  0.36149800  0.75000000  0.12500000  1
  Nd  Nd7  1  0.75000000  0.86149800  0.37500000  1
  Cd  Cd8  1  0.00000000  0.50000000  0.25000000  1
  Cd  Cd9  1  0.00000000  0.00000000  0.00000000  1
  Cd  Cd10  1  0.50000000  0.00000000  0.75000000  1
  Cd  Cd11  1  0.50000000  0.50000000  0.50000000  1
  S  S12  1  0.43017300  0.80554600  0.43742300  1
  S  S13  1  0.19445400  0.43017300  0.56257700  1
  S  S14  1  0.30554600  0.43017300  0.18742300  1
  S  S15  1  0.56982700  0.30554600  0.81257700  1
  S  S16  1  0.93017300  0.19445400  0.31257700  1
  S  S17  1  0.30554600  0.06982700  0.06257700  1
  S  S18  1  0.06982700  0.69445400  0.93742300  1
  S  S19  1  0.19445400  0.06982700  0.68742300  1
  S  S20  1  0.93017300  0.30554600  0.93742300  1
  S  S21  1  0.69445400  0.93017300  0.06257700  1
  S  S22  1  0.80554600  0.93017300  0.68742300  1
  S  S23  1  0.06982700  0.80554600  0.31257700  1
  S  S24  1  0.43017300  0.69445400  0.81257700  1
  S  S25  1  0.80554600  0.56982700  0.56257700  1
  S  S26  1  0.56982700  0.19445400  0.43742300  1
  S  S27  1  0.69445400  0.56982700  0.18742300  1
