# generated using pymatgen
data_Ho2S3
_symmetry_space_group_name_H-M   'P 1'
_cell_length_a   8.28668200
_cell_length_b   8.28668200
_cell_length_c   24.78034800
_cell_angle_alpha   90.00000000
_cell_angle_beta   90.00000000
_cell_angle_gamma   90.00000000
_symmetry_Int_Tables_number   1
_chemical_formula_structural   Ho2S3
_chemical_formula_sum   'Ho32 S48'
_cell_volume   1701.64415939
_cell_formula_units_Z   16
loop_
 _symmetry_equiv_pos_site_id
 _symmetry_equiv_pos_as_xyz
  1  'x, y, z'
loop_
 _atom_site_type_symbol
 _atom_site_label
 _atom_site_symmetry_multiplicity
 _atom_site_fract_x
 _atom_site_fract_y
 _atom_site_fract_z
 _atom_site_occupancy
  Ho  Ho0  1  0.00000000  0.00000000  0.16574000  1
  Ho  Ho1  1  0.38141900  0.75000000  0.12500000  1
  Ho  Ho2  1  0.25952900  0.13835800  0.03894600  1
  Ho  Ho3  1  0.00000000  0.50000000  0.08426000  1
  Ho  Ho4  1  0.61858100  0.25000000  0.12500000  1
  Ho  Ho5  1  0.74047100  0.86164200  0.03894600  1
  Ho  Ho6  1  0.36164200  0.75952900  0.46105400  1
  Ho  Ho7  1  0.25000000  0.11858100  0.37500000  1
  Ho  Ho8  1  0.00000000  0.50000000  0.41574000  1
  Ho  Ho9  1  0.75000000  0.88141900  0.37500000  1
  Ho  Ho10  1  0.63835800  0.24047100  0.46105400  1
  Ho  Ho11  1  0.50000000  0.50000000  0.33426000  1
  Ho  Ho12  1  0.86164200  0.24047100  0.28894600  1
  Ho  Ho13  1  0.74047100  0.63835800  0.21105400  1
  Ho  Ho14  1  0.25952900  0.36164200  0.21105400  1
  Ho  Ho15  1  0.13835800  0.75952900  0.28894600  1
  Ho  Ho16  1  0.50000000  0.50000000  0.66574000  1
  Ho  Ho17  1  0.88141900  0.25000000  0.62500000  1
  Ho  Ho18  1  0.75952900  0.63835800  0.53894600  1
  Ho  Ho19  1  0.50000000  0.00000000  0.58426000  1
  Ho  Ho20  1  0.11858100  0.75000000  0.62500000  1
  Ho  Ho21  1  0.24047100  0.36164200  0.53894600  1
  Ho  Ho22  1  0.86164200  0.25952900  0.96105400  1
  Ho  Ho23  1  0.75000000  0.61858100  0.87500000  1
  Ho  Ho24  1  0.50000000  0.00000000  0.91574000  1
  Ho  Ho25  1  0.25000000  0.38141900  0.87500000  1
  Ho  Ho26  1  0.13835800  0.74047100  0.96105400  1
  Ho  Ho27  1  0.00000000  0.00000000  0.83426000  1
  Ho  Ho28  1  0.36164200  0.74047100  0.78894600  1
  Ho  Ho29  1  0.24047100  0.13835800  0.71105400  1
  Ho  Ho30  1  0.75952900  0.86164200  0.71105400  1
  Ho  Ho31  1  0.63835800  0.25952900  0.78894600  1
  S  S32  1  0.68372500  0.92963800  0.14423900  1
  S  S33  1  0.06639550  0.67991650  0.18430350  1
  S  S34  1  0.93360450  0.32008350  0.18430350  1
  S  S35  1  0.06639550  0.82008350  0.06569650  1
  S  S36  1  0.93360450  0.17991650  0.06569650  1
  S  S37  1  0.68372500  0.57036200  0.10576100  1
  S  S38  1  0.31627500  0.07036200  0.14423900  1
  S  S39  1  0.31627500  0.42963800  0.10576100  1
  S  S40  1  0.67390200  0.92104900  0.48266500  1
  S  S41  1  0.57895100  0.17390200  0.01733500  1
  S  S42  1  0.07036200  0.81627500  0.39423900  1
  S  S43  1  0.42104900  0.82609800  0.01733500  1
  S  S44  1  0.92963800  0.18372500  0.39423900  1
  S  S45  1  0.32609800  0.07895100  0.48266500  1
  S  S46  1  0.67991650  0.56639550  0.43430350  1
  S  S47  1  0.32008350  0.43360450  0.43430350  1
  S  S48  1  0.17991650  0.43360450  0.31569650  1
  S  S49  1  0.57036200  0.18372500  0.35576100  1
  S  S50  1  0.42963800  0.81627500  0.35576100  1
  S  S51  1  0.57895100  0.32609800  0.23266500  1
  S  S52  1  0.42104900  0.67390200  0.23266500  1
  S  S53  1  0.17390200  0.07895100  0.26733500  1
  S  S54  1  0.82008350  0.56639550  0.31569650  1
  S  S55  1  0.82609800  0.92104900  0.26733500  1
  S  S56  1  0.18372500  0.42963800  0.64423900  1
  S  S57  1  0.56639550  0.17991650  0.68430350  1
  S  S58  1  0.43360450  0.82008350  0.68430350  1
  S  S59  1  0.56639550  0.32008350  0.56569650  1
  S  S60  1  0.43360450  0.67991650  0.56569650  1
  S  S61  1  0.18372500  0.07036200  0.60576100  1
  S  S62  1  0.81627500  0.57036200  0.64423900  1
  S  S63  1  0.81627500  0.92963800  0.60576100  1
  S  S64  1  0.17390200  0.42104900  0.98266500  1
  S  S65  1  0.07895100  0.67390200  0.51733500  1
  S  S66  1  0.57036200  0.31627500  0.89423900  1
  S  S67  1  0.92104900  0.32609800  0.51733500  1
  S  S68  1  0.42963800  0.68372500  0.89423900  1
  S  S69  1  0.82609800  0.57895100  0.98266500  1
  S  S70  1  0.17991650  0.06639550  0.93430350  1
  S  S71  1  0.82008350  0.93360450  0.93430350  1
  S  S72  1  0.67991650  0.93360450  0.81569650  1
  S  S73  1  0.07036200  0.68372500  0.85576100  1
  S  S74  1  0.92963800  0.31627500  0.85576100  1
  S  S75  1  0.07895100  0.82609800  0.73266500  1
  S  S76  1  0.92104900  0.17390200  0.73266500  1
  S  S77  1  0.67390200  0.57895100  0.76733500  1
  S  S78  1  0.32008350  0.06639550  0.81569650  1
  S  S79  1  0.32609800  0.42104900  0.76733500  1
