# generated using pymatgen
data_Sn(BiTe2)2
_symmetry_space_group_name_H-M   'P 1'
_cell_length_a   4.47448152
_cell_length_b   4.47448152
_cell_length_c   42.28342191
_cell_angle_alpha   90.00000000
_cell_angle_beta   90.00000000
_cell_angle_gamma   120.00000000
_symmetry_Int_Tables_number   1
_chemical_formula_structural   Sn(BiTe2)2
_chemical_formula_sum   'Sn3 Bi6 Te12'
_cell_volume   733.13878470
_cell_formula_units_Z   3
loop_
 _symmetry_equiv_pos_site_id
 _symmetry_equiv_pos_as_xyz
  1  'x, y, z'
loop_
 _atom_site_type_symbol
 _atom_site_label
 _atom_site_symmetry_multiplicity
 _atom_site_fract_x
 _atom_site_fract_y
 _atom_site_fract_z
 _atom_site_occupancy
  Sn  Sn0  1  0.00000000  0.00000000  0.00000000  1
  Sn  Sn1  1  0.66666667  0.33333333  0.33333333  1
  Sn  Sn2  1  0.33333333  0.66666667  0.66666667  1
  Bi  Bi3  1  0.33333333  0.66666667  0.23990467  1
  Bi  Bi4  1  0.33333333  0.66666667  0.09342867  1
  Bi  Bi5  1  0.00000000  0.00000000  0.57323800  1
  Bi  Bi6  1  0.00000000  0.00000000  0.42676200  1
  Bi  Bi7  1  0.66666667  0.33333333  0.90657133  1
  Bi  Bi8  1  0.66666667  0.33333333  0.76009533  1
  Te  Te9  1  0.66666667  0.33333333  0.19961733  1
  Te  Te10  1  0.66666667  0.33333333  0.04479933  1
  Te  Te11  1  0.00000000  0.00000000  0.28853400  1
  Te  Te12  1  0.00000000  0.00000000  0.13371600  1
  Te  Te13  1  0.33333333  0.66666667  0.53295067  1
  Te  Te14  1  0.33333333  0.66666667  0.37813267  1
  Te  Te15  1  0.66666667  0.33333333  0.62186733  1
  Te  Te16  1  0.66666667  0.33333333  0.46704933  1
  Te  Te17  1  0.00000000  0.00000000  0.86628400  1
  Te  Te18  1  0.00000000  0.00000000  0.71146600  1
  Te  Te19  1  0.33333333  0.66666667  0.95520067  1
  Te  Te20  1  0.33333333  0.66666667  0.80038267  1
