# generated using pymatgen
data_Bi2CO5
_symmetry_space_group_name_H-M   'P 1'
_cell_length_a   3.59749600
_cell_length_b   4.55734200
_cell_length_c   13.88005400
_cell_angle_alpha   90.00000000
_cell_angle_beta   90.00000000
_cell_angle_gamma   90.00000000
_symmetry_Int_Tables_number   1
_chemical_formula_structural   Bi2CO5
_chemical_formula_sum   'Bi4 C2 O10'
_cell_volume   227.56375760
_cell_formula_units_Z   2
loop_
 _symmetry_equiv_pos_site_id
 _symmetry_equiv_pos_as_xyz
  1  'x, y, z'
loop_
 _atom_site_type_symbol
 _atom_site_label
 _atom_site_symmetry_multiplicity
 _atom_site_fract_x
 _atom_site_fract_y
 _atom_site_fract_z
 _atom_site_occupancy
  Bi  Bi0  1  0.50000000  0.00000000  0.19546200  1
  Bi  Bi1  1  0.00000000  0.50000000  0.01985600  1
  Bi  Bi2  1  0.00000000  0.50000000  0.69546200  1
  Bi  Bi3  1  0.50000000  0.00000000  0.51985600  1
  C  C4  1  0.00000000  0.50000000  0.34115500  1
  C  C5  1  0.50000000  0.00000000  0.84115500  1
  O  O6  1  0.00000000  0.50000000  0.43419400  1
  O  O7  1  0.00000000  0.25658900  0.29368300  1
  O  O8  1  0.00000000  0.00000000  0.08952600  1
  O  O9  1  0.50000000  0.50000000  0.11459900  1
  O  O10  1  0.00000000  0.74341100  0.29368300  1
  O  O11  1  0.50000000  0.00000000  0.93419400  1
  O  O12  1  0.50000000  0.75658900  0.79368300  1
  O  O13  1  0.50000000  0.50000000  0.58952600  1
  O  O14  1  0.00000000  0.00000000  0.61459900  1
  O  O15  1  0.50000000  0.24341100  0.79368300  1
