# generated using pymatgen
data_Li4Ni7(PO4)6
_symmetry_space_group_name_H-M   'P 1'
_cell_length_a   10.27920400
_cell_length_b   14.00485200
_cell_length_c   6.50899516
_cell_angle_alpha   90.00000000
_cell_angle_beta   106.33668590
_cell_angle_gamma   90.00000000
_symmetry_Int_Tables_number   1
_chemical_formula_structural   Li4Ni7(PO4)6
_chemical_formula_sum   'Li8 Ni14 P12 O48'
_cell_volume   899.19459181
_cell_formula_units_Z   2
loop_
 _symmetry_equiv_pos_site_id
 _symmetry_equiv_pos_as_xyz
  1  'x, y, z'
loop_
 _atom_site_type_symbol
 _atom_site_label
 _atom_site_symmetry_multiplicity
 _atom_site_fract_x
 _atom_site_fract_y
 _atom_site_fract_z
 _atom_site_occupancy
  Li  Li0  1  0.43561450  0.89020250  0.51171600  1
  Li  Li1  1  0.00797100  0.00000000  0.50229400  1
  Li  Li2  1  0.43561450  0.10979750  0.51171600  1
  Li  Li3  1  0.64510900  0.00000000  0.41756000  1
  Li  Li4  1  0.93561450  0.39020250  0.51171600  1
  Li  Li5  1  0.50797100  0.50000000  0.50229400  1
  Li  Li6  1  0.93561450  0.60979750  0.51171600  1
  Li  Li7  1  0.14510900  0.50000000  0.41756000  1
  Ni  Ni8  1  0.81304900  0.82156300  0.18413300  1
  Ni  Ni9  1  0.67793050  0.68163550  0.81032000  1
  Ni  Ni10  1  0.81304900  0.17843700  0.18413300  1
  Ni  Ni11  1  0.67793050  0.31836450  0.81032000  1
  Ni  Ni12  1  0.99747300  0.00000000  0.00047500  1
  Ni  Ni13  1  0.49491500  0.82271800  0.99829800  1
  Ni  Ni14  1  0.49491500  0.17728200  0.99829800  1
  Ni  Ni15  1  0.31304900  0.32156300  0.18413300  1
  Ni  Ni16  1  0.17793050  0.18163550  0.81032000  1
  Ni  Ni17  1  0.31304900  0.67843700  0.18413300  1
  Ni  Ni18  1  0.17793050  0.81836450  0.81032000  1
  Ni  Ni19  1  0.49747300  0.50000000  0.00047500  1
  Ni  Ni20  1  0.99491500  0.32271800  0.99829800  1
  Ni  Ni21  1  0.99491500  0.67728200  0.99829800  1
  P  P22  1  0.66278000  0.00000000  0.91050100  1
  P  P23  1  0.59146750  0.31451650  0.30089800  1
  P  P24  1  0.39681750  0.31956450  0.69549100  1
  P  P25  1  0.39681750  0.68043550  0.69549100  1
  P  P26  1  0.32786700  0.00000000  0.07660800  1
  P  P27  1  0.59146750  0.68548350  0.30089800  1
  P  P28  1  0.16278000  0.50000000  0.91050100  1
  P  P29  1  0.09146750  0.81451650  0.30089800  1
  P  P30  1  0.89681750  0.81956450  0.69549100  1
  P  P31  1  0.89681750  0.18043550  0.69549100  1
  P  P32  1  0.82786700  0.50000000  0.07660800  1
  P  P33  1  0.09146750  0.18548350  0.30089800  1
  O  O34  1  0.79841400  0.00000000  0.86037300  1
  O  O35  1  0.49069900  0.77169500  0.29457000  1
  O  O36  1  0.49069900  0.22830500  0.29457000  1
  O  O37  1  0.54721700  0.00000000  0.70086700  1
  O  O38  1  0.33593100  0.09044700  0.93611900  1
  O  O39  1  0.49018950  0.40104650  0.23642300  1
  O  O40  1  0.65335400  0.91151700  0.05725200  1
  O  O41  1  0.50599750  0.59895150  0.76624000  1
  O  O42  1  0.19714750  0.16170050  0.51051200  1
  O  O43  1  0.79718300  0.15007800  0.48404500  1
  O  O44  1  0.48995500  0.77090800  0.69698700  1
  O  O45  1  0.33593100  0.90955300  0.93611900  1
  O  O46  1  0.19714750  0.83829950  0.51051200  1
  O  O47  1  0.49018950  0.59895350  0.23642300  1
  O  O48  1  0.66117400  0.28464000  0.12265700  1
  O  O49  1  0.32478750  0.70942650  0.87059700  1
  O  O50  1  0.66117400  0.71536000  0.12265700  1
  O  O51  1  0.65335400  0.08848300  0.05725200  1
  O  O52  1  0.19506600  0.00000000  0.13446300  1
  O  O53  1  0.32478750  0.29057350  0.87059700  1
  O  O54  1  0.44675500  0.00000000  0.28353700  1
  O  O55  1  0.50599750  0.40104850  0.76624000  1
  O  O56  1  0.48995500  0.22909200  0.69698700  1
  O  O57  1  0.79718300  0.84992200  0.48404500  1
  O  O58  1  0.29841400  0.50000000  0.86037300  1
  O  O59  1  0.99069900  0.27169500  0.29457000  1
  O  O60  1  0.99069900  0.72830500  0.29457000  1
  O  O61  1  0.04721700  0.50000000  0.70086700  1
  O  O62  1  0.83593100  0.59044700  0.93611900  1
  O  O63  1  0.99018950  0.90104650  0.23642300  1
  O  O64  1  0.15335400  0.41151700  0.05725200  1
  O  O65  1  0.00599750  0.09895150  0.76624000  1
  O  O66  1  0.69714750  0.66170050  0.51051200  1
  O  O67  1  0.29718300  0.65007800  0.48404500  1
  O  O68  1  0.98995500  0.27090800  0.69698700  1
  O  O69  1  0.83593100  0.40955300  0.93611900  1
  O  O70  1  0.69714750  0.33829950  0.51051200  1
  O  O71  1  0.99018950  0.09895350  0.23642300  1
  O  O72  1  0.16117400  0.78464000  0.12265700  1
  O  O73  1  0.82478750  0.20942650  0.87059700  1
  O  O74  1  0.16117400  0.21536000  0.12265700  1
  O  O75  1  0.15335400  0.58848300  0.05725200  1
  O  O76  1  0.69506600  0.50000000  0.13446300  1
  O  O77  1  0.82478750  0.79057350  0.87059700  1
  O  O78  1  0.94675500  0.50000000  0.28353700  1
  O  O79  1  0.00599750  0.90104850  0.76624000  1
  O  O80  1  0.98995500  0.72909200  0.69698700  1
  O  O81  1  0.29718300  0.34992200  0.48404500  1
