# generated using pymatgen
data_Tb5AgS8
_symmetry_space_group_name_H-M   'P 1'
_cell_length_a   8.34570000
_cell_length_b   8.34570000
_cell_length_c   8.39502600
_cell_angle_alpha   90.00000000
_cell_angle_beta   90.00000000
_cell_angle_gamma   90.00000000
_symmetry_Int_Tables_number   1
_chemical_formula_structural   Tb5AgS8
_chemical_formula_sum   'Tb10 Ag2 S16'
_cell_volume   584.71950869
_cell_formula_units_Z   2
loop_
 _symmetry_equiv_pos_site_id
 _symmetry_equiv_pos_as_xyz
  1  'x, y, z'
loop_
 _atom_site_type_symbol
 _atom_site_label
 _atom_site_symmetry_multiplicity
 _atom_site_fract_x
 _atom_site_fract_y
 _atom_site_fract_z
 _atom_site_occupancy
  Tb  Tb0  1  0.63355200  0.24756600  0.13110600  1
  Tb  Tb1  1  0.25243400  0.13355200  0.36889400  1
  Tb  Tb2  1  0.86644800  0.25243400  0.63110600  1
  Tb  Tb3  1  0.00000000  0.50000000  0.25000000  1
  Tb  Tb4  1  0.24756600  0.36644800  0.86889400  1
  Tb  Tb5  1  0.13355200  0.74756600  0.63110600  1
  Tb  Tb6  1  0.75243400  0.63355200  0.86889400  1
  Tb  Tb7  1  0.36644800  0.75243400  0.13110600  1
  Tb  Tb8  1  0.50000000  0.00000000  0.75000000  1
  Tb  Tb9  1  0.74756600  0.86644800  0.36889400  1
  Ag  Ag10  1  0.00000000  0.00000000  0.00000000  1
  Ag  Ag11  1  0.50000000  0.50000000  0.50000000  1
  S  S12  1  0.43015900  0.82200700  0.44958200  1
  S  S13  1  0.18512150  0.07417750  0.68317650  1
  S  S14  1  0.57417750  0.31487850  0.81682350  1
  S  S15  1  0.17799300  0.43015900  0.55041800  1
  S  S16  1  0.32200700  0.06984100  0.05041800  1
  S  S17  1  0.31487850  0.42582250  0.18317650  1
  S  S18  1  0.92582250  0.18512150  0.31682350  1
  S  S19  1  0.06984100  0.67799300  0.94958200  1
  S  S20  1  0.93015900  0.32200700  0.94958200  1
  S  S21  1  0.68512150  0.57417750  0.18317650  1
  S  S22  1  0.07417750  0.81487850  0.31682350  1
  S  S23  1  0.67799300  0.93015900  0.05041800  1
  S  S24  1  0.82200700  0.56984100  0.55041800  1
  S  S25  1  0.81487850  0.92582250  0.68317650  1
  S  S26  1  0.42582250  0.68512150  0.81682350  1
  S  S27  1  0.56984100  0.17799300  0.44958200  1
