# generated using pymatgen
data_NaCN
_symmetry_space_group_name_H-M   'P 1'
_cell_length_a   3.68565200
_cell_length_b   4.82973200
_cell_length_c   5.61042400
_cell_angle_alpha   90.00000000
_cell_angle_beta   90.00000000
_cell_angle_gamma   90.00000000
_symmetry_Int_Tables_number   1
_chemical_formula_structural   NaCN
_chemical_formula_sum   'Na2 C2 N2'
_cell_volume   99.86953849
_cell_formula_units_Z   2
loop_
 _symmetry_equiv_pos_site_id
 _symmetry_equiv_pos_as_xyz
  1  'x, y, z'
loop_
 _atom_site_type_symbol
 _atom_site_label
 _atom_site_symmetry_multiplicity
 _atom_site_fract_x
 _atom_site_fract_y
 _atom_site_fract_z
 _atom_site_occupancy
  Na  Na0  1  0.50000000  0.51141800  0.50000000  1
  Na  Na1  1  0.00000000  0.01141800  0.00000000  1
  C  C2  1  0.00000000  0.11613100  0.50000000  1
  C  C3  1  0.50000000  0.61613100  0.00000000  1
  N  N4  1  0.00000000  0.87245100  0.50000000  1
  N  N5  1  0.50000000  0.37245100  0.00000000  1
