# generated using pymatgen
data_Na2Sb4O7
_symmetry_space_group_name_H-M   'P 1'
_cell_length_a   11.32016000
_cell_length_b   17.23193600
_cell_length_c   5.76979052
_cell_angle_alpha   90.00000000
_cell_angle_beta   117.66902407
_cell_angle_gamma   90.00000000
_symmetry_Int_Tables_number   1
_chemical_formula_structural   Na2Sb4O7
_chemical_formula_sum   'Na8 Sb16 O28'
_cell_volume   996.79594711
_cell_formula_units_Z   4
loop_
 _symmetry_equiv_pos_site_id
 _symmetry_equiv_pos_as_xyz
  1  'x, y, z'
loop_
 _atom_site_type_symbol
 _atom_site_label
 _atom_site_symmetry_multiplicity
 _atom_site_fract_x
 _atom_site_fract_y
 _atom_site_fract_z
 _atom_site_occupancy
  Na  Na0  1  0.08784400  0.40799500  0.08314800  1
  Na  Na1  1  0.91215600  0.40799500  0.41685200  1
  Na  Na2  1  0.41215600  0.09200500  0.91685200  1
  Na  Na3  1  0.58784400  0.09200500  0.58314800  1
  Na  Na4  1  0.58784400  0.90799500  0.08314800  1
  Na  Na5  1  0.41215600  0.90799500  0.41685200  1
  Na  Na6  1  0.91215600  0.59200500  0.91685200  1
  Na  Na7  1  0.08784400  0.59200500  0.58314800  1
  Sb  Sb8  1  0.35755950  0.24052850  0.31729100  1
  Sb  Sb9  1  0.85755950  0.25947150  0.81729100  1
  Sb  Sb10  1  0.14244050  0.25947150  0.68270900  1
  Sb  Sb11  1  0.64244050  0.24052850  0.18270900  1
  Sb  Sb12  1  0.29543000  0.43128500  0.74272000  1
  Sb  Sb13  1  0.70457000  0.43128500  0.75728000  1
  Sb  Sb14  1  0.20457000  0.06871500  0.25728000  1
  Sb  Sb15  1  0.79543000  0.06871500  0.24272000  1
  Sb  Sb16  1  0.85755950  0.74052850  0.31729100  1
  Sb  Sb17  1  0.35755950  0.75947150  0.81729100  1
  Sb  Sb18  1  0.64244050  0.75947150  0.68270900  1
  Sb  Sb19  1  0.14244050  0.74052850  0.18270900  1
  Sb  Sb20  1  0.79543000  0.93128500  0.74272000  1
  Sb  Sb21  1  0.20457000  0.93128500  0.75728000  1
  Sb  Sb22  1  0.70457000  0.56871500  0.25728000  1
  Sb  Sb23  1  0.29543000  0.56871500  0.24272000  1
  O  O24  1  0.36113700  0.13144500  0.49623500  1
  O  O25  1  0.79818150  0.18463850  0.46892400  1
  O  O26  1  0.13886300  0.36855500  0.50376500  1
  O  O27  1  0.86113700  0.36855500  0.99623500  1
  O  O28  1  0.00000000  0.30939600  0.75000000  1
  O  O29  1  0.50000000  0.19060400  0.25000000  1
  O  O30  1  0.29818150  0.31536150  0.96892400  1
  O  O31  1  0.70181850  0.31536150  0.53107600  1
  O  O32  1  0.20181850  0.18463850  0.03107600  1
  O  O33  1  0.79244700  0.48698400  0.57613700  1
  O  O34  1  0.29244700  0.01301600  0.07613700  1
  O  O35  1  0.70755300  0.01301600  0.42386300  1
  O  O36  1  0.63886300  0.13144500  0.00376500  1
  O  O37  1  0.20755300  0.48698400  0.92386300  1
  O  O38  1  0.86113700  0.63144500  0.49623500  1
  O  O39  1  0.29818150  0.68463850  0.46892400  1
  O  O40  1  0.63886300  0.86855500  0.50376500  1
  O  O41  1  0.36113700  0.86855500  0.99623500  1
  O  O42  1  0.50000000  0.80939600  0.75000000  1
  O  O43  1  0.00000000  0.69060400  0.25000000  1
  O  O44  1  0.79818150  0.81536150  0.96892400  1
  O  O45  1  0.20181850  0.81536150  0.53107600  1
  O  O46  1  0.70181850  0.68463850  0.03107600  1
  O  O47  1  0.29244700  0.98698400  0.57613700  1
  O  O48  1  0.79244700  0.51301600  0.07613700  1
  O  O49  1  0.20755300  0.51301600  0.42386300  1
  O  O50  1  0.13886300  0.63144500  0.00376500  1
  O  O51  1  0.70755300  0.98698400  0.92386300  1
