# generated using pymatgen
data_TbAsO4
_symmetry_space_group_name_H-M   'P 1'
_cell_length_a   7.18396000
_cell_length_b   7.18396000
_cell_length_c   6.38008200
_cell_angle_alpha   90.00000000
_cell_angle_beta   90.00000000
_cell_angle_gamma   90.00000000
_symmetry_Int_Tables_number   1
_chemical_formula_structural   TbAsO4
_chemical_formula_sum   'Tb4 As4 O16'
_cell_volume   329.27144654
_cell_formula_units_Z   4
loop_
 _symmetry_equiv_pos_site_id
 _symmetry_equiv_pos_as_xyz
  1  'x, y, z'
loop_
 _atom_site_type_symbol
 _atom_site_label
 _atom_site_symmetry_multiplicity
 _atom_site_fract_x
 _atom_site_fract_y
 _atom_site_fract_z
 _atom_site_occupancy
  Tb  Tb0  1  0.00000000  0.00000000  0.50000000  1
  Tb  Tb1  1  0.50000000  0.00000000  0.75000000  1
  Tb  Tb2  1  0.50000000  0.50000000  0.00000000  1
  Tb  Tb3  1  0.00000000  0.50000000  0.25000000  1
  As  As4  1  0.50000000  0.50000000  0.50000000  1
  As  As5  1  0.50000000  0.00000000  0.25000000  1
  As  As6  1  0.00000000  0.00000000  0.00000000  1
  As  As7  1  0.00000000  0.50000000  0.75000000  1
  O  O8  1  0.00000000  0.68101700  0.57355400  1
  O  O9  1  0.81898300  0.00000000  0.82355400  1
  O  O10  1  0.68101700  0.50000000  0.32355400  1
  O  O11  1  0.00000000  0.31898300  0.57355400  1
  O  O12  1  0.68101700  0.00000000  0.42644600  1
  O  O13  1  0.50000000  0.31898300  0.67644600  1
  O  O14  1  0.00000000  0.18101700  0.17644600  1
  O  O15  1  0.31898300  0.00000000  0.42644600  1
  O  O16  1  0.50000000  0.18101700  0.07355400  1
  O  O17  1  0.31898300  0.50000000  0.32355400  1
  O  O18  1  0.18101700  0.00000000  0.82355400  1
  O  O19  1  0.50000000  0.81898300  0.07355400  1
  O  O20  1  0.18101700  0.50000000  0.92644600  1
  O  O21  1  0.00000000  0.81898300  0.17644600  1
  O  O22  1  0.50000000  0.68101700  0.67644600  1
  O  O23  1  0.81898300  0.50000000  0.92644600  1
