# generated using pymatgen
data_NaTh2F9
_symmetry_space_group_name_H-M   'P 1'
_cell_length_a   8.86587200
_cell_length_b   8.86587200
_cell_length_c   8.69915400
_cell_angle_alpha   90.00000000
_cell_angle_beta   90.00000000
_cell_angle_gamma   90.00000000
_symmetry_Int_Tables_number   1
_chemical_formula_structural   NaTh2F9
_chemical_formula_sum   'Na4 Th8 F36'
_cell_volume   683.78557227
_cell_formula_units_Z   4
loop_
 _symmetry_equiv_pos_site_id
 _symmetry_equiv_pos_as_xyz
  1  'x, y, z'
loop_
 _atom_site_type_symbol
 _atom_site_label
 _atom_site_symmetry_multiplicity
 _atom_site_fract_x
 _atom_site_fract_y
 _atom_site_fract_z
 _atom_site_occupancy
  Na  Na0  1  0.50000000  0.00000000  0.00000000  1
  Na  Na1  1  0.00000000  0.50000000  0.00000000  1
  Na  Na2  1  0.00000000  0.50000000  0.50000000  1
  Na  Na3  1  0.50000000  0.00000000  0.50000000  1
  Th  Th4  1  0.81498650  0.18501350  0.19361850  1
  Th  Th5  1  0.31498650  0.31498650  0.30638150  1
  Th  Th6  1  0.18501350  0.18501350  0.80638150  1
  Th  Th7  1  0.18501350  0.81498650  0.19361850  1
  Th  Th8  1  0.31498650  0.68501350  0.69361850  1
  Th  Th9  1  0.81498650  0.81498650  0.80638150  1
  Th  Th10  1  0.68501350  0.68501350  0.30638150  1
  Th  Th11  1  0.68501350  0.31498650  0.69361850  1
  F  F12  1  0.78823250  0.21176750  0.45069550  1
  F  F13  1  0.28823250  0.28823250  0.04930450  1
  F  F14  1  0.21176750  0.21176750  0.54930450  1
  F  F15  1  0.21176750  0.78823250  0.45069550  1
  F  F16  1  0.80275200  0.44858000  0.19830000  1
  F  F17  1  0.19724800  0.55142000  0.19830000  1
  F  F18  1  0.23907700  0.00000000  0.00000000  1
  F  F19  1  0.00000000  0.23907700  0.00000000  1
  F  F20  1  0.00000000  0.76092300  0.00000000  1
  F  F21  1  0.76092300  0.00000000  0.00000000  1
  F  F22  1  0.00000000  0.00000000  0.77486700  1
  F  F23  1  0.00000000  0.00000000  0.22513300  1
  F  F24  1  0.44858000  0.80275200  0.19830000  1
  F  F25  1  0.69724800  0.94858000  0.30170000  1
  F  F26  1  0.30275200  0.05142000  0.30170000  1
  F  F27  1  0.55142000  0.19724800  0.19830000  1
  F  F28  1  0.05142000  0.30275200  0.30170000  1
  F  F29  1  0.94858000  0.69724800  0.30170000  1
  F  F30  1  0.28823250  0.71176750  0.95069550  1
  F  F31  1  0.78823250  0.78823250  0.54930450  1
  F  F32  1  0.71176750  0.71176750  0.04930450  1
  F  F33  1  0.71176750  0.28823250  0.95069550  1
  F  F34  1  0.30275200  0.94858000  0.69830000  1
  F  F35  1  0.69724800  0.05142000  0.69830000  1
  F  F36  1  0.73907700  0.50000000  0.50000000  1
  F  F37  1  0.50000000  0.73907700  0.50000000  1
  F  F38  1  0.50000000  0.26092300  0.50000000  1
  F  F39  1  0.26092300  0.50000000  0.50000000  1
  F  F40  1  0.50000000  0.50000000  0.27486700  1
  F  F41  1  0.50000000  0.50000000  0.72513300  1
  F  F42  1  0.94858000  0.30275200  0.69830000  1
  F  F43  1  0.19724800  0.44858000  0.80170000  1
  F  F44  1  0.80275200  0.55142000  0.80170000  1
  F  F45  1  0.05142000  0.69724800  0.69830000  1
  F  F46  1  0.55142000  0.80275200  0.80170000  1
  F  F47  1  0.44858000  0.19724800  0.80170000  1
