# generated using pymatgen
data_Pr4Se3O4
_symmetry_space_group_name_H-M   'P 1'
_cell_length_a   4.07259200
_cell_length_b   13.16337800
_cell_length_c   8.54234100
_cell_angle_alpha   90.00000000
_cell_angle_beta   90.00000000
_cell_angle_gamma   90.00000000
_symmetry_Int_Tables_number   1
_chemical_formula_structural   Pr4Se3O4
_chemical_formula_sum   'Pr8 Se6 O8'
_cell_volume   457.94693900
_cell_formula_units_Z   2
loop_
 _symmetry_equiv_pos_site_id
 _symmetry_equiv_pos_as_xyz
  1  'x, y, z'
loop_
 _atom_site_type_symbol
 _atom_site_label
 _atom_site_symmetry_multiplicity
 _atom_site_fract_x
 _atom_site_fract_y
 _atom_site_fract_z
 _atom_site_occupancy
  Pr  Pr0  1  0.50000000  0.18398700  0.23801200  1
  Pr  Pr1  1  0.50000000  0.18398700  0.76198800  1
  Pr  Pr2  1  0.00000000  0.01638800  0.50000000  1
  Pr  Pr3  1  0.00000000  0.00194800  0.00000000  1
  Pr  Pr4  1  0.00000000  0.68398700  0.23801200  1
  Pr  Pr5  1  0.00000000  0.68398700  0.76198800  1
  Pr  Pr6  1  0.50000000  0.51638800  0.50000000  1
  Pr  Pr7  1  0.50000000  0.50194800  0.00000000  1
  Se  Se8  1  0.00000000  0.35599400  0.64884400  1
  Se  Se9  1  0.00000000  0.31494700  0.00000000  1
  Se  Se10  1  0.00000000  0.35599400  0.35115600  1
  Se  Se11  1  0.50000000  0.85599400  0.64884400  1
  Se  Se12  1  0.50000000  0.81494700  0.00000000  1
  Se  Se13  1  0.50000000  0.85599400  0.35115600  1
  O  O14  1  0.00000000  0.08882500  0.24431900  1
  O  O15  1  0.50000000  0.08942200  0.00000000  1
  O  O16  1  0.00000000  0.08882500  0.75568100  1
  O  O17  1  0.50000000  0.11436100  0.50000000  1
  O  O18  1  0.50000000  0.58882500  0.24431900  1
  O  O19  1  0.00000000  0.58942200  0.00000000  1
  O  O20  1  0.50000000  0.58882500  0.75568100  1
  O  O21  1  0.00000000  0.61436100  0.50000000  1
