# generated using pymatgen
data_Nd2CdSe4
_symmetry_space_group_name_H-M   'P 1'
_cell_length_a   8.82642400
_cell_length_b   8.82642400
_cell_length_c   9.27013600
_cell_angle_alpha   90.00000000
_cell_angle_beta   90.00000000
_cell_angle_gamma   90.00000000
_symmetry_Int_Tables_number   1
_chemical_formula_structural   Nd2CdSe4
_chemical_formula_sum   'Nd8 Cd4 Se16'
_cell_volume   722.19699620
_cell_formula_units_Z   4
loop_
 _symmetry_equiv_pos_site_id
 _symmetry_equiv_pos_as_xyz
  1  'x, y, z'
loop_
 _atom_site_type_symbol
 _atom_site_label
 _atom_site_symmetry_multiplicity
 _atom_site_fract_x
 _atom_site_fract_y
 _atom_site_fract_z
 _atom_site_occupancy
  Nd  Nd0  1  0.63430000  0.25000000  0.12500000  1
  Nd  Nd1  1  0.25000000  0.13430000  0.37500000  1
  Nd  Nd2  1  0.86570000  0.25000000  0.62500000  1
  Nd  Nd3  1  0.25000000  0.36570000  0.87500000  1
  Nd  Nd4  1  0.13430000  0.75000000  0.62500000  1
  Nd  Nd5  1  0.75000000  0.63430000  0.87500000  1
  Nd  Nd6  1  0.36570000  0.75000000  0.12500000  1
  Nd  Nd7  1  0.75000000  0.86570000  0.37500000  1
  Cd  Cd8  1  0.00000000  0.50000000  0.25000000  1
  Cd  Cd9  1  0.00000000  0.00000000  0.00000000  1
  Cd  Cd10  1  0.50000000  0.00000000  0.75000000  1
  Cd  Cd11  1  0.50000000  0.50000000  0.50000000  1
  Se  Se12  1  0.43050300  0.80688600  0.43881400  1
  Se  Se13  1  0.19311400  0.06949700  0.68881400  1
  Se  Se14  1  0.56949700  0.30688600  0.81118600  1
  Se  Se15  1  0.19311400  0.43050300  0.56118600  1
  Se  Se16  1  0.30688600  0.43050300  0.18881400  1
  Se  Se17  1  0.93050300  0.19311400  0.31118600  1
  Se  Se18  1  0.30688600  0.06949700  0.06118600  1
  Se  Se19  1  0.06949700  0.69311400  0.93881400  1
  Se  Se20  1  0.93050300  0.30688600  0.93881400  1
  Se  Se21  1  0.69311400  0.56949700  0.18881400  1
  Se  Se22  1  0.06949700  0.80688600  0.31118600  1
  Se  Se23  1  0.69311400  0.93050300  0.06118600  1
  Se  Se24  1  0.80688600  0.93050300  0.68881400  1
  Se  Se25  1  0.43050300  0.69311400  0.81118600  1
  Se  Se26  1  0.80688600  0.56949700  0.56118600  1
  Se  Se27  1  0.56949700  0.19311400  0.43881400  1
