# generated using pymatgen
data_AlCuS2
_symmetry_space_group_name_H-M   'P 1'
_cell_length_a   5.32684000
_cell_length_b   5.32684000
_cell_length_c   10.53631000
_cell_angle_alpha   90.00000000
_cell_angle_beta   90.00000000
_cell_angle_gamma   90.00000000
_symmetry_Int_Tables_number   1
_chemical_formula_structural   AlCuS2
_chemical_formula_sum   'Al4 Cu4 S8'
_cell_volume   298.97016045
_cell_formula_units_Z   4
loop_
 _symmetry_equiv_pos_site_id
 _symmetry_equiv_pos_as_xyz
  1  'x, y, z'
loop_
 _atom_site_type_symbol
 _atom_site_label
 _atom_site_symmetry_multiplicity
 _atom_site_fract_x
 _atom_site_fract_y
 _atom_site_fract_z
 _atom_site_occupancy
  Al  Al0  1  0.50000000  0.50000000  0.00000000  1
  Al  Al1  1  0.50000000  0.00000000  0.25000000  1
  Al  Al2  1  0.00000000  0.00000000  0.50000000  1
  Al  Al3  1  0.00000000  0.50000000  0.75000000  1
  Cu  Cu4  1  0.00000000  0.50000000  0.25000000  1
  Cu  Cu5  1  0.00000000  0.00000000  0.00000000  1
  Cu  Cu6  1  0.50000000  0.00000000  0.75000000  1
  Cu  Cu7  1  0.50000000  0.50000000  0.50000000  1
  S  S8  1  0.74328400  0.75000000  0.12500000  1
  S  S9  1  0.25000000  0.75671600  0.37500000  1
  S  S10  1  0.25671600  0.25000000  0.12500000  1
  S  S11  1  0.75000000  0.24328400  0.37500000  1
  S  S12  1  0.24328400  0.25000000  0.62500000  1
  S  S13  1  0.75000000  0.25671600  0.87500000  1
  S  S14  1  0.75671600  0.75000000  0.62500000  1
  S  S15  1  0.25000000  0.74328400  0.87500000  1
