# generated using pymatgen
data_Li2SeO4
_symmetry_space_group_name_H-M   'P 1'
_cell_length_a   14.24613309
_cell_length_b   14.24613309
_cell_length_c   9.50472133
_cell_angle_alpha   90.00000000
_cell_angle_beta   90.00000000
_cell_angle_gamma   120.00000000
_symmetry_Int_Tables_number   1
_chemical_formula_structural   Li2SeO4
_chemical_formula_sum   'Li36 Se18 O72'
_cell_volume   1670.56744749
_cell_formula_units_Z   18
loop_
 _symmetry_equiv_pos_site_id
 _symmetry_equiv_pos_as_xyz
  1  'x, y, z'
loop_
 _atom_site_type_symbol
 _atom_site_label
 _atom_site_symmetry_multiplicity
 _atom_site_fract_x
 _atom_site_fract_y
 _atom_site_fract_z
 _atom_site_occupancy
  Li  Li0  1  0.64691700  0.12123700  0.41722800  1
  Li  Li1  1  0.47432000  0.35308300  0.41722800  1
  Li  Li2  1  0.87876300  0.52568000  0.41722800  1
  Li  Li3  1  0.35308300  0.87876300  0.58277200  1
  Li  Li4  1  0.52568000  0.64691700  0.58277200  1
  Li  Li5  1  0.12123700  0.47432000  0.58277200  1
  Li  Li6  1  0.98550033  0.79269467  0.41465067  1
  Li  Li7  1  0.80719433  0.01449967  0.41465067  1
  Li  Li8  1  0.20730533  0.19280567  0.41465067  1
  Li  Li9  1  0.01449967  0.20730533  0.58534933  1
  Li  Li10  1  0.19280567  0.98550033  0.58534933  1
  Li  Li11  1  0.79269467  0.80719433  0.58534933  1
  Li  Li12  1  0.31358367  0.45457033  0.75056133  1
  Li  Li13  1  0.14098667  0.68641633  0.75056133  1
  Li  Li14  1  0.54542967  0.85901333  0.75056133  1
  Li  Li15  1  0.01974967  0.21209633  0.91610533  1
  Li  Li16  1  0.19234667  0.98025033  0.91610533  1
  Li  Li17  1  0.78790367  0.80765333  0.91610533  1
  Li  Li18  1  0.65216700  0.12602800  0.74798400  1
  Li  Li19  1  0.47386100  0.34783300  0.74798400  1
  Li  Li20  1  0.87397200  0.52613900  0.74798400  1
  Li  Li21  1  0.68116633  0.54063867  0.91868267  1
  Li  Li22  1  0.85947233  0.31883367  0.91868267  1
  Li  Li23  1  0.45936133  0.14052767  0.91868267  1
  Li  Li24  1  0.98025033  0.78790367  0.08389467  1
  Li  Li25  1  0.80765333  0.01974967  0.08389467  1
  Li  Li26  1  0.21209633  0.19234667  0.08389467  1
  Li  Li27  1  0.68641633  0.54542967  0.24943867  1
  Li  Li28  1  0.85901333  0.31358367  0.24943867  1
  Li  Li29  1  0.45457033  0.14098667  0.24943867  1
  Li  Li30  1  0.31883367  0.45936133  0.08131733  1
  Li  Li31  1  0.14052767  0.68116633  0.08131733  1
  Li  Li32  1  0.54063867  0.85947233  0.08131733  1
  Li  Li33  1  0.34783300  0.87397200  0.25201600  1
  Li  Li34  1  0.52613900  0.65216700  0.25201600  1
  Li  Li35  1  0.12602800  0.47386100  0.25201600  1
  Se  Se36  1  0.98660467  0.78902933  0.74936533  1
  Se  Se37  1  0.78902933  0.80242467  0.25063467  1
  Se  Se38  1  0.19757533  0.98660467  0.25063467  1
  Se  Se39  1  0.01339533  0.21097067  0.25063467  1
  Se  Se40  1  0.21097067  0.19757533  0.74936533  1
  Se  Se41  1  0.80242467  0.01339533  0.74936533  1
  Se  Se42  1  0.65327133  0.12236267  0.08269867  1
  Se  Se43  1  0.45569600  0.13575800  0.58396800  1
  Se  Se44  1  0.86424200  0.31993800  0.58396800  1
  Se  Se45  1  0.68006200  0.54430400  0.58396800  1
  Se  Se46  1  0.87763733  0.53090867  0.08269867  1
  Se  Se47  1  0.46909133  0.34672867  0.08269867  1
  Se  Se48  1  0.31993800  0.45569600  0.41603200  1
  Se  Se49  1  0.12236267  0.46909133  0.91730133  1
  Se  Se50  1  0.53090867  0.65327133  0.91730133  1
  Se  Se51  1  0.34672867  0.87763733  0.91730133  1
  Se  Se52  1  0.54430400  0.86424200  0.41603200  1
  Se  Se53  1  0.13575800  0.68006200  0.41603200  1
  O  O54  1  0.86980600  0.07647700  0.60315400  1
  O  O55  1  0.79332900  0.86980600  0.39684600  1
  O  O56  1  0.13019400  0.92352300  0.39684600  1
  O  O57  1  0.07647700  0.20667100  0.39684600  1
  O  O58  1  0.20667100  0.13019400  0.60315400  1
  O  O59  1  0.88800200  0.10358400  0.25034900  1
  O  O60  1  0.11199800  0.89641600  0.74965100  1
  O  O61  1  0.78441800  0.88800200  0.74965100  1
  O  O62  1  0.10358400  0.21558200  0.74965100  1
  O  O63  1  0.67031400  0.65632600  0.58189000  1
  O  O64  1  0.21558200  0.11199800  0.25034900  1
  O  O65  1  0.89641600  0.78441800  0.25034900  1
  O  O66  1  0.32968600  0.34367400  0.41811000  1
  O  O67  1  0.01398800  0.67031400  0.41811000  1
  O  O68  1  0.65632600  0.98601200  0.41811000  1
  O  O69  1  0.45958500  0.20572400  0.44023800  1
  O  O70  1  0.98601200  0.32968600  0.58189000  1
  O  O71  1  0.34367400  0.01398800  0.58189000  1
  O  O72  1  0.25386100  0.45958500  0.55976200  1
  O  O73  1  0.20572400  0.74613900  0.55976200  1
  O  O74  1  0.54041500  0.79427600  0.55976200  1
  O  O75  1  0.74613900  0.54041500  0.44023800  1
  O  O76  1  0.79427600  0.25386100  0.44023800  1
  O  O77  1  0.92352300  0.79332900  0.60315400  1
  O  O78  1  0.53647267  0.40981033  0.93648733  1
  O  O79  1  0.45999567  0.20313933  0.73017933  1
  O  O80  1  0.79686067  0.25685633  0.73017933  1
  O  O81  1  0.74314367  0.54000433  0.73017933  1
  O  O82  1  0.87333767  0.46352733  0.93648733  1
  O  O83  1  0.55466867  0.43691733  0.58368233  1
  O  O84  1  0.77866467  0.22974933  0.08298433  1
  O  O85  1  0.45108467  0.22133533  0.08298433  1
  O  O86  1  0.77025067  0.54891533  0.08298433  1
  O  O87  1  0.33698067  0.98965933  0.91522333  1
  O  O88  1  0.88224867  0.44533133  0.58368233  1
  O  O89  1  0.56308267  0.11775133  0.58368233  1
  O  O90  1  0.99635267  0.67700733  0.75144333  1
  O  O91  1  0.68065467  0.00364733  0.75144333  1
  O  O92  1  0.32299267  0.31934533  0.75144333  1
  O  O93  1  0.12625167  0.53905733  0.77357133  1
  O  O94  1  0.65267867  0.66301933  0.91522333  1
  O  O95  1  0.01034067  0.34732133  0.91522333  1
  O  O96  1  0.92052767  0.79291833  0.89309533  1
  O  O97  1  0.87239067  0.07947233  0.89309533  1
  O  O98  1  0.20708167  0.12760933  0.89309533  1
  O  O99  1  0.41280567  0.87374833  0.77357133  1
  O  O100  1  0.46094267  0.58719433  0.77357133  1
  O  O101  1  0.59018967  0.12666233  0.93648733  1
  O  O102  1  0.20313933  0.74314367  0.26982067  1
  O  O103  1  0.12666233  0.53647267  0.06351267  1
  O  O104  1  0.46352733  0.59018967  0.06351267  1
  O  O105  1  0.40981033  0.87333767  0.06351267  1
  O  O106  1  0.54000433  0.79686067  0.26982067  1
  O  O107  1  0.22133533  0.77025067  0.91701567  1
  O  O108  1  0.44533133  0.56308267  0.41631767  1
  O  O109  1  0.11775133  0.55466867  0.41631767  1
  O  O110  1  0.43691733  0.88224867  0.41631767  1
  O  O111  1  0.00364733  0.32299267  0.24855667  1
  O  O112  1  0.54891533  0.77866467  0.91701567  1
  O  O113  1  0.22974933  0.45108467  0.91701567  1
  O  O114  1  0.66301933  0.01034067  0.08477667  1
  O  O115  1  0.34732133  0.33698067  0.08477667  1
  O  O116  1  0.98965933  0.65267867  0.08477667  1
  O  O117  1  0.79291833  0.87239067  0.10690467  1
  O  O118  1  0.31934533  0.99635267  0.24855667  1
  O  O119  1  0.67700733  0.68065467  0.24855667  1
  O  O120  1  0.58719433  0.12625167  0.22642867  1
  O  O121  1  0.53905733  0.41280567  0.22642867  1
  O  O122  1  0.87374833  0.46094267  0.22642867  1
  O  O123  1  0.07947233  0.20708167  0.10690467  1
  O  O124  1  0.12760933  0.92052767  0.10690467  1
  O  O125  1  0.25685633  0.45999567  0.26982067  1
