# generated using pymatgen
data_NaCoP2HO7
_symmetry_space_group_name_H-M   'P 1'
_cell_length_a   6.54545265
_cell_length_b   6.61979145
_cell_length_c   6.68756582
_cell_angle_alpha   95.69886263
_cell_angle_beta   112.17712453
_cell_angle_gamma   88.94990971
_symmetry_Int_Tables_number   1
_chemical_formula_structural   NaCoP2HO7
_chemical_formula_sum   'Na2 Co2 P4 H2 O14'
_cell_volume   266.94844369
_cell_formula_units_Z   2
loop_
 _symmetry_equiv_pos_site_id
 _symmetry_equiv_pos_as_xyz
  1  'x, y, z'
loop_
 _atom_site_type_symbol
 _atom_site_label
 _atom_site_symmetry_multiplicity
 _atom_site_fract_x
 _atom_site_fract_y
 _atom_site_fract_z
 _atom_site_occupancy
  Na  Na0  1  0.76592550  0.87795050  0.75281300  1
  Na  Na1  1  0.23407450  0.12204950  0.24718700  1
  Co  Co2  1  0.71522550  0.35426550  0.11176800  1
  Co  Co3  1  0.28477450  0.64573450  0.88823200  1
  P  P4  1  0.74683600  0.85486500  0.21769000  1
  P  P5  1  0.25316400  0.14513500  0.78231000  1
  P  P6  1  0.83248150  0.37994250  0.63717800  1
  P  P7  1  0.16751850  0.62005750  0.36282200  1
  H  H8  1  0.45291450  0.80243950  0.31013450  1
  H  H9  1  0.54708550  0.19756050  0.68986550  1
  O  O10  1  0.98408450  0.78518550  0.37743100  1
  O  O11  1  0.01591550  0.21481450  0.62256900  1
  O  O12  1  0.78756300  0.03451600  0.11075800  1
  O  O13  1  0.21243700  0.96548400  0.88924200  1
  O  O14  1  0.95411300  0.57664400  0.75665900  1
  O  O15  1  0.04588700  0.42335600  0.24334100  1
  O  O16  1  0.63477400  0.67241700  0.05071850  1
  O  O17  1  0.36522600  0.32758300  0.94928150  1
  O  O18  1  0.67389000  0.38694500  0.40521150  1
  O  O19  1  0.32611000  0.61305500  0.59478850  1
  O  O20  1  0.61982800  0.90728100  0.36979850  1
  O  O21  1  0.38017200  0.09271900  0.63020150  1
  O  O22  1  0.72172650  0.28534650  0.77782850  1
  O  O23  1  0.27827350  0.71465350  0.22217150  1
