# generated using pymatgen
data_PdSe2O5
_symmetry_space_group_name_H-M   'P 1'
_cell_length_a   12.68641600
_cell_length_b   5.89836200
_cell_length_c   7.48924226
_cell_angle_alpha   90.00000000
_cell_angle_beta   106.91075331
_cell_angle_gamma   90.00000000
_symmetry_Int_Tables_number   1
_chemical_formula_structural   PdSe2O5
_chemical_formula_sum   'Pd4 Se8 O20'
_cell_volume   536.18024720
_cell_formula_units_Z   4
loop_
 _symmetry_equiv_pos_site_id
 _symmetry_equiv_pos_as_xyz
  1  'x, y, z'
loop_
 _atom_site_type_symbol
 _atom_site_label
 _atom_site_symmetry_multiplicity
 _atom_site_fract_x
 _atom_site_fract_y
 _atom_site_fract_z
 _atom_site_occupancy
  Pd  Pd0  1  0.00000000  0.00000000  0.50000000  1
  Pd  Pd1  1  0.00000000  0.00000000  0.00000000  1
  Pd  Pd2  1  0.50000000  0.50000000  0.50000000  1
  Pd  Pd3  1  0.50000000  0.50000000  0.00000000  1
  Se  Se4  1  0.63415300  0.11206700  0.31536300  1
  Se  Se5  1  0.86584700  0.61206700  0.18463700  1
  Se  Se6  1  0.63415300  0.88793300  0.81536300  1
  Se  Se7  1  0.86584700  0.38793300  0.68463700  1
  Se  Se8  1  0.13415300  0.61206700  0.31536300  1
  Se  Se9  1  0.36584700  0.11206700  0.18463700  1
  Se  Se10  1  0.13415300  0.38793300  0.81536300  1
  Se  Se11  1  0.36584700  0.88793300  0.68463700  1
  O  O12  1  0.62506750  0.71740150  0.62727300  1
  O  O13  1  0.87493250  0.21740150  0.87272700  1
  O  O14  1  0.87493250  0.78259850  0.37272700  1
  O  O15  1  0.62506750  0.28259850  0.12727300  1
  O  O16  1  0.00000000  0.53085700  0.75000000  1
  O  O17  1  0.00000000  0.46914300  0.25000000  1
  O  O18  1  0.62478950  0.27980250  0.49744700  1
  O  O19  1  0.87521050  0.77980250  0.00255300  1
  O  O20  1  0.87521050  0.22019750  0.50255300  1
  O  O21  1  0.62478950  0.72019750  0.99744700  1
  O  O22  1  0.12506750  0.21740150  0.62727300  1
  O  O23  1  0.37493250  0.71740150  0.87272700  1
  O  O24  1  0.37493250  0.28259850  0.37272700  1
  O  O25  1  0.12506750  0.78259850  0.12727300  1
  O  O26  1  0.50000000  0.03085700  0.75000000  1
  O  O27  1  0.50000000  0.96914300  0.25000000  1
  O  O28  1  0.12478950  0.77980250  0.49744700  1
  O  O29  1  0.37521050  0.27980250  0.00255300  1
  O  O30  1  0.37521050  0.72019750  0.50255300  1
  O  O31  1  0.12478950  0.22019750  0.99744700  1
