# generated using pymatgen
data_Ca3Ti2O7
_symmetry_space_group_name_H-M   'P 1'
_cell_length_a   5.46304200
_cell_length_b   19.47558600
_cell_length_c   5.53728700
_cell_angle_alpha   90.00000000
_cell_angle_beta   90.00000000
_cell_angle_gamma   90.00000000
_symmetry_Int_Tables_number   1
_chemical_formula_structural   Ca3Ti2O7
_chemical_formula_sum   'Ca12 Ti8 O28'
_cell_volume   589.14487918
_cell_formula_units_Z   4
loop_
 _symmetry_equiv_pos_site_id
 _symmetry_equiv_pos_as_xyz
  1  'x, y, z'
loop_
 _atom_site_type_symbol
 _atom_site_label
 _atom_site_symmetry_multiplicity
 _atom_site_fract_x
 _atom_site_fract_y
 _atom_site_fract_z
 _atom_site_occupancy
  Ca  Ca0  1  0.25358600  0.00000000  0.03881600  1
  Ca  Ca1  1  0.74641400  0.00000000  0.53881600  1
  Ca  Ca2  1  0.24147300  0.68765500  0.45597700  1
  Ca  Ca3  1  0.25852700  0.81234500  0.95597700  1
  Ca  Ca4  1  0.74147300  0.81234500  0.45597700  1
  Ca  Ca5  1  0.75852700  0.68765500  0.95597700  1
  Ca  Ca6  1  0.75358600  0.50000000  0.03881600  1
  Ca  Ca7  1  0.24641400  0.50000000  0.53881600  1
  Ca  Ca8  1  0.74147300  0.18765500  0.45597700  1
  Ca  Ca9  1  0.75852700  0.31234500  0.95597700  1
  Ca  Ca10  1  0.24147300  0.31234500  0.45597700  1
  Ca  Ca11  1  0.25852700  0.18765500  0.95597700  1
  Ti  Ti12  1  0.75121800  0.60001500  0.48852300  1
  Ti  Ti13  1  0.74878200  0.89998500  0.98852300  1
  Ti  Ti14  1  0.24878200  0.60001500  0.98852300  1
  Ti  Ti15  1  0.25121800  0.89998500  0.48852300  1
  Ti  Ti16  1  0.25121800  0.10001500  0.48852300  1
  Ti  Ti17  1  0.24878200  0.39998500  0.98852300  1
  Ti  Ti18  1  0.74878200  0.10001500  0.98852300  1
  Ti  Ti19  1  0.75121800  0.39998500  0.48852300  1
  O  O20  1  0.04163950  0.88659650  0.21510300  1
  O  O21  1  0.45836050  0.61340350  0.71510300  1
  O  O22  1  0.95836050  0.88659650  0.71510300  1
  O  O23  1  0.54163950  0.61340350  0.21510300  1
  O  O24  1  0.53887100  0.91620500  0.29701600  1
  O  O25  1  0.96112900  0.58379500  0.79701600  1
  O  O26  1  0.46112900  0.91620500  0.79701600  1
  O  O27  1  0.03887100  0.58379500  0.29701600  1
  O  O28  1  0.68178200  0.80224900  0.02612900  1
  O  O29  1  0.81821800  0.69775100  0.52612900  1
  O  O30  1  0.82435000  0.00000000  0.98728800  1
  O  O31  1  0.17565000  0.00000000  0.48728800  1
  O  O32  1  0.18178200  0.69775100  0.02612900  1
  O  O33  1  0.31821800  0.80224900  0.52612900  1
  O  O34  1  0.54163950  0.38659650  0.21510300  1
  O  O35  1  0.95836050  0.11340350  0.71510300  1
  O  O36  1  0.45836050  0.38659650  0.71510300  1
  O  O37  1  0.04163950  0.11340350  0.21510300  1
  O  O38  1  0.03887100  0.41620500  0.29701600  1
  O  O39  1  0.46112900  0.08379500  0.79701600  1
  O  O40  1  0.96112900  0.41620500  0.79701600  1
  O  O41  1  0.53887100  0.08379500  0.29701600  1
  O  O42  1  0.18178200  0.30224900  0.02612900  1
  O  O43  1  0.31821800  0.19775100  0.52612900  1
  O  O44  1  0.32435000  0.50000000  0.98728800  1
  O  O45  1  0.67565000  0.50000000  0.48728800  1
  O  O46  1  0.68178200  0.19775100  0.02612900  1
  O  O47  1  0.81821800  0.30224900  0.52612900  1
