# generated using pymatgen
data_NaSbO3
_symmetry_space_group_name_H-M   'P 1'
_cell_length_a   5.38355383
_cell_length_b   5.38355383
_cell_length_c   16.25634588
_cell_angle_alpha   90.00000000
_cell_angle_beta   90.00000000
_cell_angle_gamma   120.00000000
_symmetry_Int_Tables_number   1
_chemical_formula_structural   NaSbO3
_chemical_formula_sum   'Na6 Sb6 O18'
_cell_volume   408.02961180
_cell_formula_units_Z   6
loop_
 _symmetry_equiv_pos_site_id
 _symmetry_equiv_pos_as_xyz
  1  'x, y, z'
loop_
 _atom_site_type_symbol
 _atom_site_label
 _atom_site_symmetry_multiplicity
 _atom_site_fract_x
 _atom_site_fract_y
 _atom_site_fract_z
 _atom_site_occupancy
  Na  Na0  1  0.33333333  0.66666667  0.02850167  1
  Na  Na1  1  0.33333333  0.66666667  0.30483167  1
  Na  Na2  1  0.00000000  0.00000000  0.36183500  1
  Na  Na3  1  0.00000000  0.00000000  0.63816500  1
  Na  Na4  1  0.66666667  0.33333333  0.69516833  1
  Na  Na5  1  0.66666667  0.33333333  0.97149833  1
  Sb  Sb6  1  0.00000000  0.00000000  0.16114300  1
  Sb  Sb7  1  0.66666667  0.33333333  0.17219033  1
  Sb  Sb8  1  0.66666667  0.33333333  0.49447633  1
  Sb  Sb9  1  0.33333333  0.66666667  0.50552367  1
  Sb  Sb10  1  0.33333333  0.66666667  0.82780967  1
  Sb  Sb11  1  0.00000000  0.00000000  0.83885700  1
  O  O12  1  0.94406233  0.65664867  0.09645067  1
  O  O13  1  0.71258633  0.05593767  0.09645067  1
  O  O14  1  0.34335133  0.28741367  0.09645067  1
  O  O15  1  0.72260433  0.67668467  0.23688267  1
  O  O16  1  0.32331533  0.04591967  0.23688267  1
  O  O17  1  0.95408033  0.27739567  0.23688267  1
  O  O18  1  0.61072900  0.98998200  0.42978400  1
  O  O19  1  0.37925300  0.38927100  0.42978400  1
  O  O20  1  0.01001800  0.62074700  0.42978400  1
  O  O21  1  0.38927100  0.01001800  0.57021600  1
  O  O22  1  0.98998200  0.37925300  0.57021600  1
  O  O23  1  0.62074700  0.61072900  0.57021600  1
  O  O24  1  0.27739567  0.32331533  0.76311733  1
  O  O25  1  0.04591967  0.72260433  0.76311733  1
  O  O26  1  0.67668467  0.95408033  0.76311733  1
  O  O27  1  0.05593767  0.34335133  0.90354933  1
  O  O28  1  0.65664867  0.71258633  0.90354933  1
  O  O29  1  0.28741367  0.94406233  0.90354933  1
