# generated using pymatgen
data_K4Ta2S11
_symmetry_space_group_name_H-M   'P 1'
_cell_length_a   7.56645000
_cell_length_b   13.52463200
_cell_length_c   18.43248800
_cell_angle_alpha   90.00000000
_cell_angle_beta   90.00000000
_cell_angle_gamma   90.00000000
_symmetry_Int_Tables_number   1
_chemical_formula_structural   K4Ta2S11
_chemical_formula_sum   'K16 Ta8 S44'
_cell_volume   1886.26012224
_cell_formula_units_Z   4
loop_
 _symmetry_equiv_pos_site_id
 _symmetry_equiv_pos_as_xyz
  1  'x, y, z'
loop_
 _atom_site_type_symbol
 _atom_site_label
 _atom_site_symmetry_multiplicity
 _atom_site_fract_x
 _atom_site_fract_y
 _atom_site_fract_z
 _atom_site_occupancy
  K  K0  1  0.32848900  0.77231200  0.56762000  1
  K  K1  1  0.67151100  0.22768800  0.06762000  1
  K  K2  1  0.67151100  0.27231200  0.56762000  1
  K  K3  1  0.32848900  0.72768800  0.06762000  1
  K  K4  1  0.20818000  0.71583100  0.32019900  1
  K  K5  1  0.79182000  0.28416900  0.82019900  1
  K  K6  1  0.79182000  0.21583100  0.32019900  1
  K  K7  1  0.21848200  0.46302200  0.67152500  1
  K  K8  1  0.18502200  0.09197700  0.46884500  1
  K  K9  1  0.81497800  0.90802300  0.96884500  1
  K  K10  1  0.81497800  0.59197700  0.46884500  1
  K  K11  1  0.18502200  0.40802300  0.96884500  1
  K  K12  1  0.20818000  0.78416900  0.82019900  1
  K  K13  1  0.78151800  0.96302200  0.67152500  1
  K  K14  1  0.78151800  0.53697800  0.17152500  1
  K  K15  1  0.21848200  0.03697800  0.17152500  1
  Ta  Ta16  1  0.25913000  0.05593700  0.91222200  1
  Ta  Ta17  1  0.74087000  0.94406300  0.41222200  1
  Ta  Ta18  1  0.74087000  0.55593700  0.91222200  1
  Ta  Ta19  1  0.25913000  0.44406300  0.41222200  1
  Ta  Ta20  1  0.19847400  0.11738000  0.73071700  1
  Ta  Ta21  1  0.80152600  0.88262000  0.23071700  1
  Ta  Ta22  1  0.80152600  0.61738000  0.73071700  1
  Ta  Ta23  1  0.19847400  0.38262000  0.23071700  1
  S  S24  1  0.26013900  0.17074600  0.01980400  1
  S  S25  1  0.73986100  0.82925400  0.51980400  1
  S  S26  1  0.73986100  0.67074600  0.01980400  1
  S  S27  1  0.26013900  0.32925400  0.51980400  1
  S  S28  1  0.24580400  0.95628900  0.67237400  1
  S  S29  1  0.75419600  0.04371100  0.17237400  1
  S  S30  1  0.75419600  0.45628900  0.67237400  1
  S  S31  1  0.24580400  0.54371100  0.17237400  1
  S  S32  1  0.02951400  0.48532900  0.31977000  1
  S  S33  1  0.97048600  0.51467100  0.81977000  1
  S  S34  1  0.97048600  0.98532900  0.31977000  1
  S  S35  1  0.02951400  0.01467100  0.81977000  1
  S  S36  1  0.22131100  0.26507600  0.33521400  1
  S  S37  1  0.77868900  0.73492400  0.83521400  1
  S  S38  1  0.77868900  0.76507600  0.33521400  1
  S  S39  1  0.22131100  0.23492400  0.83521400  1
  S  S40  1  0.96682100  0.31691200  0.17040800  1
  S  S41  1  0.60778300  0.57076600  0.62528200  1
  S  S42  1  0.03317900  0.81691200  0.17040800  1
  S  S43  1  0.96682100  0.18308800  0.67040800  1
  S  S44  1  0.46429100  0.48239800  0.31058500  1
  S  S45  1  0.53570900  0.51760200  0.81058500  1
  S  S46  1  0.53570900  0.98239800  0.31058500  1
  S  S47  1  0.46429100  0.01760200  0.81058500  1
  S  S48  1  0.25462300  0.58862600  0.47329400  1
  S  S49  1  0.74537700  0.41137400  0.97329400  1
  S  S50  1  0.74537700  0.08862600  0.47329400  1
  S  S51  1  0.25462300  0.91137400  0.97329400  1
  S  S52  1  0.39221700  0.42923400  0.12528200  1
  S  S53  1  0.01765600  0.15225900  0.96766400  1
  S  S54  1  0.60778300  0.92923400  0.12528200  1
  S  S55  1  0.39221700  0.07076600  0.62528200  1
  S  S56  1  0.57546700  0.40611100  0.39791500  1
  S  S57  1  0.42453300  0.59388900  0.89791500  1
  S  S58  1  0.42453300  0.90611100  0.39791500  1
  S  S59  1  0.57546700  0.09388900  0.89791500  1
  S  S60  1  0.39519100  0.23987000  0.24899300  1
  S  S61  1  0.60480900  0.76013000  0.74899300  1
  S  S62  1  0.60480900  0.73987000  0.24899300  1
  S  S63  1  0.39519100  0.26013000  0.74899300  1
  S  S64  1  0.01765600  0.34774100  0.46766400  1
  S  S65  1  0.98234400  0.65225900  0.96766400  1
  S  S66  1  0.98234400  0.84774100  0.46766400  1
  S  S67  1  0.03317900  0.68308800  0.67040800  1
