# generated using pymatgen
data_TlSbTe2
_symmetry_space_group_name_H-M   'P 1'
_cell_length_a   4.50237223
_cell_length_b   4.50237223
_cell_length_c   23.69617614
_cell_angle_alpha   90.00000000
_cell_angle_beta   90.00000000
_cell_angle_gamma   120.00000000
_symmetry_Int_Tables_number   1
_chemical_formula_structural   TlSbTe2
_chemical_formula_sum   'Tl3 Sb3 Te6'
_cell_volume   415.99843278
_cell_formula_units_Z   3
loop_
 _symmetry_equiv_pos_site_id
 _symmetry_equiv_pos_as_xyz
  1  'x, y, z'
loop_
 _atom_site_type_symbol
 _atom_site_label
 _atom_site_symmetry_multiplicity
 _atom_site_fract_x
 _atom_site_fract_y
 _atom_site_fract_z
 _atom_site_occupancy
  Tl  Tl0  1  0.00000000  0.00000000  0.00000000  1
  Tl  Tl1  1  0.66666667  0.33333333  0.33333333  1
  Tl  Tl2  1  0.33333333  0.66666667  0.66666667  1
  Sb  Sb3  1  0.33333333  0.66666667  0.16666667  1
  Sb  Sb4  1  1.00000000  1.00000000  0.50000000  1
  Sb  Sb5  1  0.66666667  0.33333333  0.83333333  1
  Te  Te6  1  0.00000000  0.00000000  0.23926100  1
  Te  Te7  1  0.66666667  0.33333333  0.09407233  1
  Te  Te8  1  0.66666667  0.33333333  0.57259433  1
  Te  Te9  1  0.33333333  0.66666667  0.42740567  1
  Te  Te10  1  0.33333333  0.66666667  0.90592767  1
  Te  Te11  1  0.00000000  0.00000000  0.76073900  1
