# generated using pymatgen
data_LiCo2P4H3O14
_symmetry_space_group_name_H-M   'P 1'
_cell_length_a   11.08760200
_cell_length_b   13.13370800
_cell_length_c   8.97774803
_cell_angle_alpha   90.00000000
_cell_angle_beta   122.96640206
_cell_angle_gamma   90.00000000
_symmetry_Int_Tables_number   1
_chemical_formula_structural   LiCo2P4H3O14
_chemical_formula_sum   'Li4 Co8 P16 H12 O56'
_cell_volume   1096.85463913
_cell_formula_units_Z   4
loop_
 _symmetry_equiv_pos_site_id
 _symmetry_equiv_pos_as_xyz
  1  'x, y, z'
loop_
 _atom_site_type_symbol
 _atom_site_label
 _atom_site_symmetry_multiplicity
 _atom_site_fract_x
 _atom_site_fract_y
 _atom_site_fract_z
 _atom_site_occupancy
  Li  Li0  1  0.49504950  0.35816550  0.24190600  1
  Li  Li1  1  0.49504950  0.64183450  0.74190600  1
  Li  Li2  1  0.99504950  0.85816550  0.24190600  1
  Li  Li3  1  0.99504950  0.14183450  0.74190600  1
  Co  Co4  1  0.49967950  0.40748950  0.75193200  1
  Co  Co5  1  0.74727250  0.24887950  0.00361500  1
  Co  Co6  1  0.74727250  0.75112050  0.50361500  1
  Co  Co7  1  0.49967950  0.59251050  0.25193200  1
  Co  Co8  1  0.99967950  0.90748950  0.75193200  1
  Co  Co9  1  0.24727250  0.74887950  0.00361500  1
  Co  Co10  1  0.24727250  0.25112050  0.50361500  1
  Co  Co11  1  0.99967950  0.09251050  0.25193200  1
  P  P12  1  0.42939250  0.21596650  0.93550900  1
  P  P13  1  0.22424050  0.04718650  0.68870900  1
  P  P14  1  0.56847700  0.21324000  0.57158200  1
  P  P15  1  0.22424050  0.95281350  0.18870900  1
  P  P16  1  0.77603050  0.04604050  0.81310300  1
  P  P17  1  0.42939250  0.78403350  0.43550900  1
  P  P18  1  0.77603050  0.95395950  0.31310300  1
  P  P19  1  0.56847700  0.78676000  0.07158200  1
  P  P20  1  0.92939250  0.71596650  0.93550900  1
  P  P21  1  0.72424050  0.54718650  0.68870900  1
  P  P22  1  0.06847700  0.71324000  0.57158200  1
  P  P23  1  0.72424050  0.45281350  0.18870900  1
  P  P24  1  0.27603050  0.54604050  0.81310300  1
  P  P25  1  0.92939250  0.28403350  0.43550900  1
  P  P26  1  0.27603050  0.45395950  0.31310300  1
  P  P27  1  0.06847700  0.28676000  0.07158200  1
  H  H28  1  0.33631750  0.10105750  0.29559500  1
  H  H29  1  0.33631750  0.89894250  0.79559500  1
  H  H30  1  0.72508200  0.25318900  0.49442200  1
  H  H31  1  0.66216900  0.10243800  0.20232700  1
  H  H32  1  0.66216900  0.89756200  0.70232700  1
  H  H33  1  0.72508200  0.74681100  0.99442200  1
  H  H34  1  0.83631750  0.60105750  0.29559500  1
  H  H35  1  0.83631750  0.39894250  0.79559500  1
  H  H36  1  0.22508200  0.75318900  0.49442200  1
  H  H37  1  0.16216900  0.60243800  0.20232700  1
  H  H38  1  0.16216900  0.39756200  0.70232700  1
  H  H39  1  0.22508200  0.24681100  0.99442200  1
  O  O40  1  0.38706400  0.28336100  0.77302700  1
  O  O41  1  0.09870100  0.03071800  0.70865900  1
  O  O42  1  0.18416150  0.10523350  0.51990000  1
  O  O43  1  0.34346600  0.10945900  0.85767300  1
  O  O44  1  0.61464950  0.28272350  0.73031800  1
  O  O45  1  0.40955000  0.18840800  0.46194700  1
  O  O46  1  0.38064550  0.25857950  0.05202400  1
  O  O47  1  0.09870100  0.96928200  0.20865900  1
  O  O48  1  0.61527300  0.25847800  0.44809000  1
  O  O49  1  0.30027000  0.94646200  0.69161000  1
  O  O50  1  0.30027000  0.05353800  0.19161000  1
  O  O51  1  0.65667700  0.10918200  0.64182200  1
  O  O52  1  0.81540900  0.10497500  0.98042200  1
  O  O53  1  0.40955000  0.81159200  0.96194700  1
  O  O54  1  0.58923550  0.18733350  0.03828200  1
  O  O55  1  0.18416150  0.89476650  0.01990000  1
  O  O56  1  0.34346600  0.89054100  0.35767300  1
  O  O57  1  0.69793200  0.94610200  0.80638800  1
  O  O58  1  0.69793200  0.05389800  0.30638800  1
  O  O59  1  0.38064550  0.74142050  0.55202400  1
  O  O60  1  0.90075600  0.03082900  0.79143700  1
  O  O61  1  0.61527300  0.74152200  0.94809000  1
  O  O62  1  0.58923550  0.81266650  0.53828200  1
  O  O63  1  0.38706400  0.71663900  0.27302700  1
  O  O64  1  0.65667700  0.89081800  0.14182200  1
  O  O65  1  0.81540900  0.89502500  0.48042200  1
  O  O66  1  0.90075600  0.96917100  0.29143700  1
  O  O67  1  0.61464950  0.71727650  0.23031800  1
  O  O68  1  0.88706400  0.78336100  0.77302700  1
  O  O69  1  0.59870100  0.53071800  0.70865900  1
  O  O70  1  0.68416150  0.60523350  0.51990000  1
  O  O71  1  0.84346600  0.60945900  0.85767300  1
  O  O72  1  0.11464950  0.78272350  0.73031800  1
  O  O73  1  0.90955000  0.68840800  0.46194700  1
  O  O74  1  0.88064550  0.75857950  0.05202400  1
  O  O75  1  0.59870100  0.46928200  0.20865900  1
  O  O76  1  0.11527300  0.75847800  0.44809000  1
  O  O77  1  0.80027000  0.44646200  0.69161000  1
  O  O78  1  0.80027000  0.55353800  0.19161000  1
  O  O79  1  0.15667700  0.60918200  0.64182200  1
  O  O80  1  0.31540900  0.60497500  0.98042200  1
  O  O81  1  0.90955000  0.31159200  0.96194700  1
  O  O82  1  0.08923550  0.68733350  0.03828200  1
  O  O83  1  0.68416150  0.39476650  0.01990000  1
  O  O84  1  0.84346600  0.39054100  0.35767300  1
  O  O85  1  0.19793200  0.44610200  0.80638800  1
  O  O86  1  0.19793200  0.55389800  0.30638800  1
  O  O87  1  0.88064550  0.24142050  0.55202400  1
  O  O88  1  0.40075600  0.53082900  0.79143700  1
  O  O89  1  0.11527300  0.24152200  0.94809000  1
  O  O90  1  0.08923550  0.31266650  0.53828200  1
  O  O91  1  0.88706400  0.21663900  0.27302700  1
  O  O92  1  0.15667700  0.39081800  0.14182200  1
  O  O93  1  0.31540900  0.39502500  0.48042200  1
  O  O94  1  0.40075600  0.46917100  0.29143700  1
  O  O95  1  0.11464950  0.21727650  0.23031800  1
