# generated using pymatgen
data_CaSnF6
_symmetry_space_group_name_H-M   'P 1'
_cell_length_a   5.86601051
_cell_length_b   5.86601051
_cell_length_c   14.81984292
_cell_angle_alpha   90.00000000
_cell_angle_beta   90.00000000
_cell_angle_gamma   120.00000000
_symmetry_Int_Tables_number   1
_chemical_formula_structural   CaSnF6
_chemical_formula_sum   'Ca3 Sn3 F18'
_cell_volume   441.63136013
_cell_formula_units_Z   3
loop_
 _symmetry_equiv_pos_site_id
 _symmetry_equiv_pos_as_xyz
  1  'x, y, z'
loop_
 _atom_site_type_symbol
 _atom_site_label
 _atom_site_symmetry_multiplicity
 _atom_site_fract_x
 _atom_site_fract_y
 _atom_site_fract_z
 _atom_site_occupancy
  Ca  Ca0  1  0.00000000  0.00000000  0.00000000  1
  Ca  Ca1  1  0.66666667  0.33333333  0.33333333  1
  Ca  Ca2  1  0.33333333  0.66666667  0.66666667  1
  Sn  Sn3  1  0.33333333  0.66666667  0.16666667  1
  Sn  Sn4  1  1.00000000  0.00000000  0.50000000  1
  Sn  Sn5  1  0.66666667  0.33333333  0.83333333  1
  F  F6  1  0.41723333  0.97732767  0.24466267  1
  F  F7  1  0.56009433  0.58276667  0.24466267  1
  F  F8  1  0.64399433  0.89342767  0.08867067  1
  F  F9  1  0.10657233  0.75056667  0.08867067  1
  F  F10  1  0.24943333  0.35600567  0.08867067  1
  F  F11  1  0.02267233  0.43990567  0.24466267  1
  F  F12  1  0.08390000  0.31066100  0.57799600  1
  F  F13  1  0.22676100  0.91610000  0.57799600  1
  F  F14  1  0.31066100  0.22676100  0.42200400  1
  F  F15  1  0.77323900  0.08390000  0.42200400  1
  F  F16  1  0.91610000  0.68933900  0.42200400  1
  F  F17  1  0.68933900  0.77323900  0.57799600  1
  F  F18  1  0.75056667  0.64399433  0.91132933  1
  F  F19  1  0.89342767  0.24943333  0.91132933  1
  F  F20  1  0.97732767  0.56009433  0.75533733  1
  F  F21  1  0.43990567  0.41723333  0.75533733  1
  F  F22  1  0.58276667  0.02267233  0.75533733  1
  F  F23  1  0.35600567  0.10657233  0.91132933  1
