# generated using pymatgen
data_Ga2HgSe4
_symmetry_space_group_name_H-M   'P 1'
_cell_length_a   5.88059400
_cell_length_b   5.88059400
_cell_length_c   11.02210800
_cell_angle_alpha   90.00000000
_cell_angle_beta   90.00000000
_cell_angle_gamma   90.00000000
_symmetry_Int_Tables_number   1
_chemical_formula_structural   Ga2HgSe4
_chemical_formula_sum   'Ga4 Hg2 Se8'
_cell_volume   381.15976900
_cell_formula_units_Z   2
loop_
 _symmetry_equiv_pos_site_id
 _symmetry_equiv_pos_as_xyz
  1  'x, y, z'
loop_
 _atom_site_type_symbol
 _atom_site_label
 _atom_site_symmetry_multiplicity
 _atom_site_fract_x
 _atom_site_fract_y
 _atom_site_fract_z
 _atom_site_occupancy
  Ga  Ga0  1  0.50000000  0.50000000  0.00000000  1
  Ga  Ga1  1  0.50000000  0.00000000  0.25000000  1
  Ga  Ga2  1  0.00000000  0.00000000  0.50000000  1
  Ga  Ga3  1  0.00000000  0.50000000  0.75000000  1
  Hg  Hg4  1  0.00000000  0.00000000  0.00000000  1
  Hg  Hg5  1  0.50000000  0.50000000  0.50000000  1
  Se  Se6  1  0.26285050  0.72506950  0.13903050  1
  Se  Se7  1  0.73714950  0.27493050  0.13903050  1
  Se  Se8  1  0.77493050  0.76285050  0.36096950  1
  Se  Se9  1  0.22506950  0.23714950  0.36096950  1
  Se  Se10  1  0.76285050  0.22506950  0.63903050  1
  Se  Se11  1  0.23714950  0.77493050  0.63903050  1
  Se  Se12  1  0.27493050  0.26285050  0.86096950  1
  Se  Se13  1  0.72506950  0.73714950  0.86096950  1
