# generated using pymatgen
data_Na6Sn2S7
_symmetry_space_group_name_H-M   'P 1'
_cell_length_a   9.57065600
_cell_length_b   10.81811400
_cell_length_c   15.34021656
_cell_angle_alpha   90.00000000
_cell_angle_beta   105.03691838
_cell_angle_gamma   90.00000000
_symmetry_Int_Tables_number   1
_chemical_formula_structural   Na6Sn2S7
_chemical_formula_sum   'Na24 Sn8 S28'
_cell_volume   1533.88729530
_cell_formula_units_Z   4
loop_
 _symmetry_equiv_pos_site_id
 _symmetry_equiv_pos_as_xyz
  1  'x, y, z'
loop_
 _atom_site_type_symbol
 _atom_site_label
 _atom_site_symmetry_multiplicity
 _atom_site_fract_x
 _atom_site_fract_y
 _atom_site_fract_z
 _atom_site_occupancy
  Na  Na0  1  0.59508700  0.64374500  0.57267200  1
  Na  Na1  1  0.40491300  0.64374500  0.92732800  1
  Na  Na2  1  0.40491300  0.35625500  0.42732800  1
  Na  Na3  1  0.59508700  0.35625500  0.07267200  1
  Na  Na4  1  0.73279000  0.22907100  0.36357900  1
  Na  Na5  1  0.26721000  0.22907100  0.13642100  1
  Na  Na6  1  0.50000000  0.06841000  0.75000000  1
  Na  Na7  1  0.50000000  0.93159000  0.25000000  1
  Na  Na8  1  0.50000000  0.00000000  0.00000000  1
  Na  Na9  1  0.50000000  0.00000000  0.50000000  1
  Na  Na10  1  0.26721000  0.77092900  0.63642100  1
  Na  Na11  1  0.73279000  0.77092900  0.86357900  1
  Na  Na12  1  0.09508700  0.14374500  0.57267200  1
  Na  Na13  1  0.90491300  0.14374500  0.92732800  1
  Na  Na14  1  0.90491300  0.85625500  0.42732800  1
  Na  Na15  1  0.09508700  0.85625500  0.07267200  1
  Na  Na16  1  0.23279000  0.72907100  0.36357900  1
  Na  Na17  1  0.76721000  0.72907100  0.13642100  1
  Na  Na18  1  0.00000000  0.56841000  0.75000000  1
  Na  Na19  1  0.00000000  0.43159000  0.25000000  1
  Na  Na20  1  0.00000000  0.50000000  0.00000000  1
  Na  Na21  1  0.00000000  0.50000000  0.50000000  1
  Na  Na22  1  0.76721000  0.27092900  0.63642100  1
  Na  Na23  1  0.23279000  0.27092900  0.86357900  1
  Sn  Sn24  1  0.15939650  0.91113250  0.86262400  1
  Sn  Sn25  1  0.84060350  0.91113250  0.63737600  1
  Sn  Sn26  1  0.84060350  0.08886750  0.13737600  1
  Sn  Sn27  1  0.15939650  0.08886750  0.36262400  1
  Sn  Sn28  1  0.65939650  0.41113250  0.86262400  1
  Sn  Sn29  1  0.34060350  0.41113250  0.63737600  1
  Sn  Sn30  1  0.34060350  0.58886750  0.13737600  1
  Sn  Sn31  1  0.65939650  0.58886750  0.36262400  1
  S  S32  1  0.54112900  0.77018200  0.39635600  1
  S  S33  1  0.45887100  0.22981800  0.60364400  1
  S  S34  1  0.79532300  0.93828700  0.01688300  1
  S  S35  1  0.20467700  0.93828700  0.48311700  1
  S  S36  1  0.20467700  0.06171300  0.98311700  1
  S  S37  1  0.79532300  0.06171300  0.51688300  1
  S  S38  1  0.62411250  0.86423950  0.68122900  1
  S  S39  1  0.37588750  0.86423950  0.81877100  1
  S  S40  1  0.37588750  0.13576050  0.31877100  1
  S  S41  1  0.62411250  0.13576050  0.18122900  1
  S  S42  1  0.50000000  0.54609600  0.75000000  1
  S  S43  1  0.50000000  0.45390400  0.25000000  1
  S  S44  1  0.54112900  0.22981800  0.89635600  1
  S  S45  1  0.45887100  0.77018200  0.10364400  1
  S  S46  1  0.04112900  0.27018200  0.39635600  1
  S  S47  1  0.95887100  0.72981800  0.60364400  1
  S  S48  1  0.29532300  0.43828700  0.01688300  1
  S  S49  1  0.70467700  0.43828700  0.48311700  1
  S  S50  1  0.70467700  0.56171300  0.98311700  1
  S  S51  1  0.29532300  0.56171300  0.51688300  1
  S  S52  1  0.12411250  0.36423950  0.68122900  1
  S  S53  1  0.87588750  0.36423950  0.81877100  1
  S  S54  1  0.87588750  0.63576050  0.31877100  1
  S  S55  1  0.12411250  0.63576050  0.18122900  1
  S  S56  1  0.00000000  0.04609600  0.75000000  1
  S  S57  1  0.00000000  0.95390400  0.25000000  1
  S  S58  1  0.04112900  0.72981800  0.89635600  1
  S  S59  1  0.95887100  0.27018200  0.10364400  1
