# generated using pymatgen
data_Nb2F5
_symmetry_space_group_name_H-M   'P 1'
_cell_length_a   8.35755800
_cell_length_b   8.35755800
_cell_length_c   8.35755800
_cell_angle_alpha   90.00000000
_cell_angle_beta   90.00000000
_cell_angle_gamma   90.00000000
_symmetry_Int_Tables_number   1
_chemical_formula_structural   Nb2F5
_chemical_formula_sum   'Nb12 F30'
_cell_volume   583.76519434
_cell_formula_units_Z   6
loop_
 _symmetry_equiv_pos_site_id
 _symmetry_equiv_pos_as_xyz
  1  'x, y, z'
loop_
 _atom_site_type_symbol
 _atom_site_label
 _atom_site_symmetry_multiplicity
 _atom_site_fract_x
 _atom_site_fract_y
 _atom_site_fract_z
 _atom_site_occupancy
  Nb  Nb0  1  0.00000000  0.00000000  0.23936800  1
  Nb  Nb1  1  0.23936800  0.00000000  0.00000000  1
  Nb  Nb2  1  0.76063200  0.00000000  0.00000000  1
  Nb  Nb3  1  0.00000000  0.76063200  0.00000000  1
  Nb  Nb4  1  0.00000000  0.23936800  0.00000000  1
  Nb  Nb5  1  0.00000000  0.00000000  0.76063200  1
  Nb  Nb6  1  0.50000000  0.50000000  0.73936800  1
  Nb  Nb7  1  0.73936800  0.50000000  0.50000000  1
  Nb  Nb8  1  0.26063200  0.50000000  0.50000000  1
  Nb  Nb9  1  0.50000000  0.26063200  0.50000000  1
  Nb  Nb10  1  0.50000000  0.73936800  0.50000000  1
  Nb  Nb11  1  0.50000000  0.50000000  0.26063200  1
  F  F12  1  0.50000000  0.00000000  0.00000000  1
  F  F13  1  0.00000000  0.50000000  0.00000000  1
  F  F14  1  0.00000000  0.00000000  0.50000000  1
  F  F15  1  0.24992700  0.50000000  0.75007300  1
  F  F16  1  0.50000000  0.24992700  0.75007300  1
  F  F17  1  0.24992700  0.75007300  0.50000000  1
  F  F18  1  0.75007300  0.50000000  0.24992700  1
  F  F19  1  0.50000000  0.24992700  0.24992700  1
  F  F20  1  0.50000000  0.75007300  0.24992700  1
  F  F21  1  0.25007300  0.25007300  0.00000000  1
  F  F22  1  0.75007300  0.24992700  0.50000000  1
  F  F23  1  0.24992700  0.50000000  0.24992700  1
  F  F24  1  0.25007300  0.00000000  0.25007300  1
  F  F25  1  0.24992700  0.24992700  0.50000000  1
  F  F26  1  0.00000000  0.25007300  0.25007300  1
  F  F27  1  0.00000000  0.50000000  0.50000000  1
  F  F28  1  0.50000000  0.00000000  0.50000000  1
  F  F29  1  0.50000000  0.50000000  0.00000000  1
  F  F30  1  0.74992700  0.00000000  0.25007300  1
  F  F31  1  0.00000000  0.74992700  0.25007300  1
  F  F32  1  0.74992700  0.25007300  0.00000000  1
  F  F33  1  0.25007300  0.00000000  0.74992700  1
  F  F34  1  0.00000000  0.74992700  0.74992700  1
  F  F35  1  0.00000000  0.25007300  0.74992700  1
  F  F36  1  0.75007300  0.75007300  0.50000000  1
  F  F37  1  0.25007300  0.74992700  0.00000000  1
  F  F38  1  0.74992700  0.00000000  0.74992700  1
  F  F39  1  0.75007300  0.50000000  0.75007300  1
  F  F40  1  0.74992700  0.74992700  0.00000000  1
  F  F41  1  0.50000000  0.75007300  0.75007300  1
