# generated using pymatgen
data_Na2SO4
_symmetry_space_group_name_H-M   'P 1'
_cell_length_a   5.93420400
_cell_length_b   9.95496000
_cell_length_c   12.46251000
_cell_angle_alpha   90.00000000
_cell_angle_beta   90.00000000
_cell_angle_gamma   90.00000000
_symmetry_Int_Tables_number   1
_chemical_formula_structural   Na2SO4
_chemical_formula_sum   'Na16 S8 O32'
_cell_volume   736.21983027
_cell_formula_units_Z   8
loop_
 _symmetry_equiv_pos_site_id
 _symmetry_equiv_pos_as_xyz
  1  'x, y, z'
loop_
 _atom_site_type_symbol
 _atom_site_label
 _atom_site_symmetry_multiplicity
 _atom_site_fract_x
 _atom_site_fract_y
 _atom_site_fract_z
 _atom_site_occupancy
  Na  Na0  1  0.50000000  0.31482600  0.00000000  1
  Na  Na1  1  0.50000000  0.68517400  0.00000000  1
  Na  Na2  1  0.75000000  0.56482600  0.25000000  1
  Na  Na3  1  0.75000000  0.93517400  0.25000000  1
  Na  Na4  1  0.50000000  0.81482600  0.50000000  1
  Na  Na5  1  0.50000000  0.18517400  0.50000000  1
  Na  Na6  1  0.75000000  0.06482600  0.75000000  1
  Na  Na7  1  0.75000000  0.43517400  0.75000000  1
  Na  Na8  1  0.00000000  0.31482600  0.50000000  1
  Na  Na9  1  0.00000000  0.68517400  0.50000000  1
  Na  Na10  1  0.25000000  0.56482600  0.75000000  1
  Na  Na11  1  0.25000000  0.93517400  0.75000000  1
  Na  Na12  1  0.00000000  0.81482600  0.00000000  1
  Na  Na13  1  0.00000000  0.18517400  0.00000000  1
  Na  Na14  1  0.25000000  0.06482600  0.25000000  1
  Na  Na15  1  0.25000000  0.43517400  0.25000000  1
  S  S16  1  0.50000000  0.00000000  0.00000000  1
  S  S17  1  0.75000000  0.25000000  0.25000000  1
  S  S18  1  0.50000000  0.50000000  0.50000000  1
  S  S19  1  0.75000000  0.75000000  0.75000000  1
  S  S20  1  0.00000000  0.00000000  0.50000000  1
  S  S21  1  0.25000000  0.25000000  0.75000000  1
  S  S22  1  0.00000000  0.50000000  0.00000000  1
  S  S23  1  0.25000000  0.75000000  0.25000000  1
  O  O24  1  0.89562000  0.33859100  0.31774300  1
  O  O25  1  0.89562000  0.16140900  0.18225700  1
  O  O26  1  0.60438000  0.33859100  0.18225700  1
  O  O27  1  0.60438000  0.16140900  0.31774300  1
  O  O28  1  0.85438000  0.91140900  0.43225700  1
  O  O29  1  0.35438000  0.08859100  0.06774300  1
  O  O30  1  0.14562000  0.08859100  0.43225700  1
  O  O31  1  0.64562000  0.91140900  0.06774300  1
  O  O32  1  0.89562000  0.83859100  0.81774300  1
  O  O33  1  0.89562000  0.66140900  0.68225700  1
  O  O34  1  0.60438000  0.83859100  0.68225700  1
  O  O35  1  0.60438000  0.66140900  0.81774300  1
  O  O36  1  0.85438000  0.41140900  0.93225700  1
  O  O37  1  0.35438000  0.58859100  0.56774300  1
  O  O38  1  0.14562000  0.58859100  0.93225700  1
  O  O39  1  0.64562000  0.41140900  0.56774300  1
  O  O40  1  0.39562000  0.33859100  0.81774300  1
  O  O41  1  0.39562000  0.16140900  0.68225700  1
  O  O42  1  0.10438000  0.33859100  0.68225700  1
  O  O43  1  0.10438000  0.16140900  0.81774300  1
  O  O44  1  0.35438000  0.91140900  0.93225700  1
  O  O45  1  0.85438000  0.08859100  0.56774300  1
  O  O46  1  0.64562000  0.08859100  0.93225700  1
  O  O47  1  0.14562000  0.91140900  0.56774300  1
  O  O48  1  0.39562000  0.83859100  0.31774300  1
  O  O49  1  0.39562000  0.66140900  0.18225700  1
  O  O50  1  0.10438000  0.83859100  0.18225700  1
  O  O51  1  0.10438000  0.66140900  0.31774300  1
  O  O52  1  0.35438000  0.41140900  0.43225700  1
  O  O53  1  0.85438000  0.58859100  0.06774300  1
  O  O54  1  0.64562000  0.58859100  0.43225700  1
  O  O55  1  0.14562000  0.41140900  0.06774300  1
