# generated using pymatgen
data_Sr2Sb2O7
_symmetry_space_group_name_H-M   'P 1'
_cell_length_a   7.57285200
_cell_length_b   7.79948400
_cell_length_c   10.52533400
_cell_angle_alpha   90.00000000
_cell_angle_beta   90.00000000
_cell_angle_gamma   90.00000000
_symmetry_Int_Tables_number   1
_chemical_formula_structural   Sr2Sb2O7
_chemical_formula_sum   'Sr8 Sb8 O28'
_cell_volume   621.67188503
_cell_formula_units_Z   4
loop_
 _symmetry_equiv_pos_site_id
 _symmetry_equiv_pos_as_xyz
  1  'x, y, z'
loop_
 _atom_site_type_symbol
 _atom_site_label
 _atom_site_symmetry_multiplicity
 _atom_site_fract_x
 _atom_site_fract_y
 _atom_site_fract_z
 _atom_site_occupancy
  Sr  Sr0  1  0.25000000  0.75000000  0.25000000  1
  Sr  Sr1  1  0.75000000  0.75000000  0.25000000  1
  Sr  Sr2  1  0.00000000  0.00000000  0.50000000  1
  Sr  Sr3  1  0.00000000  0.00000000  0.00000000  1
  Sr  Sr4  1  0.75000000  0.25000000  0.75000000  1
  Sr  Sr5  1  0.25000000  0.25000000  0.75000000  1
  Sr  Sr6  1  0.50000000  0.50000000  0.00000000  1
  Sr  Sr7  1  0.50000000  0.50000000  0.50000000  1
  Sb  Sb8  1  0.25000000  0.25000000  0.25000000  1
  Sb  Sb9  1  0.25000000  0.75000000  0.75000000  1
  Sb  Sb10  1  0.50000000  0.00000000  0.00000000  1
  Sb  Sb11  1  0.00000000  0.50000000  0.00000000  1
  Sb  Sb12  1  0.75000000  0.75000000  0.75000000  1
  Sb  Sb13  1  0.75000000  0.25000000  0.25000000  1
  Sb  Sb14  1  0.00000000  0.50000000  0.50000000  1
  Sb  Sb15  1  0.50000000  0.00000000  0.50000000  1
  O  O16  1  0.20465250  0.43207750  0.38116450  1
  O  O17  1  0.70465250  0.06792250  0.11883550  1
  O  O18  1  0.29534750  0.93207750  0.61883550  1
  O  O19  1  0.29534750  0.06792250  0.38116450  1
  O  O20  1  0.29534750  0.06792250  0.11883550  1
  O  O21  1  0.79534750  0.43207750  0.38116450  1
  O  O22  1  0.20465250  0.56792250  0.88116450  1
  O  O23  1  0.20465250  0.43207750  0.11883550  1
  O  O24  1  0.50000000  0.65191700  0.75000000  1
  O  O25  1  0.00000000  0.84808300  0.75000000  1
  O  O26  1  0.00000000  0.71870500  0.40841500  1
  O  O27  1  0.50000000  0.78129500  0.09158500  1
  O  O28  1  0.00000000  0.71870500  0.09158500  1
  O  O29  1  0.50000000  0.78129500  0.40841500  1
  O  O30  1  0.70465250  0.93207750  0.88116450  1
  O  O31  1  0.20465250  0.56792250  0.61883550  1
  O  O32  1  0.79534750  0.43207750  0.11883550  1
  O  O33  1  0.79534750  0.56792250  0.88116450  1
  O  O34  1  0.79534750  0.56792250  0.61883550  1
  O  O35  1  0.29534750  0.93207750  0.88116450  1
  O  O36  1  0.70465250  0.06792250  0.38116450  1
  O  O37  1  0.70465250  0.93207750  0.61883550  1
  O  O38  1  0.00000000  0.15191700  0.25000000  1
  O  O39  1  0.50000000  0.34808300  0.25000000  1
  O  O40  1  0.50000000  0.21870500  0.90841500  1
  O  O41  1  0.00000000  0.28129500  0.59158500  1
  O  O42  1  0.50000000  0.21870500  0.59158500  1
  O  O43  1  0.00000000  0.28129500  0.90841500  1
