# generated using pymatgen
data_Cs2RbZrOF5
_symmetry_space_group_name_H-M   'P 1'
_cell_length_a   6.81204600
_cell_length_b   6.81204600
_cell_length_c   9.70014400
_cell_angle_alpha   90.00000000
_cell_angle_beta   90.00000000
_cell_angle_gamma   90.00000000
_symmetry_Int_Tables_number   1
_chemical_formula_structural   Cs2RbZrOF5
_chemical_formula_sum   'Cs4 Rb2 Zr2 O2 F10'
_cell_volume   450.12519802
_cell_formula_units_Z   2
loop_
 _symmetry_equiv_pos_site_id
 _symmetry_equiv_pos_as_xyz
  1  'x, y, z'
loop_
 _atom_site_type_symbol
 _atom_site_label
 _atom_site_symmetry_multiplicity
 _atom_site_fract_x
 _atom_site_fract_y
 _atom_site_fract_z
 _atom_site_occupancy
  Cs  Cs0  1  0.50000000  0.00000000  0.24820700  1
  Cs  Cs1  1  0.00000000  0.50000000  0.24820700  1
  Cs  Cs2  1  0.00000000  0.50000000  0.74820700  1
  Cs  Cs3  1  0.50000000  0.00000000  0.74820700  1
  Rb  Rb4  1  0.50000000  0.50000000  0.00202800  1
  Rb  Rb5  1  0.00000000  0.00000000  0.50202800  1
  Zr  Zr6  1  0.50000000  0.50000000  0.48199400  1
  Zr  Zr7  1  0.00000000  0.00000000  0.98199400  1
  O  O8  1  0.50000000  0.50000000  0.28723300  1
  O  O9  1  0.00000000  0.00000000  0.78723300  1
  F  F10  1  0.78311950  0.21688050  0.00448450  1
  F  F11  1  0.21688050  0.21688050  0.00448450  1
  F  F12  1  0.78311950  0.78311950  0.00448450  1
  F  F13  1  0.00000000  0.00000000  0.21439400  1
  F  F14  1  0.21688050  0.78311950  0.00448450  1
  F  F15  1  0.28311950  0.71688050  0.50448450  1
  F  F16  1  0.71688050  0.71688050  0.50448450  1
  F  F17  1  0.28311950  0.28311950  0.50448450  1
  F  F18  1  0.50000000  0.50000000  0.71439400  1
  F  F19  1  0.71688050  0.28311950  0.50448450  1
