# generated using pymatgen
data_NaNbO3
_symmetry_space_group_name_H-M   'P 1'
_cell_length_a   7.85129400
_cell_length_b   7.93409200
_cell_length_c   7.94425600
_cell_angle_alpha   90.00000000
_cell_angle_beta   90.00000000
_cell_angle_gamma   90.00000000
_symmetry_Int_Tables_number   1
_chemical_formula_structural   NaNbO3
_chemical_formula_sum   'Na8 Nb8 O24'
_cell_volume   494.87065652
_cell_formula_units_Z   8
loop_
 _symmetry_equiv_pos_site_id
 _symmetry_equiv_pos_as_xyz
  1  'x, y, z'
loop_
 _atom_site_type_symbol
 _atom_site_label
 _atom_site_symmetry_multiplicity
 _atom_site_fract_x
 _atom_site_fract_y
 _atom_site_fract_z
 _atom_site_occupancy
  Na  Na0  1  0.50000000  0.01089600  0.75000000  1
  Na  Na1  1  0.50000000  0.98910400  0.25000000  1
  Na  Na2  1  0.50000000  0.50349500  0.75000000  1
  Na  Na3  1  0.50000000  0.49650500  0.25000000  1
  Na  Na4  1  0.00000000  0.51089600  0.75000000  1
  Na  Na5  1  0.00000000  0.48910400  0.25000000  1
  Na  Na6  1  0.00000000  0.00349500  0.75000000  1
  Na  Na7  1  0.00000000  0.99650500  0.25000000  1
  Nb  Nb8  1  0.25000000  0.25000000  0.00000000  1
  Nb  Nb9  1  0.25000000  0.25000000  0.50000000  1
  Nb  Nb10  1  0.25000000  0.75000000  0.00000000  1
  Nb  Nb11  1  0.25000000  0.75000000  0.50000000  1
  Nb  Nb12  1  0.75000000  0.75000000  0.00000000  1
  Nb  Nb13  1  0.75000000  0.75000000  0.50000000  1
  Nb  Nb14  1  0.75000000  0.25000000  0.00000000  1
  Nb  Nb15  1  0.75000000  0.25000000  0.50000000  1
  O  O16  1  0.70984150  0.75651650  0.25000000  1
  O  O17  1  0.29015850  0.24348350  0.75000000  1
  O  O18  1  0.70984150  0.24348350  0.75000000  1
  O  O19  1  0.29015850  0.75651650  0.25000000  1
  O  O20  1  0.50000000  0.20886500  0.03923300  1
  O  O21  1  0.50000000  0.79113500  0.53923300  1
  O  O22  1  0.50000000  0.79113500  0.96076700  1
  O  O23  1  0.50000000  0.20886500  0.46076700  1
  O  O24  1  0.20703400  0.00000000  0.50000000  1
  O  O25  1  0.79296600  0.00000000  0.00000000  1
  O  O26  1  0.79296600  0.00000000  0.50000000  1
  O  O27  1  0.20703400  0.00000000  0.00000000  1
  O  O28  1  0.20984150  0.25651650  0.25000000  1
  O  O29  1  0.79015850  0.74348350  0.75000000  1
  O  O30  1  0.20984150  0.74348350  0.75000000  1
  O  O31  1  0.79015850  0.25651650  0.25000000  1
  O  O32  1  0.00000000  0.70886500  0.03923300  1
  O  O33  1  0.00000000  0.29113500  0.53923300  1
  O  O34  1  0.00000000  0.29113500  0.96076700  1
  O  O35  1  0.00000000  0.70886500  0.46076700  1
  O  O36  1  0.70703400  0.50000000  0.50000000  1
  O  O37  1  0.29296600  0.50000000  0.00000000  1
  O  O38  1  0.29296600  0.50000000  0.50000000  1
  O  O39  1  0.70703400  0.50000000  0.00000000  1
