# generated using pymatgen
data_CrAgS2
_symmetry_space_group_name_H-M   'P 1'
_cell_length_a   3.53977723
_cell_length_b   3.53977723
_cell_length_c   20.45640488
_cell_angle_alpha   90.00000000
_cell_angle_beta   90.00000000
_cell_angle_gamma   120.00000000
_symmetry_Int_Tables_number   1
_chemical_formula_structural   CrAgS2
_chemical_formula_sum   'Cr3 Ag3 S6'
_cell_volume   221.97895565
_cell_formula_units_Z   3
loop_
 _symmetry_equiv_pos_site_id
 _symmetry_equiv_pos_as_xyz
  1  'x, y, z'
loop_
 _atom_site_type_symbol
 _atom_site_label
 _atom_site_symmetry_multiplicity
 _atom_site_fract_x
 _atom_site_fract_y
 _atom_site_fract_z
 _atom_site_occupancy
  Cr  Cr0  1  0.66666667  0.33333333  0.33339983  1
  Cr  Cr1  1  0.33333333  0.66666667  0.66673317  1
  Cr  Cr2  1  0.00000000  0.00000000  0.00006650  1
  Ag  Ag3  1  0.00000000  0.00000000  0.15390283  1
  Ag  Ag4  1  0.66666667  0.33333333  0.48723617  1
  Ag  Ag5  1  0.33333333  0.66666667  0.82056950  1
  S  S6  1  0.00000000  0.00000000  0.27298283  1
  S  S7  1  0.66666667  0.33333333  0.06565917  1
  S  S8  1  0.66666667  0.33333333  0.60631617  1
  S  S9  1  0.33333333  0.66666667  0.39899250  1
  S  S10  1  0.33333333  0.66666667  0.93964950  1
  S  S11  1  0.00000000  0.00000000  0.73232583  1
