# generated using pymatgen
data_Li2B4O7
_symmetry_space_group_name_H-M   'P 1'
_cell_length_a   9.58533000
_cell_length_b   9.58533000
_cell_length_c   10.80611800
_cell_angle_alpha   90.00000000
_cell_angle_beta   90.00000000
_cell_angle_gamma   90.00000000
_symmetry_Int_Tables_number   1
_chemical_formula_structural   Li2B4O7
_chemical_formula_sum   'Li16 B32 O56'
_cell_volume   992.85046603
_cell_formula_units_Z   8
loop_
 _symmetry_equiv_pos_site_id
 _symmetry_equiv_pos_as_xyz
  1  'x, y, z'
loop_
 _atom_site_type_symbol
 _atom_site_label
 _atom_site_symmetry_multiplicity
 _atom_site_fract_x
 _atom_site_fract_y
 _atom_site_fract_z
 _atom_site_occupancy
  Li  Li0  1  0.31942450  0.33515850  0.66227750  1
  Li  Li1  1  0.33515850  0.18057550  0.91227750  1
  Li  Li2  1  0.16484150  0.31942450  0.41227750  1
  Li  Li3  1  0.18057550  0.16484150  0.16227750  1
  Li  Li4  1  0.18057550  0.83515850  0.66227750  1
  Li  Li5  1  0.31942450  0.66484150  0.16227750  1
  Li  Li6  1  0.33515850  0.81942450  0.41227750  1
  Li  Li7  1  0.16484150  0.68057550  0.91227750  1
  Li  Li8  1  0.81942450  0.83515850  0.16227750  1
  Li  Li9  1  0.83515850  0.68057550  0.41227750  1
  Li  Li10  1  0.66484150  0.81942450  0.91227750  1
  Li  Li11  1  0.68057550  0.66484150  0.66227750  1
  Li  Li12  1  0.68057550  0.33515850  0.16227750  1
  Li  Li13  1  0.81942450  0.16484150  0.66227750  1
  Li  Li14  1  0.83515850  0.31942450  0.91227750  1
  Li  Li15  1  0.66484150  0.18057550  0.41227750  1
  B  B16  1  0.33114000  0.07897400  0.54766400  1
  B  B17  1  0.07897400  0.16886000  0.79766400  1
  B  B18  1  0.42102600  0.33114000  0.29766400  1
  B  B19  1  0.16886000  0.42102600  0.04766400  1
  B  B20  1  0.66886000  0.07897400  0.04766400  1
  B  B21  1  0.83114000  0.42102600  0.54766400  1
  B  B22  1  0.57897400  0.33114000  0.79766400  1
  B  B23  1  0.92102600  0.16886000  0.29766400  1
  B  B24  1  0.11337050  0.04741150  0.41509250  1
  B  B25  1  0.54741150  0.88662950  0.16509250  1
  B  B26  1  0.45258850  0.11337050  0.16509250  1
  B  B27  1  0.38662950  0.45258850  0.91509250  1
  B  B28  1  0.38662950  0.54741150  0.41509250  1
  B  B29  1  0.61337050  0.45258850  0.41509250  1
  B  B30  1  0.04741150  0.61337050  0.16509250  1
  B  B31  1  0.95258850  0.38662950  0.16509250  1
  B  B32  1  0.83114000  0.57897400  0.04766400  1
  B  B33  1  0.57897400  0.66886000  0.29766400  1
  B  B34  1  0.92102600  0.83114000  0.79766400  1
  B  B35  1  0.66886000  0.92102600  0.54766400  1
  B  B36  1  0.16886000  0.57897400  0.54766400  1
  B  B37  1  0.33114000  0.92102600  0.04766400  1
  B  B38  1  0.07897400  0.83114000  0.29766400  1
  B  B39  1  0.42102600  0.66886000  0.79766400  1
  B  B40  1  0.61337050  0.54741150  0.91509250  1
  B  B41  1  0.04741150  0.38662950  0.66509250  1
  B  B42  1  0.95258850  0.61337050  0.66509250  1
  B  B43  1  0.88662950  0.95258850  0.41509250  1
  B  B44  1  0.88662950  0.04741150  0.91509250  1
  B  B45  1  0.11337050  0.95258850  0.91509250  1
  B  B46  1  0.54741150  0.11337050  0.66509250  1
  B  B47  1  0.45258850  0.88662950  0.66509250  1
  O  O48  1  0.22118950  0.12745650  0.47987850  1
  O  O49  1  0.62745650  0.77881050  0.22987850  1
  O  O50  1  0.37254350  0.22118950  0.22987850  1
  O  O51  1  0.27881050  0.37254350  0.97987850  1
  O  O52  1  0.77881050  0.12745650  0.97987850  1
  O  O53  1  0.72118950  0.37254350  0.47987850  1
  O  O54  1  0.12745650  0.72118950  0.22987850  1
  O  O55  1  0.87254350  0.27881050  0.22987850  1
  O  O56  1  0.92570250  0.67409850  0.09436850  1
  O  O57  1  0.67409850  0.57429750  0.34436850  1
  O  O58  1  0.32590150  0.42570250  0.34436850  1
  O  O59  1  0.07429750  0.32590150  0.09436850  1
  O  O60  1  0.57429750  0.17409850  0.09436850  1
  O  O61  1  0.92570250  0.32590150  0.59436850  1
  O  O62  1  0.17409850  0.92570250  0.34436850  1
  O  O63  1  0.32590150  0.57429750  0.84436850  1
  O  O64  1  0.34600100  0.93704300  0.56871700  1
  O  O65  1  0.93704300  0.15399900  0.81871700  1
  O  O66  1  0.56295700  0.34600100  0.31871700  1
  O  O67  1  0.15399900  0.56295700  0.06871700  1
  O  O68  1  0.65399900  0.93704300  0.06871700  1
  O  O69  1  0.34600100  0.06295700  0.06871700  1
  O  O70  1  0.43704300  0.34600100  0.81871700  1
  O  O71  1  0.06295700  0.15399900  0.31871700  1
  O  O72  1  0.00000000  0.00000000  0.49194200  1
  O  O73  1  0.50000000  0.00000000  0.24194200  1
  O  O74  1  0.00000000  0.00000000  0.99194200  1
  O  O75  1  0.00000000  0.50000000  0.24194200  1
  O  O76  1  0.72118950  0.62745650  0.97987850  1
  O  O77  1  0.12745650  0.27881050  0.72987850  1
  O  O78  1  0.87254350  0.72118950  0.72987850  1
  O  O79  1  0.77881050  0.87254350  0.47987850  1
  O  O80  1  0.27881050  0.62745650  0.47987850  1
  O  O81  1  0.22118950  0.87254350  0.97987850  1
  O  O82  1  0.62745650  0.22118950  0.72987850  1
  O  O83  1  0.37254350  0.77881050  0.72987850  1
  O  O84  1  0.42570250  0.17409850  0.59436850  1
  O  O85  1  0.17409850  0.07429750  0.84436850  1
  O  O86  1  0.82590150  0.92570250  0.84436850  1
  O  O87  1  0.57429750  0.82590150  0.59436850  1
  O  O88  1  0.07429750  0.67409850  0.59436850  1
  O  O89  1  0.42570250  0.82590150  0.09436850  1
  O  O90  1  0.67409850  0.42570250  0.84436850  1
  O  O91  1  0.82590150  0.07429750  0.34436850  1
  O  O92  1  0.84600100  0.43704300  0.06871700  1
  O  O93  1  0.43704300  0.65399900  0.31871700  1
  O  O94  1  0.06295700  0.84600100  0.81871700  1
  O  O95  1  0.65399900  0.06295700  0.56871700  1
  O  O96  1  0.15399900  0.43704300  0.56871700  1
  O  O97  1  0.84600100  0.56295700  0.56871700  1
  O  O98  1  0.93704300  0.84600100  0.31871700  1
  O  O99  1  0.56295700  0.65399900  0.81871700  1
  O  O100  1  0.50000000  0.50000000  0.99194200  1
  O  O101  1  0.00000000  0.50000000  0.74194200  1
  O  O102  1  0.50000000  0.50000000  0.49194200  1
  O  O103  1  0.50000000  0.00000000  0.74194200  1
