# generated using pymatgen
data_ZnC2S2(OF)6
_symmetry_space_group_name_H-M   'P 1'
_cell_length_a   5.07806404
_cell_length_b   5.07806404
_cell_length_c   31.51903651
_cell_angle_alpha   90.00000000
_cell_angle_beta   90.00000000
_cell_angle_gamma   120.00000000
_symmetry_Int_Tables_number   1
_chemical_formula_structural   ZnC2S2(OF)6
_chemical_formula_sum   'Zn3 C6 S6 O18 F18'
_cell_volume   703.88208492
_cell_formula_units_Z   3
loop_
 _symmetry_equiv_pos_site_id
 _symmetry_equiv_pos_as_xyz
  1  'x, y, z'
loop_
 _atom_site_type_symbol
 _atom_site_label
 _atom_site_symmetry_multiplicity
 _atom_site_fract_x
 _atom_site_fract_y
 _atom_site_fract_z
 _atom_site_occupancy
  Zn  Zn0  1  0.00000000  0.00000000  0.00000000  1
  Zn  Zn1  1  0.66666667  0.33333333  0.33333333  1
  Zn  Zn2  1  0.33333333  0.66666667  0.66666667  1
  C  C3  1  0.00000000  0.00000000  0.22306800  1
  C  C4  1  0.66666667  0.33333333  0.11026533  1
  C  C5  1  0.66666667  0.33333333  0.55640133  1
  C  C6  1  0.33333333  0.66666667  0.44359867  1
  C  C7  1  0.33333333  0.66666667  0.88973467  1
  C  C8  1  0.00000000  0.00000000  0.77693200  1
  S  S9  1  0.00000000  0.00000000  0.28258600  1
  S  S10  1  0.66666667  0.33333333  0.05074733  1
  S  S11  1  0.66666667  0.33333333  0.61591933  1
  S  S12  1  0.33333333  0.66666667  0.38408067  1
  S  S13  1  0.33333333  0.66666667  0.94925267  1
  S  S14  1  0.00000000  0.00000000  0.71741400  1
  O  O15  1  0.36723600  0.07782000  0.03964400  1
  O  O16  1  0.92218000  0.28941600  0.03964400  1
  O  O17  1  0.71058400  0.63276400  0.03964400  1
  O  O18  1  0.95608267  0.70056933  0.29368933  1
  O  O19  1  0.74448667  0.04391733  0.29368933  1
  O  O20  1  0.29943067  0.25551333  0.29368933  1
  O  O21  1  0.03390267  0.41115333  0.37297733  1
  O  O22  1  0.58884667  0.62274933  0.37297733  1
  O  O23  1  0.37725067  0.96609733  0.37297733  1
  O  O24  1  0.62274933  0.03390267  0.62702267  1
  O  O25  1  0.41115333  0.37725067  0.62702267  1
  O  O26  1  0.96609733  0.58884667  0.62702267  1
  O  O27  1  0.70056933  0.74448667  0.70631067  1
  O  O28  1  0.25551333  0.95608267  0.70631067  1
  O  O29  1  0.04391733  0.29943067  0.70631067  1
  O  O30  1  0.28941600  0.36723600  0.96035600  1
  O  O31  1  0.07782000  0.71058400  0.96035600  1
  O  O32  1  0.63276400  0.92218000  0.96035600  1
  F  F33  1  0.02098100  0.25999300  0.20872200  1
  F  F34  1  0.74000700  0.76098800  0.20872200  1
  F  F35  1  0.23901200  0.97901900  0.20872200  1
  F  F36  1  0.42765467  0.35431433  0.12461133  1
  F  F37  1  0.92665967  0.57234533  0.12461133  1
  F  F38  1  0.64568567  0.07334033  0.12461133  1
  F  F39  1  0.68764767  0.59332633  0.54205533  1
  F  F40  1  0.40667367  0.09432133  0.54205533  1
  F  F41  1  0.90567867  0.31235233  0.54205533  1
  F  F42  1  0.09432133  0.68764767  0.45794467  1
  F  F43  1  0.59332633  0.90567867  0.45794467  1
  F  F44  1  0.31235233  0.40667367  0.45794467  1
  F  F45  1  0.35431433  0.92665967  0.87538867  1
  F  F46  1  0.07334033  0.42765467  0.87538867  1
  F  F47  1  0.57234533  0.64568567  0.87538867  1
  F  F48  1  0.76098800  0.02098100  0.79127800  1
  F  F49  1  0.25999300  0.23901200  0.79127800  1
  F  F50  1  0.97901900  0.74000700  0.79127800  1
