# generated using pymatgen
data_La(BO2)3
_symmetry_space_group_name_H-M   'P 1'
_cell_length_a   10.04876400
_cell_length_b   8.23376400
_cell_length_c   6.58025434
_cell_angle_alpha   90.00000000
_cell_angle_beta   127.39270607
_cell_angle_gamma   90.00000000
_symmetry_Int_Tables_number   1
_chemical_formula_structural   La(BO2)3
_chemical_formula_sum   'La4 B12 O24'
_cell_volume   432.55689052
_cell_formula_units_Z   4
loop_
 _symmetry_equiv_pos_site_id
 _symmetry_equiv_pos_as_xyz
  1  'x, y, z'
loop_
 _atom_site_type_symbol
 _atom_site_label
 _atom_site_symmetry_multiplicity
 _atom_site_fract_x
 _atom_site_fract_y
 _atom_site_fract_z
 _atom_site_occupancy
  La  La0  1  0.00000000  0.79780700  0.25000000  1
  La  La1  1  0.00000000  0.20219300  0.75000000  1
  La  La2  1  0.50000000  0.29780700  0.25000000  1
  La  La3  1  0.50000000  0.70219300  0.75000000  1
  B  B4  1  0.00000000  0.22293600  0.25000000  1
  B  B5  1  0.22737750  0.43069650  0.58126100  1
  B  B6  1  0.77262250  0.43069650  0.91873900  1
  B  B7  1  0.00000000  0.77706400  0.75000000  1
  B  B8  1  0.22737750  0.56930350  0.08126100  1
  B  B9  1  0.77262250  0.56930350  0.41873900  1
  B  B10  1  0.50000000  0.72293600  0.25000000  1
  B  B11  1  0.72737750  0.93069650  0.58126100  1
  B  B12  1  0.27262250  0.93069650  0.91873900  1
  B  B13  1  0.50000000  0.27706400  0.75000000  1
  B  B14  1  0.72737750  0.06930350  0.08126100  1
  B  B15  1  0.27262250  0.06930350  0.41873900  1
  O  O16  1  0.10247900  0.31407200  0.48939700  1
  O  O17  1  0.89752100  0.31407200  0.01060300  1
  O  O18  1  0.10539500  0.11547700  0.21580500  1
  O  O19  1  0.89460500  0.11547700  0.28419500  1
  O  O20  1  0.89460500  0.88452300  0.78419500  1
  O  O21  1  0.10539500  0.88452300  0.71580500  1
  O  O22  1  0.20324950  0.58475450  0.49952600  1
  O  O23  1  0.79675050  0.58475450  0.00047400  1
  O  O24  1  0.79675050  0.41524550  0.50047400  1
  O  O25  1  0.20324950  0.41524550  0.99952600  1
  O  O26  1  0.10247900  0.68592800  0.98939700  1
  O  O27  1  0.89752100  0.68592800  0.51060300  1
  O  O28  1  0.60247900  0.81407200  0.48939700  1
  O  O29  1  0.39752100  0.81407200  0.01060300  1
  O  O30  1  0.60539500  0.61547700  0.21580500  1
  O  O31  1  0.39460500  0.61547700  0.28419500  1
  O  O32  1  0.39460500  0.38452300  0.78419500  1
  O  O33  1  0.60539500  0.38452300  0.71580500  1
  O  O34  1  0.70324950  0.08475450  0.49952600  1
  O  O35  1  0.29675050  0.08475450  0.00047400  1
  O  O36  1  0.29675050  0.91524550  0.50047400  1
  O  O37  1  0.70324950  0.91524550  0.99952600  1
  O  O38  1  0.60247900  0.18592800  0.98939700  1
  O  O39  1  0.39752100  0.18592800  0.51060300  1
