# generated using pymatgen
data_NaYTiNbO6F
_symmetry_space_group_name_H-M   'P 1'
_cell_length_a   7.33522000
_cell_length_b   7.33522000
_cell_length_c   10.36882500
_cell_angle_alpha   90.00000000
_cell_angle_beta   90.00000000
_cell_angle_gamma   90.00000000
_symmetry_Int_Tables_number   1
_chemical_formula_structural   NaYTiNbO6F
_chemical_formula_sum   'Na4 Y4 Ti4 Nb4 O24 F4'
_cell_volume   557.89932048
_cell_formula_units_Z   4
loop_
 _symmetry_equiv_pos_site_id
 _symmetry_equiv_pos_as_xyz
  1  'x, y, z'
loop_
 _atom_site_type_symbol
 _atom_site_label
 _atom_site_symmetry_multiplicity
 _atom_site_fract_x
 _atom_site_fract_y
 _atom_site_fract_z
 _atom_site_occupancy
  Na  Na0  1  0.00000000  0.23397400  0.50000000  1
  Na  Na1  1  0.00000000  0.76602600  0.00000000  1
  Na  Na2  1  0.23397400  0.00000000  0.25000000  1
  Na  Na3  1  0.76602600  0.00000000  0.75000000  1
  Y  Y4  1  0.50000000  0.21629600  0.50000000  1
  Y  Y5  1  0.50000000  0.78370400  0.00000000  1
  Y  Y6  1  0.78370400  0.50000000  0.75000000  1
  Y  Y7  1  0.21629600  0.50000000  0.25000000  1
  Ti  Ti8  1  0.26678400  0.50000000  0.75000000  1
  Ti  Ti9  1  0.50000000  0.26678400  0.00000000  1
  Ti  Ti10  1  0.73321600  0.50000000  0.25000000  1
  Ti  Ti11  1  0.50000000  0.73321600  0.50000000  1
  Nb  Nb12  1  0.73915100  0.00000000  0.25000000  1
  Nb  Nb13  1  0.00000000  0.26084900  0.00000000  1
  Nb  Nb14  1  0.00000000  0.73915100  0.50000000  1
  Nb  Nb15  1  0.26084900  0.00000000  0.75000000  1
  O  O16  1  0.05091400  0.45389600  0.86671400  1
  O  O17  1  0.25099100  0.27822800  0.07562500  1
  O  O18  1  0.45395000  0.45395000  0.87500000  1
  O  O19  1  0.54610400  0.94908600  0.38328600  1
  O  O20  1  0.54605000  0.45395000  0.12500000  1
  O  O21  1  0.54605000  0.54605000  0.37500000  1
  O  O22  1  0.72177200  0.74900900  0.17437500  1
  O  O23  1  0.72177200  0.25099100  0.32562500  1
  O  O24  1  0.74900900  0.72177200  0.57562500  1
  O  O25  1  0.94908600  0.54610400  0.36671400  1
  O  O26  1  0.94908600  0.45389600  0.13328600  1
  O  O27  1  0.93558600  0.93558600  0.37500000  1
  O  O28  1  0.05091400  0.54610400  0.63328600  1
  O  O29  1  0.06441400  0.93558600  0.62500000  1
  O  O30  1  0.06441400  0.06441400  0.87500000  1
  O  O31  1  0.27822800  0.25099100  0.67437500  1
  O  O32  1  0.25099100  0.72177200  0.42437500  1
  O  O33  1  0.27822800  0.74900900  0.82562500  1
  O  O34  1  0.45389600  0.05091400  0.88328600  1
  O  O35  1  0.45395000  0.54605000  0.62500000  1
  O  O36  1  0.45389600  0.94908600  0.61671400  1
  O  O37  1  0.54610400  0.05091400  0.11671400  1
  O  O38  1  0.74900900  0.27822800  0.92437500  1
  O  O39  1  0.93558600  0.06441400  0.12500000  1
  F  F40  1  0.74727900  0.25272100  0.62500000  1
  F  F41  1  0.25272100  0.74727900  0.12500000  1
  F  F42  1  0.25272100  0.25272100  0.37500000  1
  F  F43  1  0.74727900  0.74727900  0.87500000  1
