# generated using pymatgen
data_RbTiZnOF5
_symmetry_space_group_name_H-M   'P 1'
_cell_length_a   7.29185000
_cell_length_b   7.32424600
_cell_length_c   10.66501600
_cell_angle_alpha   90.00000000
_cell_angle_beta   90.00000000
_cell_angle_gamma   90.00000000
_symmetry_Int_Tables_number   1
_chemical_formula_structural   RbTiZnOF5
_chemical_formula_sum   'Rb4 Ti4 Zn4 O4 F20'
_cell_volume   569.58974309
_cell_formula_units_Z   4
loop_
 _symmetry_equiv_pos_site_id
 _symmetry_equiv_pos_as_xyz
  1  'x, y, z'
loop_
 _atom_site_type_symbol
 _atom_site_label
 _atom_site_symmetry_multiplicity
 _atom_site_fract_x
 _atom_site_fract_y
 _atom_site_fract_z
 _atom_site_occupancy
  Rb  Rb0  1  0.50000000  0.75000000  0.87540300  1
  Rb  Rb1  1  0.00000000  0.75000000  0.62459700  1
  Rb  Rb2  1  0.00000000  0.25000000  0.37540300  1
  Rb  Rb3  1  0.50000000  0.25000000  0.12459700  1
  Ti  Ti4  1  0.25000000  0.25000000  0.75000000  1
  Ti  Ti5  1  0.75000000  0.25000000  0.75000000  1
  Ti  Ti6  1  0.75000000  0.75000000  0.25000000  1
  Ti  Ti7  1  0.25000000  0.75000000  0.25000000  1
  Zn  Zn8  1  0.00000000  0.50000000  0.00000000  1
  Zn  Zn9  1  0.00000000  0.00000000  0.00000000  1
  Zn  Zn10  1  0.50000000  0.00000000  0.50000000  1
  Zn  Zn11  1  0.50000000  0.50000000  0.50000000  1
  O  O12  1  0.50000000  0.25000000  0.78429900  1
  O  O13  1  0.00000000  0.25000000  0.71570100  1
  O  O14  1  0.00000000  0.75000000  0.28429900  1
  O  O15  1  0.50000000  0.75000000  0.21570100  1
  F  F16  1  0.21631650  0.44117450  0.87650050  1
  F  F17  1  0.50000000  0.75000000  0.57505500  1
  F  F18  1  0.21631650  0.05882550  0.87650050  1
  F  F19  1  0.78368350  0.44117450  0.87650050  1
  F  F20  1  0.71631650  0.44117450  0.62349950  1
  F  F21  1  0.78368350  0.05882550  0.87650050  1
  F  F22  1  0.71631650  0.05882550  0.62349950  1
  F  F23  1  0.28368350  0.44117450  0.62349950  1
  F  F24  1  0.28368350  0.05882550  0.62349950  1
  F  F25  1  0.00000000  0.75000000  0.92494500  1
  F  F26  1  0.71631650  0.94117450  0.37650050  1
  F  F27  1  0.00000000  0.25000000  0.07505500  1
  F  F28  1  0.71631650  0.55882550  0.37650050  1
  F  F29  1  0.28368350  0.94117450  0.37650050  1
  F  F30  1  0.21631650  0.94117450  0.12349950  1
  F  F31  1  0.28368350  0.55882550  0.37650050  1
  F  F32  1  0.21631650  0.55882550  0.12349950  1
  F  F33  1  0.78368350  0.94117450  0.12349950  1
  F  F34  1  0.78368350  0.55882550  0.12349950  1
  F  F35  1  0.50000000  0.25000000  0.42494500  1
