# generated using pymatgen
data_KZrTl2OF5
_symmetry_space_group_name_H-M   'P 1'
_cell_length_a   6.50752800
_cell_length_b   6.50752800
_cell_length_c   9.45437600
_cell_angle_alpha   90.00000000
_cell_angle_beta   90.00000000
_cell_angle_gamma   90.00000000
_symmetry_Int_Tables_number   1
_chemical_formula_structural   KZrTl2OF5
_chemical_formula_sum   'K2 Zr2 Tl4 O2 F10'
_cell_volume   400.37316484
_cell_formula_units_Z   2
loop_
 _symmetry_equiv_pos_site_id
 _symmetry_equiv_pos_as_xyz
  1  'x, y, z'
loop_
 _atom_site_type_symbol
 _atom_site_label
 _atom_site_symmetry_multiplicity
 _atom_site_fract_x
 _atom_site_fract_y
 _atom_site_fract_z
 _atom_site_occupancy
  K  K0  1  0.50000000  0.50000000  0.00081500  1
  K  K1  1  0.00000000  0.00000000  0.50081500  1
  Zr  Zr2  1  0.00000000  0.00000000  0.01826600  1
  Zr  Zr3  1  0.50000000  0.50000000  0.51826600  1
  Tl  Tl4  1  0.00000000  0.50000000  0.25762600  1
  Tl  Tl5  1  0.50000000  0.00000000  0.25762600  1
  Tl  Tl6  1  0.50000000  0.00000000  0.75762600  1
  Tl  Tl7  1  0.00000000  0.50000000  0.75762600  1
  O  O8  1  0.00000000  0.00000000  0.22023000  1
  O  O9  1  0.50000000  0.50000000  0.72023000  1
  F  F10  1  0.27532650  0.72467350  0.49133150  1
  F  F11  1  0.72467350  0.72467350  0.49133150  1
  F  F12  1  0.27532650  0.27532650  0.49133150  1
  F  F13  1  0.72467350  0.27532650  0.49133150  1
  F  F14  1  0.50000000  0.50000000  0.28011000  1
  F  F15  1  0.77532650  0.22467350  0.99133150  1
  F  F16  1  0.22467350  0.22467350  0.99133150  1
  F  F17  1  0.77532650  0.77532650  0.99133150  1
  F  F18  1  0.22467350  0.77532650  0.99133150  1
  F  F19  1  0.00000000  0.00000000  0.78011000  1
