# generated using pymatgen
data_CaSiO3
_symmetry_space_group_name_H-M   'P 1'
_cell_length_a   6.74048100
_cell_length_b   6.78603902
_cell_length_c   9.41212948
_cell_angle_alpha   69.27390832
_cell_angle_beta   83.66219587
_cell_angle_gamma   75.81084709
_symmetry_Int_Tables_number   1
_chemical_formula_structural   CaSiO3
_chemical_formula_sum   'Ca6 Si6 O18'
_cell_volume   390.24256159
_cell_formula_units_Z   6
loop_
 _symmetry_equiv_pos_site_id
 _symmetry_equiv_pos_as_xyz
  1  'x, y, z'
loop_
 _atom_site_type_symbol
 _atom_site_label
 _atom_site_symmetry_multiplicity
 _atom_site_fract_x
 _atom_site_fract_y
 _atom_site_fract_z
 _atom_site_occupancy
  Ca  Ca0  1  0.92222200  0.58398600  0.66291300  1
  Ca  Ca1  1  0.07777800  0.41601400  0.33708700  1
  Ca  Ca2  1  0.58845100  0.23825600  0.65080900  1
  Ca  Ca3  1  0.41154900  0.76174400  0.34919100  1
  Ca  Ca4  1  0.76349000  0.74315000  0.00041100  1
  Ca  Ca5  1  0.23651000  0.25685000  0.99958900  1
  Si  Si6  1  0.03861700  0.02401500  0.70039800  1
  Si  Si7  1  0.96138300  0.97598500  0.29960200  1
  Si  Si8  1  0.27003900  0.77207900  0.98404300  1
  Si  Si9  1  0.72996100  0.22792100  0.01595700  1
  Si  Si10  1  0.38710300  0.66512900  0.70545500  1
  Si  Si11  1  0.61289700  0.33487100  0.29454500  1
  O  O12  1  0.23789000  0.90549900  0.61386300  1
  O  O13  1  0.76211000  0.09450100  0.38613700  1
  O  O14  1  0.95303900  0.27315900  0.59832600  1
  O  O15  1  0.04696100  0.72684100  0.40167400  1
  O  O16  1  0.85594400  0.89257500  0.73732300  1
  O  O17  1  0.14405600  0.10742500  0.26267700  1
  O  O18  1  0.13423800  0.00428200  0.86350000  1
  O  O19  1  0.86576200  0.99571800  0.13650000  1
  O  O20  1  0.61210700  0.15943700  0.90730800  1
  O  O21  1  0.38789300  0.84056300  0.09269200  1
  O  O22  1  0.87105700  0.40168300  0.93877800  1
  O  O23  1  0.12894300  0.59831700  0.06122200  1
  O  O24  1  0.73600600  0.52590000  0.25765700  1
  O  O25  1  0.26399400  0.47410000  0.74234300  1
  O  O26  1  0.41866300  0.37781000  0.40620600  1
  O  O27  1  0.58133700  0.62219000  0.59379400  1
  O  O28  1  0.54979000  0.30991600  0.13621100  1
  O  O29  1  0.45021000  0.69008400  0.86378900  1
