# generated using pymatgen
data_BaCO3
_symmetry_space_group_name_H-M   'P 1'
_cell_length_a   5.39348376
_cell_length_b   5.39348376
_cell_length_c   9.45975914
_cell_angle_alpha   90.00000000
_cell_angle_beta   90.00000000
_cell_angle_gamma   120.00000000
_symmetry_Int_Tables_number   1
_chemical_formula_structural   BaCO3
_chemical_formula_sum   'Ba3 C3 O9'
_cell_volume   238.31394761
_cell_formula_units_Z   3
loop_
 _symmetry_equiv_pos_site_id
 _symmetry_equiv_pos_as_xyz
  1  'x, y, z'
loop_
 _atom_site_type_symbol
 _atom_site_label
 _atom_site_symmetry_multiplicity
 _atom_site_fract_x
 _atom_site_fract_y
 _atom_site_fract_z
 _atom_site_occupancy
  Ba  Ba0  1  0.33333333  0.66666667  0.64583667  1
  Ba  Ba1  1  0.00000000  0.00000000  0.97917000  1
  Ba  Ba2  1  0.66666667  0.33333333  0.31250333  1
  C  C3  1  0.33333333  0.66666667  0.19787867  1
  C  C4  1  0.00000000  0.00000000  0.53121200  1
  C  C5  1  0.66666667  0.33333333  0.86454533  1
  O  O6  1  0.61193600  0.80596800  0.20053900  1
  O  O7  1  0.19403200  0.80596800  0.20053900  1
  O  O8  1  0.19403200  0.38806400  0.20053900  1
  O  O9  1  0.27860267  0.13930133  0.53387233  1
  O  O10  1  0.86069867  0.13930133  0.53387233  1
  O  O11  1  0.86069867  0.72139733  0.53387233  1
  O  O12  1  0.94526933  0.47263467  0.86720567  1
  O  O13  1  0.52736533  0.47263467  0.86720567  1
  O  O14  1  0.52736533  0.05473067  0.86720567  1
