# generated using pymatgen
data_CaSiO3
_symmetry_space_group_name_H-M   'P 1'
_cell_length_a   7.15107900
_cell_length_b   7.39278430
_cell_length_c   8.02477437
_cell_angle_alpha   103.45248331
_cell_angle_beta   95.51996578
_cell_angle_gamma   90.08050942
_symmetry_Int_Tables_number   1
_chemical_formula_structural   CaSiO3
_chemical_formula_sum   'Ca6 Si6 O18'
_cell_volume   410.56369059
_cell_formula_units_Z   6
loop_
 _symmetry_equiv_pos_site_id
 _symmetry_equiv_pos_as_xyz
  1  'x, y, z'
loop_
 _atom_site_type_symbol
 _atom_site_label
 _atom_site_symmetry_multiplicity
 _atom_site_fract_x
 _atom_site_fract_y
 _atom_site_fract_z
 _atom_site_occupancy
  Ca  Ca0  1  0.52973400  0.75051900  0.50428400  1
  Ca  Ca1  1  0.47026600  0.24948100  0.49571600  1
  Ca  Ca2  1  0.76307600  0.92977700  0.20471200  1
  Ca  Ca3  1  0.23692400  0.07022300  0.79528800  1
  Ca  Ca4  1  0.75960100  0.42396700  0.19750100  1
  Ca  Ca5  1  0.24039900  0.57603300  0.80249900  1
  Si  Si6  1  0.05799900  0.72309300  0.39482900  1
  Si  Si7  1  0.94200100  0.27690700  0.60517100  1
  Si  Si8  1  0.27016500  0.95387400  0.18408400  1
  Si  Si9  1  0.72983500  0.04612600  0.81591600  1
  Si  Si10  1  0.27056200  0.38742600  0.18480800  1
  Si  Si11  1  0.72943800  0.61257400  0.81519200  1
  O  O12  1  0.09327300  0.51157200  0.27045300  1
  O  O13  1  0.90672700  0.48842800  0.72954700  1
  O  O14  1  0.09379700  0.87056200  0.26860300  1
  O  O15  1  0.90620300  0.12943800  0.73139700  1
  O  O16  1  0.22875900  0.17953800  0.22135500  1
  O  O17  1  0.77124100  0.82046200  0.77864500  1
  O  O18  1  0.83125200  0.72551200  0.39926700  1
  O  O19  1  0.16874800  0.27448800  0.60073300  1
  O  O20  1  0.26309500  0.86812700  0.97959100  1
  O  O21  1  0.73690500  0.13187300  0.02040900  1
  O  O22  1  0.26718000  0.37190300  0.98193600  1
  O  O23  1  0.73282000  0.62809700  0.01806400  1
  O  O24  1  0.53427600  0.53634300  0.69625000  1
  O  O25  1  0.46572400  0.46365700  0.30375000  1
  O  O26  1  0.53418600  0.06384700  0.69893200  1
  O  O27  1  0.46581400  0.93615300  0.30106800  1
  O  O28  1  0.79835600  0.23125300  0.43106300  1
  O  O29  1  0.20164400  0.76874700  0.56893700  1
