# generated using pymatgen
data_TlGaS2
_symmetry_space_group_name_H-M   'P 1'
_cell_length_a   10.47853400
_cell_length_b   10.47756000
_cell_length_c   15.42691223
_cell_angle_alpha   90.00000000
_cell_angle_beta   99.86379667
_cell_angle_gamma   90.00000000
_symmetry_Int_Tables_number   1
_chemical_formula_structural   TlGaS2
_chemical_formula_sum   'Tl16 Ga16 S32'
_cell_volume   1668.67564252
_cell_formula_units_Z   16
loop_
 _symmetry_equiv_pos_site_id
 _symmetry_equiv_pos_as_xyz
  1  'x, y, z'
loop_
 _atom_site_type_symbol
 _atom_site_label
 _atom_site_symmetry_multiplicity
 _atom_site_fract_x
 _atom_site_fract_y
 _atom_site_fract_z
 _atom_site_occupancy
  Tl  Tl0  1  0.21609100  0.93875300  0.11593900  1
  Tl  Tl1  1  0.78390900  0.93875300  0.38406100  1
  Tl  Tl2  1  0.78390900  0.06124700  0.88406100  1
  Tl  Tl3  1  0.21609100  0.06124700  0.61593900  1
  Tl  Tl4  1  0.46360450  0.81168950  0.60971800  1
  Tl  Tl5  1  0.53639550  0.81168950  0.89028200  1
  Tl  Tl6  1  0.53639550  0.18831050  0.39028200  1
  Tl  Tl7  1  0.46360450  0.18831050  0.10971800  1
  Tl  Tl8  1  0.71609100  0.43875300  0.11593900  1
  Tl  Tl9  1  0.28390900  0.43875300  0.38406100  1
  Tl  Tl10  1  0.28390900  0.56124700  0.88406100  1
  Tl  Tl11  1  0.71609100  0.56124700  0.61593900  1
  Tl  Tl12  1  0.96360450  0.31168950  0.60971800  1
  Tl  Tl13  1  0.03639550  0.31168950  0.89028200  1
  Tl  Tl14  1  0.03639550  0.68831050  0.39028200  1
  Tl  Tl15  1  0.96360450  0.68831050  0.10971800  1
  Ga  Ga16  1  0.39768000  0.18868700  0.83575200  1
  Ga  Ga17  1  0.85502100  0.93572700  0.66303800  1
  Ga  Ga18  1  0.85502100  0.06427300  0.16303800  1
  Ga  Ga19  1  0.14497900  0.06427300  0.33696200  1
  Ga  Ga20  1  0.39768000  0.81131300  0.33575200  1
  Ga  Ga21  1  0.60232000  0.81131300  0.16424800  1
  Ga  Ga22  1  0.60232000  0.18868700  0.66424800  1
  Ga  Ga23  1  0.14497900  0.93572700  0.83696200  1
  Ga  Ga24  1  0.89768000  0.68868700  0.83575200  1
  Ga  Ga25  1  0.35502100  0.43572700  0.66303800  1
  Ga  Ga26  1  0.35502100  0.56427300  0.16303800  1
  Ga  Ga27  1  0.64497900  0.56427300  0.33696200  1
  Ga  Ga28  1  0.89768000  0.31131300  0.33575200  1
  Ga  Ga29  1  0.10232000  0.31131300  0.16424800  1
  Ga  Ga30  1  0.10232000  0.68868700  0.66424800  1
  Ga  Ga31  1  0.64497900  0.43572700  0.83696200  1
  S  S32  1  0.45682450  0.68751550  0.07191200  1
  S  S33  1  0.54317550  0.68751550  0.42808800  1
  S  S34  1  0.54317550  0.31248450  0.92808800  1
  S  S35  1  0.45682450  0.31248450  0.57191200  1
  S  S36  1  0.25633050  0.81182250  0.75133300  1
  S  S37  1  0.74366950  0.81182250  0.74866700  1
  S  S38  1  0.74366950  0.18817750  0.24866700  1
  S  S39  1  0.25633050  0.18817750  0.25133300  1
  S  S40  1  0.70671950  0.06356750  0.57502700  1
  S  S41  1  0.29328050  0.06356750  0.92497300  1
  S  S42  1  0.29328050  0.93643250  0.42497300  1
  S  S43  1  0.50000000  0.43199300  0.25000000  1
  S  S44  1  0.50000000  0.05588600  0.75000000  1
  S  S45  1  0.50000000  0.94411400  0.25000000  1
  S  S46  1  0.50000000  0.56800700  0.75000000  1
  S  S47  1  0.70671950  0.93643250  0.07502700  1
  S  S48  1  0.95682450  0.18751550  0.07191200  1
  S  S49  1  0.04317550  0.18751550  0.42808800  1
  S  S50  1  0.04317550  0.81248450  0.92808800  1
  S  S51  1  0.95682450  0.81248450  0.57191200  1
  S  S52  1  0.75633050  0.31182250  0.75133300  1
  S  S53  1  0.24366950  0.31182250  0.74866700  1
  S  S54  1  0.24366950  0.68817750  0.24866700  1
  S  S55  1  0.75633050  0.68817750  0.25133300  1
  S  S56  1  0.20671950  0.56356750  0.57502700  1
  S  S57  1  0.79328050  0.56356750  0.92497300  1
  S  S58  1  0.79328050  0.43643250  0.42497300  1
  S  S59  1  0.00000000  0.93199300  0.25000000  1
  S  S60  1  0.00000000  0.55588600  0.75000000  1
  S  S61  1  0.00000000  0.44411400  0.25000000  1
  S  S62  1  0.00000000  0.06800700  0.75000000  1
  S  S63  1  0.20671950  0.43643250  0.07502700  1
