# generated using pymatgen
data_Li2BeF4
_symmetry_space_group_name_H-M   'P 1'
_cell_length_a   13.53150789
_cell_length_b   13.53150789
_cell_length_c   9.04868564
_cell_angle_alpha   90.00000000
_cell_angle_beta   90.00000000
_cell_angle_gamma   120.00000000
_symmetry_Int_Tables_number   1
_chemical_formula_structural   Li2BeF4
_chemical_formula_sum   'Li36 Be18 F72'
_cell_volume   1434.85667435
_cell_formula_units_Z   18
loop_
 _symmetry_equiv_pos_site_id
 _symmetry_equiv_pos_as_xyz
  1  'x, y, z'
loop_
 _atom_site_type_symbol
 _atom_site_label
 _atom_site_symmetry_multiplicity
 _atom_site_fract_x
 _atom_site_fract_y
 _atom_site_fract_z
 _atom_site_occupancy
  Li  Li0  1  0.85882033  0.31845467  0.41819767  1
  Li  Li1  1  0.68154533  0.54036567  0.41819767  1
  Li  Li2  1  0.45963433  0.14117967  0.41819767  1
  Li  Li3  1  0.14117967  0.68154533  0.58180233  1
  Li  Li4  1  0.31845467  0.45963433  0.58180233  1
  Li  Li5  1  0.54036567  0.85882033  0.58180233  1
  Li  Li6  1  0.19383733  0.97964167  0.41859667  1
  Li  Li7  1  0.02035833  0.21419567  0.41859667  1
  Li  Li8  1  0.78580433  0.80616267  0.41859667  1
  Li  Li9  1  0.80616267  0.02035833  0.58140333  1
  Li  Li10  1  0.97964167  0.78580433  0.58140333  1
  Li  Li11  1  0.21419567  0.19383733  0.58140333  1
  Li  Li12  1  0.52548700  0.65178800  0.75153100  1
  Li  Li13  1  0.34821200  0.87369900  0.75153100  1
  Li  Li14  1  0.12630100  0.47451300  0.75153100  1
  Li  Li15  1  0.80784633  0.01487867  0.91513567  1
  Li  Li16  1  0.98512133  0.79296767  0.91513567  1
  Li  Li17  1  0.20703233  0.19215367  0.91513567  1
  Li  Li18  1  0.86050400  0.31297500  0.75193000  1
  Li  Li19  1  0.68702500  0.54752900  0.75193000  1
  Li  Li20  1  0.45247100  0.13949600  0.75193000  1
  Li  Li21  1  0.47282933  0.35369167  0.91473667  1
  Li  Li22  1  0.64630833  0.11913767  0.91473667  1
  Li  Li23  1  0.88086233  0.52717067  0.91473667  1
  Li  Li24  1  0.19215367  0.98512133  0.08486433  1
  Li  Li25  1  0.01487867  0.20703233  0.08486433  1
  Li  Li26  1  0.79296767  0.80784633  0.08486433  1
  Li  Li27  1  0.47451300  0.34821200  0.24846900  1
  Li  Li28  1  0.65178800  0.12630100  0.24846900  1
  Li  Li29  1  0.87369900  0.52548700  0.24846900  1
  Li  Li30  1  0.52717067  0.64630833  0.08526333  1
  Li  Li31  1  0.35369167  0.88086233  0.08526333  1
  Li  Li32  1  0.11913767  0.47282933  0.08526333  1
  Li  Li33  1  0.13949600  0.68702500  0.24807000  1
  Li  Li34  1  0.31297500  0.45247100  0.24807000  1
  Li  Li35  1  0.54752900  0.86050400  0.24807000  1
  Be  Be36  1  0.19624700  0.98573400  0.75062900  1
  Be  Be37  1  0.01426600  0.21051300  0.75062900  1
  Be  Be38  1  0.78948700  0.80375300  0.75062900  1
  Be  Be39  1  0.80375300  0.01426600  0.24937100  1
  Be  Be40  1  0.98573400  0.78948700  0.24937100  1
  Be  Be41  1  0.21051300  0.19624700  0.24937100  1
  Be  Be42  1  0.86291367  0.31906733  0.08396233  1
  Be  Be43  1  0.68093267  0.54384633  0.08396233  1
  Be  Be44  1  0.45615367  0.13708633  0.08396233  1
  Be  Be45  1  0.47041967  0.34759933  0.58270433  1
  Be  Be46  1  0.65240067  0.12282033  0.58270433  1
  Be  Be47  1  0.87717967  0.52958033  0.58270433  1
  Be  Be48  1  0.52958033  0.65240067  0.41729567  1
  Be  Be49  1  0.34759933  0.87717967  0.41729567  1
  Be  Be50  1  0.12282033  0.47041967  0.41729567  1
  Be  Be51  1  0.13708633  0.68093267  0.91603767  1
  Be  Be52  1  0.31906733  0.45615367  0.91603767  1
  Be  Be53  1  0.54384633  0.86291367  0.91603767  1
  F  F54  1  0.20784033  0.12744667  0.39154467  1
  F  F55  1  0.91960633  0.79215967  0.39154467  1
  F  F56  1  0.87255333  0.08039367  0.39154467  1
  F  F57  1  0.79215967  0.87255333  0.60845533  1
  F  F58  1  0.08039367  0.20784033  0.60845533  1
  F  F59  1  0.12744667  0.91960633  0.60845533  1
  F  F60  1  0.46269867  0.59279733  0.56194933  1
  F  F61  1  0.40720267  0.86990133  0.56194933  1
  F  F62  1  0.13009867  0.53730133  0.56194933  1
  F  F63  1  0.53730133  0.40720267  0.43805067  1
  F  F64  1  0.59279733  0.13009867  0.43805067  1
  F  F65  1  0.86990133  0.46269867  0.43805067  1
  F  F66  1  0.64972233  0.66140567  0.41723167  1
  F  F67  1  0.33859433  0.98831667  0.41723167  1
  F  F68  1  0.01168333  0.35027767  0.41723167  1
  F  F69  1  0.35027767  0.33859433  0.58276833  1
  F  F70  1  0.66140567  0.01168333  0.58276833  1
  F  F71  1  0.98831667  0.64972233  0.58276833  1
  F  F72  1  0.21559267  0.11054633  0.74858933  1
  F  F73  1  0.88945367  0.10504633  0.74858933  1
  F  F74  1  0.89495367  0.78440733  0.74858933  1
  F  F75  1  0.78440733  0.88945367  0.25141067  1
  F  F76  1  0.11054633  0.89495367  0.25141067  1
  F  F77  1  0.10504633  0.21559267  0.25141067  1
  F  F78  1  0.87450700  0.46078000  0.72487800  1
  F  F79  1  0.58627300  0.12549300  0.72487800  1
  F  F80  1  0.53922000  0.41372700  0.72487800  1
  F  F81  1  0.45882633  0.20588667  0.94178867  1
  F  F82  1  0.74706033  0.54117367  0.94178867  1
  F  F83  1  0.79411333  0.25293967  0.94178867  1
  F  F84  1  0.12936533  0.92613067  0.89528267  1
  F  F85  1  0.07386933  0.20323467  0.89528267  1
  F  F86  1  0.79676533  0.87063467  0.89528267  1
  F  F87  1  0.20396800  0.74053600  0.77138400  1
  F  F88  1  0.25946400  0.46343200  0.77138400  1
  F  F89  1  0.53656800  0.79603200  0.77138400  1
  F  F90  1  0.31638900  0.99473900  0.75056500  1
  F  F91  1  0.00526100  0.32165000  0.75056500  1
  F  F92  1  0.67835000  0.68361100  0.75056500  1
  F  F93  1  0.01694433  0.67192767  0.91610167  1
  F  F94  1  0.32807233  0.34501667  0.91610167  1
  F  F95  1  0.65498333  0.98305567  0.91610167  1
  F  F96  1  0.88225933  0.44387967  0.08192267  1
  F  F97  1  0.55612033  0.43837967  0.08192267  1
  F  F98  1  0.56162033  0.11774067  0.08192267  1
  F  F99  1  0.45107400  0.22278700  0.58474400  1
  F  F100  1  0.77721300  0.22828700  0.58474400  1
  F  F101  1  0.77171300  0.54892600  0.58474400  1
  F  F102  1  0.54117367  0.79411333  0.05821133  1
  F  F103  1  0.25293967  0.45882633  0.05821133  1
  F  F104  1  0.20588667  0.74706033  0.05821133  1
  F  F105  1  0.12549300  0.53922000  0.27512200  1
  F  F106  1  0.41372700  0.87450700  0.27512200  1
  F  F107  1  0.46078000  0.58627300  0.27512200  1
  F  F108  1  0.79603200  0.25946400  0.22861600  1
  F  F109  1  0.74053600  0.53656800  0.22861600  1
  F  F110  1  0.46343200  0.20396800  0.22861600  1
  F  F111  1  0.87063467  0.07386933  0.10471733  1
  F  F112  1  0.92613067  0.79676533  0.10471733  1
  F  F113  1  0.20323467  0.12936533  0.10471733  1
  F  F114  1  0.98305567  0.32807233  0.08389833  1
  F  F115  1  0.67192767  0.65498333  0.08389833  1
  F  F116  1  0.34501667  0.01694433  0.08389833  1
  F  F117  1  0.68361100  0.00526100  0.24943500  1
  F  F118  1  0.99473900  0.67835000  0.24943500  1
  F  F119  1  0.32165000  0.31638900  0.24943500  1
  F  F120  1  0.54892600  0.77721300  0.41525600  1
  F  F121  1  0.22278700  0.77171300  0.41525600  1
  F  F122  1  0.22828700  0.45107400  0.41525600  1
  F  F123  1  0.11774067  0.55612033  0.91807733  1
  F  F124  1  0.44387967  0.56162033  0.91807733  1
  F  F125  1  0.43837967  0.88225933  0.91807733  1
