# generated using pymatgen
data_NdTaO4
_symmetry_space_group_name_H-M   'P 1'
_cell_length_a   7.22401600
_cell_length_b   11.40743200
_cell_length_c   5.17513622
_cell_angle_alpha   90.00000000
_cell_angle_beta   130.13200159
_cell_angle_gamma   90.00000000
_symmetry_Int_Tables_number   1
_chemical_formula_structural   NdTaO4
_chemical_formula_sum   'Nd4 Ta4 O16'
_cell_volume   326.06246572
_cell_formula_units_Z   4
loop_
 _symmetry_equiv_pos_site_id
 _symmetry_equiv_pos_as_xyz
  1  'x, y, z'
loop_
 _atom_site_type_symbol
 _atom_site_label
 _atom_site_symmetry_multiplicity
 _atom_site_fract_x
 _atom_site_fract_y
 _atom_site_fract_z
 _atom_site_occupancy
  Nd  Nd0  1  0.00000000  0.36848800  0.75000000  1
  Nd  Nd1  1  0.50000000  0.13151200  0.25000000  1
  Nd  Nd2  1  0.50000000  0.86848800  0.75000000  1
  Nd  Nd3  1  0.00000000  0.63151200  0.25000000  1
  Ta  Ta4  1  0.50000000  0.40034600  0.75000000  1
  Ta  Ta5  1  0.00000000  0.09965400  0.25000000  1
  Ta  Ta6  1  0.00000000  0.90034600  0.75000000  1
  Ta  Ta7  1  0.50000000  0.59965400  0.25000000  1
  O  O8  1  0.73766800  0.46811600  0.20016900  1
  O  O9  1  0.26233200  0.46811600  0.29983100  1
  O  O10  1  0.76233200  0.03188400  0.79983100  1
  O  O11  1  0.23766800  0.03188400  0.70016900  1
  O  O12  1  0.34964400  0.29435300  0.84093500  1
  O  O13  1  0.65035600  0.29435300  0.65906500  1
  O  O14  1  0.15035600  0.20564700  0.15906500  1
  O  O15  1  0.84964400  0.20564700  0.34093500  1
  O  O16  1  0.23766800  0.96811600  0.20016900  1
  O  O17  1  0.76233200  0.96811600  0.29983100  1
  O  O18  1  0.26233200  0.53188400  0.79983100  1
  O  O19  1  0.73766800  0.53188400  0.70016900  1
  O  O20  1  0.84964400  0.79435300  0.84093500  1
  O  O21  1  0.15035600  0.79435300  0.65906500  1
  O  O22  1  0.65035600  0.70564700  0.15906500  1
  O  O23  1  0.34964400  0.70564700  0.34093500  1
