# generated using pymatgen
data_Na3PO4
_symmetry_space_group_name_H-M   'P 1'
_cell_length_a   10.94302900
_cell_length_b   10.94302900
_cell_length_c   6.87761400
_cell_angle_alpha   90.00000000
_cell_angle_beta   90.00000000
_cell_angle_gamma   90.00000000
_symmetry_Int_Tables_number   1
_chemical_formula_structural   Na3PO4
_chemical_formula_sum   'Na24 P8 O32'
_cell_volume   823.59347660
_cell_formula_units_Z   8
loop_
 _symmetry_equiv_pos_site_id
 _symmetry_equiv_pos_as_xyz
  1  'x, y, z'
loop_
 _atom_site_type_symbol
 _atom_site_label
 _atom_site_symmetry_multiplicity
 _atom_site_fract_x
 _atom_site_fract_y
 _atom_site_fract_z
 _atom_site_occupancy
  Na  Na0  1  0.28337400  0.74120400  0.53820700  1
  Na  Na1  1  0.00000000  0.00000000  0.00000000  1
  Na  Na2  1  0.50000000  0.50000000  0.50000000  1
  Na  Na3  1  0.00000000  0.00000000  0.50000000  1
  Na  Na4  1  0.50000000  0.50000000  0.00000000  1
  Na  Na5  1  0.50000000  0.00000000  0.05079100  1
  Na  Na6  1  0.00000000  0.50000000  0.94920900  1
  Na  Na7  1  0.00000000  0.50000000  0.44920900  1
  Na  Na8  1  0.96453400  0.25798400  0.69558400  1
  Na  Na9  1  0.25798400  0.03546600  0.30441600  1
  Na  Na10  1  0.74201600  0.96453400  0.30441600  1
  Na  Na11  1  0.03546600  0.74201600  0.69558400  1
  Na  Na12  1  0.53546600  0.75798400  0.80441600  1
  Na  Na13  1  0.46453400  0.24201600  0.80441600  1
  Na  Na14  1  0.75798400  0.46453400  0.19558400  1
  Na  Na15  1  0.24201600  0.53546600  0.19558400  1
  Na  Na16  1  0.75879600  0.21662600  0.03820700  1
  Na  Na17  1  0.21662600  0.24120400  0.96179300  1
  Na  Na18  1  0.78337400  0.75879600  0.96179300  1
  Na  Na19  1  0.24120400  0.78337400  0.03820700  1
  Na  Na20  1  0.74120400  0.71662600  0.46179300  1
  Na  Na21  1  0.25879600  0.28337400  0.46179300  1
  Na  Na22  1  0.71662600  0.25879600  0.53820700  1
  Na  Na23  1  0.50000000  0.00000000  0.55079100  1
  P  P24  1  0.23631500  0.48521700  0.73015700  1
  P  P25  1  0.76368500  0.51478300  0.73015700  1
  P  P26  1  0.51478300  0.23631500  0.26984300  1
  P  P27  1  0.48521700  0.76368500  0.26984300  1
  P  P28  1  0.98521700  0.73631500  0.23015700  1
  P  P29  1  0.73631500  0.01478300  0.76984300  1
  P  P30  1  0.26368500  0.98521700  0.76984300  1
  P  P31  1  0.01478300  0.26368500  0.23015700  1
  O  O32  1  0.10346300  0.37506700  0.20377100  1
  O  O33  1  0.19182900  0.60479500  0.83222700  1
  O  O34  1  0.80817100  0.39520500  0.83222700  1
  O  O35  1  0.39520500  0.19182900  0.16777300  1
  O  O36  1  0.60479500  0.80817100  0.16777300  1
  O  O37  1  0.10479500  0.69182900  0.33222700  1
  O  O38  1  0.69182900  0.89520500  0.66777300  1
  O  O39  1  0.30817100  0.10479500  0.66777300  1
  O  O40  1  0.08140200  0.16617800  0.35839100  1
  O  O41  1  0.16617800  0.91859800  0.64160900  1
  O  O42  1  0.83382200  0.08140200  0.64160900  1
  O  O43  1  0.91859800  0.83382200  0.35839100  1
  O  O44  1  0.41859800  0.66617800  0.14160900  1
  O  O45  1  0.58140200  0.33382200  0.14160900  1
  O  O46  1  0.66617800  0.58140200  0.85839100  1
  O  O47  1  0.33382200  0.41859800  0.85839100  1
  O  O48  1  0.89520500  0.30817100  0.33222700  1
  O  O49  1  0.37506700  0.89653700  0.79622900  1
  O  O50  1  0.62493300  0.10346300  0.79622900  1
  O  O51  1  0.89653700  0.62493300  0.20377100  1
  O  O52  1  0.39653700  0.87506700  0.29622900  1
  O  O53  1  0.60346300  0.12493300  0.29622900  1
  O  O54  1  0.87506700  0.60346300  0.70377100  1
  O  O55  1  0.12493300  0.39653700  0.70377100  1
  O  O56  1  0.98507300  0.20902300  0.02714200  1
  O  O57  1  0.20902300  0.01492700  0.97285800  1
  O  O58  1  0.79097700  0.98507300  0.97285800  1
  O  O59  1  0.29097700  0.51492700  0.52714200  1
  O  O60  1  0.51492700  0.70902300  0.47285800  1
  O  O61  1  0.48507300  0.29097700  0.47285800  1
  O  O62  1  0.70902300  0.48507300  0.52714200  1
  O  O63  1  0.01492700  0.79097700  0.02714200  1
