# generated using pymatgen
data_Ag5SbS4
_symmetry_space_group_name_H-M   'P 1'
_cell_length_a   7.78529600
_cell_length_b   12.52597200
_cell_length_c   9.12207900
_cell_angle_alpha   90.00000000
_cell_angle_beta   90.00000000
_cell_angle_gamma   90.00000000
_symmetry_Int_Tables_number   1
_chemical_formula_structural   Ag5SbS4
_chemical_formula_sum   'Ag20 Sb4 S16'
_cell_volume   889.57054609
_cell_formula_units_Z   4
loop_
 _symmetry_equiv_pos_site_id
 _symmetry_equiv_pos_as_xyz
  1  'x, y, z'
loop_
 _atom_site_type_symbol
 _atom_site_label
 _atom_site_symmetry_multiplicity
 _atom_site_fract_x
 _atom_site_fract_y
 _atom_site_fract_z
 _atom_site_occupancy
  Ag  Ag0  1  0.19633450  0.06450150  0.17978800  1
  Ag  Ag1  1  0.68796050  0.11687450  0.49115700  1
  Ag  Ag2  1  0.68796050  0.88312550  0.99115700  1
  Ag  Ag3  1  0.31203950  0.11687450  0.49115700  1
  Ag  Ag4  1  0.80366550  0.06450150  0.17978800  1
  Ag  Ag5  1  0.19633450  0.93549850  0.67978800  1
  Ag  Ag6  1  0.50000000  0.36272300  0.32203400  1
  Ag  Ag7  1  0.50000000  0.63727700  0.82203400  1
  Ag  Ag8  1  0.31203950  0.88312550  0.99115700  1
  Ag  Ag9  1  0.80366550  0.93549850  0.67978800  1
  Ag  Ag10  1  0.69633450  0.56450150  0.17978800  1
  Ag  Ag11  1  0.18796050  0.61687450  0.49115700  1
  Ag  Ag12  1  0.18796050  0.38312550  0.99115700  1
  Ag  Ag13  1  0.81203950  0.61687450  0.49115700  1
  Ag  Ag14  1  0.30366550  0.56450150  0.17978800  1
  Ag  Ag15  1  0.69633450  0.43549850  0.67978800  1
  Ag  Ag16  1  0.00000000  0.86272300  0.32203400  1
  Ag  Ag17  1  0.00000000  0.13727700  0.82203400  1
  Ag  Ag18  1  0.81203950  0.38312550  0.99115700  1
  Ag  Ag19  1  0.30366550  0.43549850  0.67978800  1
  Sb  Sb20  1  0.50000000  0.82498700  0.38253900  1
  Sb  Sb21  1  0.50000000  0.17501300  0.88253900  1
  Sb  Sb22  1  0.00000000  0.32498700  0.38253900  1
  Sb  Sb23  1  0.00000000  0.67501300  0.88253900  1
  S  S24  1  0.73490400  0.76931600  0.21782400  1
  S  S25  1  0.26509600  0.23068400  0.71782400  1
  S  S26  1  0.50000000  0.01760400  0.30287800  1
  S  S27  1  0.50000000  0.98239600  0.80287800  1
  S  S28  1  0.50000000  0.51829500  0.48951200  1
  S  S29  1  0.50000000  0.48170500  0.98951200  1
  S  S30  1  0.26509600  0.76931600  0.21782400  1
  S  S31  1  0.73490400  0.23068400  0.71782400  1
  S  S32  1  0.23490400  0.26931600  0.21782400  1
  S  S33  1  0.76509600  0.73068400  0.71782400  1
  S  S34  1  0.00000000  0.51760400  0.30287800  1
  S  S35  1  0.00000000  0.48239600  0.80287800  1
  S  S36  1  0.00000000  0.01829500  0.48951200  1
  S  S37  1  0.00000000  0.98170500  0.98951200  1
  S  S38  1  0.76509600  0.26931600  0.21782400  1
  S  S39  1  0.23490400  0.73068400  0.71782400  1
