# generated using pymatgen
data_Zn(CrSe2)2
_symmetry_space_group_name_H-M   'P 1'
_cell_length_a   10.60447400
_cell_length_b   10.60447400
_cell_length_c   10.60447400
_cell_angle_alpha   90.00000000
_cell_angle_beta   90.00000000
_cell_angle_gamma   90.00000000
_symmetry_Int_Tables_number   1
_chemical_formula_structural   Zn(CrSe2)2
_chemical_formula_sum   'Zn8 Cr16 Se32'
_cell_volume   1192.52473254
_cell_formula_units_Z   8
loop_
 _symmetry_equiv_pos_site_id
 _symmetry_equiv_pos_as_xyz
  1  'x, y, z'
loop_
 _atom_site_type_symbol
 _atom_site_label
 _atom_site_symmetry_multiplicity
 _atom_site_fract_x
 _atom_site_fract_y
 _atom_site_fract_z
 _atom_site_occupancy
  Zn  Zn0  1  0.50000000  0.00000000  0.50000000  1
  Zn  Zn1  1  0.25000000  0.25000000  0.25000000  1
  Zn  Zn2  1  0.50000000  0.50000000  0.00000000  1
  Zn  Zn3  1  0.25000000  0.75000000  0.75000000  1
  Zn  Zn4  1  0.00000000  0.00000000  0.00000000  1
  Zn  Zn5  1  0.75000000  0.25000000  0.75000000  1
  Zn  Zn6  1  0.00000000  0.50000000  0.50000000  1
  Zn  Zn7  1  0.75000000  0.75000000  0.25000000  1
  Cr  Cr8  1  0.12500000  0.62500000  0.12500000  1
  Cr  Cr9  1  0.12500000  0.87500000  0.37500000  1
  Cr  Cr10  1  0.37500000  0.62500000  0.37500000  1
  Cr  Cr11  1  0.37500000  0.87500000  0.12500000  1
  Cr  Cr12  1  0.12500000  0.12500000  0.62500000  1
  Cr  Cr13  1  0.12500000  0.37500000  0.87500000  1
  Cr  Cr14  1  0.37500000  0.12500000  0.87500000  1
  Cr  Cr15  1  0.37500000  0.37500000  0.62500000  1
  Cr  Cr16  1  0.62500000  0.62500000  0.62500000  1
  Cr  Cr17  1  0.62500000  0.87500000  0.87500000  1
  Cr  Cr18  1  0.87500000  0.62500000  0.87500000  1
  Cr  Cr19  1  0.87500000  0.87500000  0.62500000  1
  Cr  Cr20  1  0.62500000  0.12500000  0.12500000  1
  Cr  Cr21  1  0.62500000  0.37500000  0.37500000  1
  Cr  Cr22  1  0.87500000  0.12500000  0.37500000  1
  Cr  Cr23  1  0.87500000  0.37500000  0.12500000  1
  Se  Se24  1  0.13550100  0.86449900  0.13550100  1
  Se  Se25  1  0.11449900  0.11449900  0.38550100  1
  Se  Se26  1  0.38550100  0.11449900  0.11449900  1
  Se  Se27  1  0.38550100  0.38550100  0.38550100  1
  Se  Se28  1  0.86449900  0.13550100  0.13550100  1
  Se  Se29  1  0.36449900  0.86449900  0.36449900  1
  Se  Se30  1  0.63550100  0.13550100  0.36449900  1
  Se  Se31  1  0.11449900  0.38550100  0.11449900  1
  Se  Se32  1  0.13550100  0.36449900  0.63550100  1
  Se  Se33  1  0.11449900  0.61449900  0.88550100  1
  Se  Se34  1  0.38550100  0.61449900  0.61449900  1
  Se  Se35  1  0.38550100  0.88550100  0.88550100  1
  Se  Se36  1  0.86449900  0.63550100  0.63550100  1
  Se  Se37  1  0.36449900  0.36449900  0.86449900  1
  Se  Se38  1  0.63550100  0.63550100  0.86449900  1
  Se  Se39  1  0.11449900  0.88550100  0.61449900  1
  Se  Se40  1  0.63550100  0.86449900  0.63550100  1
  Se  Se41  1  0.61449900  0.11449900  0.88550100  1
  Se  Se42  1  0.88550100  0.11449900  0.61449900  1
  Se  Se43  1  0.88550100  0.38550100  0.88550100  1
  Se  Se44  1  0.36449900  0.13550100  0.63550100  1
  Se  Se45  1  0.86449900  0.86449900  0.86449900  1
  Se  Se46  1  0.13550100  0.13550100  0.86449900  1
  Se  Se47  1  0.61449900  0.38550100  0.61449900  1
  Se  Se48  1  0.63550100  0.36449900  0.13550100  1
  Se  Se49  1  0.61449900  0.61449900  0.38550100  1
  Se  Se50  1  0.88550100  0.61449900  0.11449900  1
  Se  Se51  1  0.88550100  0.88550100  0.38550100  1
  Se  Se52  1  0.36449900  0.63550100  0.13550100  1
  Se  Se53  1  0.86449900  0.36449900  0.36449900  1
  Se  Se54  1  0.13550100  0.63550100  0.36449900  1
  Se  Se55  1  0.61449900  0.88550100  0.11449900  1
