# generated using pymatgen
data_Na3Al3Si3AgBrO12
_symmetry_space_group_name_H-M   'P 1'
_cell_length_a   12.77903400
_cell_length_b   12.78884200
_cell_length_c   9.04404820
_cell_angle_alpha   90.00000000
_cell_angle_beta   90.01197985
_cell_angle_gamma   90.00000000
_symmetry_Int_Tables_number   1
_chemical_formula_structural   Na3Al3Si3AgBrO12
_chemical_formula_sum   'Na12 Al12 Si12 Ag4 Br4 O48'
_cell_volume   1478.06014330
_cell_formula_units_Z   4
loop_
 _symmetry_equiv_pos_site_id
 _symmetry_equiv_pos_as_xyz
  1  'x, y, z'
loop_
 _atom_site_type_symbol
 _atom_site_label
 _atom_site_symmetry_multiplicity
 _atom_site_fract_x
 _atom_site_fract_y
 _atom_site_fract_z
 _atom_site_occupancy
  Na  Na0  1  0.43910600  0.74878400  0.19057000  1
  Na  Na1  1  0.56035300  0.75077500  0.68945700  1
  Na  Na2  1  0.43910600  0.25121600  0.69057000  1
  Na  Na3  1  0.25043950  0.06013650  0.30968400  1
  Na  Na4  1  0.56035300  0.24922500  0.18945700  1
  Na  Na5  1  0.25043950  0.93986350  0.80968400  1
  Na  Na6  1  0.93910600  0.24878400  0.19057000  1
  Na  Na7  1  0.06035300  0.25077500  0.68945700  1
  Na  Na8  1  0.93910600  0.75121600  0.69057000  1
  Na  Na9  1  0.75043950  0.56013650  0.30968400  1
  Na  Na10  1  0.06035300  0.74922500  0.18945700  1
  Na  Na11  1  0.75043950  0.43986350  0.80968400  1
  Al  Al12  1  0.50089600  0.00056900  0.74971600  1
  Al  Al13  1  0.87411650  0.12406850  0.50113600  1
  Al  Al14  1  0.12501650  0.12496150  0.00007600  1
  Al  Al15  1  0.87411650  0.87593150  0.00113600  1
  Al  Al16  1  0.12501650  0.87503850  0.50007600  1
  Al  Al17  1  0.50089600  0.99943100  0.24971600  1
  Al  Al18  1  0.00089600  0.50056900  0.74971600  1
  Al  Al19  1  0.37411650  0.62406850  0.50113600  1
  Al  Al20  1  0.62501650  0.62496150  0.00007600  1
  Al  Al21  1  0.37411650  0.37593150  0.00113600  1
  Al  Al22  1  0.62501650  0.37503850  0.50007600  1
  Al  Al23  1  0.00089600  0.49943100  0.24971600  1
  Si  Si24  1  0.62471000  0.12525700  0.50056300  1
  Si  Si25  1  0.62471000  0.87474300  0.00056300  1
  Si  Si26  1  0.50004400  0.49988800  0.24968100  1
  Si  Si27  1  0.50004400  0.50011200  0.74968100  1
  Si  Si28  1  0.37524650  0.12522650  0.00035200  1
  Si  Si29  1  0.37524650  0.87477350  0.50035200  1
  Si  Si30  1  0.12471000  0.62525700  0.50056300  1
  Si  Si31  1  0.12471000  0.37474300  0.00056300  1
  Si  Si32  1  0.00004400  0.99988800  0.24968100  1
  Si  Si33  1  0.00004400  0.00011200  0.74968100  1
  Si  Si34  1  0.87524650  0.62522650  0.00035200  1
  Si  Si35  1  0.87524650  0.37477350  0.50035200  1
  Ag  Ag36  1  0.74997250  0.08503450  0.83593400  1
  Ag  Ag37  1  0.74997250  0.91496550  0.33593400  1
  Ag  Ag38  1  0.24997250  0.58503450  0.83593400  1
  Ag  Ag39  1  0.24997250  0.41496550  0.33593400  1
  Br  Br40  1  0.25005350  0.75291650  0.00115700  1
  Br  Br41  1  0.25005350  0.24708350  0.50115700  1
  Br  Br42  1  0.75005350  0.25291650  0.00115700  1
  Br  Br43  1  0.75005350  0.74708350  0.50115700  1
  O  O44  1  0.60441000  0.04748100  0.35881000  1
  O  O45  1  0.45282850  0.89638150  0.64164000  1
  O  O46  1  0.74424350  0.10619950  0.56050000  1
  O  O47  1  0.39521450  0.75446550  0.44446300  1
  O  O48  1  0.60441000  0.95251900  0.85881000  1
  O  O49  1  0.54364900  0.89566900  0.13772900  1
  O  O50  1  0.74424350  0.89380050  0.06050000  1
  O  O51  1  0.60437700  0.75471700  0.94279400  1
  O  O52  1  0.90114750  0.04222950  0.34885100  1
  O  O53  1  0.46067450  0.59845150  0.64808100  1
  O  O54  1  0.90114750  0.95777050  0.84885100  1
  O  O55  1  0.54262000  0.59917900  0.15156700  1
  O  O56  1  0.46067450  0.40154850  0.14808100  1
  O  O57  1  0.09875700  0.04191600  0.84961600  1
  O  O58  1  0.54262000  0.40082100  0.65156700  1
  O  O59  1  0.09875700  0.95808400  0.34961600  1
  O  O60  1  0.39521450  0.24553450  0.94446300  1
  O  O61  1  0.25506550  0.10346250  0.05620700  1
  O  O62  1  0.45282850  0.10361850  0.14164000  1
  O  O63  1  0.39714450  0.04754450  0.85938400  1
  O  O64  1  0.60437700  0.24528300  0.44279400  1
  O  O65  1  0.25506550  0.89653750  0.55620700  1
  O  O66  1  0.54364900  0.10433100  0.63772900  1
  O  O67  1  0.39714450  0.95245550  0.35938400  1
  O  O68  1  0.10441000  0.54748100  0.35881000  1
  O  O69  1  0.95282850  0.39638150  0.64164000  1
  O  O70  1  0.24424350  0.60619950  0.56050000  1
  O  O71  1  0.89521450  0.25446550  0.44446300  1
  O  O72  1  0.10441000  0.45251900  0.85881000  1
  O  O73  1  0.04364900  0.39566900  0.13772900  1
  O  O74  1  0.24424350  0.39380050  0.06050000  1
  O  O75  1  0.10437700  0.25471700  0.94279400  1
  O  O76  1  0.40114750  0.54222950  0.34885100  1
  O  O77  1  0.96067450  0.09845150  0.64808100  1
  O  O78  1  0.40114750  0.45777050  0.84885100  1
  O  O79  1  0.04262000  0.09917900  0.15156700  1
  O  O80  1  0.96067450  0.90154850  0.14808100  1
  O  O81  1  0.59875700  0.54191600  0.84961600  1
  O  O82  1  0.04262000  0.90082100  0.65156700  1
  O  O83  1  0.59875700  0.45808400  0.34961600  1
  O  O84  1  0.89521450  0.74553450  0.94446300  1
  O  O85  1  0.75506550  0.60346250  0.05620700  1
  O  O86  1  0.95282850  0.60361850  0.14164000  1
  O  O87  1  0.89714450  0.54754450  0.85938400  1
  O  O88  1  0.10437700  0.74528300  0.44279400  1
  O  O89  1  0.75506550  0.39653750  0.55620700  1
  O  O90  1  0.04364900  0.60433100  0.63772900  1
  O  O91  1  0.89714450  0.45245550  0.35938400  1
