# generated using pymatgen
data_Li2Si2O5
_symmetry_space_group_name_H-M   'P 1'
_cell_length_a   5.88767800
_cell_length_b   14.79900600
_cell_length_c   4.84283400
_cell_angle_alpha   90.00000000
_cell_angle_beta   90.00000000
_cell_angle_gamma   90.00000000
_symmetry_Int_Tables_number   1
_chemical_formula_structural   Li2Si2O5
_chemical_formula_sum   'Li8 Si8 O20'
_cell_volume   421.96475658
_cell_formula_units_Z   4
loop_
 _symmetry_equiv_pos_site_id
 _symmetry_equiv_pos_as_xyz
  1  'x, y, z'
loop_
 _atom_site_type_symbol
 _atom_site_label
 _atom_site_symmetry_multiplicity
 _atom_site_fract_x
 _atom_site_fract_y
 _atom_site_fract_z
 _atom_site_occupancy
  Li  Li0  1  0.84720850  0.05776550  0.40345200  1
  Li  Li1  1  0.34720850  0.44223450  0.90345200  1
  Li  Li2  1  0.15279150  0.05776550  0.90345200  1
  Li  Li3  1  0.65279150  0.44223450  0.40345200  1
  Li  Li4  1  0.34720850  0.55776550  0.40345200  1
  Li  Li5  1  0.84720850  0.94223450  0.90345200  1
  Li  Li6  1  0.65279150  0.55776550  0.90345200  1
  Li  Li7  1  0.15279150  0.94223450  0.40345200  1
  Si  Si8  1  0.65561800  0.14824700  0.90671900  1
  Si  Si9  1  0.84438200  0.35175300  0.90671900  1
  Si  Si10  1  0.34438200  0.14824700  0.40671900  1
  Si  Si11  1  0.15561800  0.35175300  0.40671900  1
  Si  Si12  1  0.15561800  0.64824700  0.90671900  1
  Si  Si13  1  0.34438200  0.85175300  0.90671900  1
  Si  Si14  1  0.84438200  0.64824700  0.40671900  1
  Si  Si15  1  0.65561800  0.85175300  0.40671900  1
  O  O16  1  0.16900750  0.07170850  0.49896800  1
  O  O17  1  0.66900750  0.42829150  0.99896800  1
  O  O18  1  0.25000000  0.25000000  0.46280700  1
  O  O19  1  0.33099250  0.42829150  0.49896800  1
  O  O20  1  0.75000000  0.25000000  0.96280700  1
  O  O21  1  0.09197200  0.36236000  0.07291300  1
  O  O22  1  0.59197200  0.13764000  0.57291300  1
  O  O23  1  0.90802800  0.36236000  0.57291300  1
  O  O24  1  0.40802800  0.13764000  0.07291300  1
  O  O25  1  0.83099250  0.07170850  0.99896800  1
  O  O26  1  0.66900750  0.57170850  0.49896800  1
  O  O27  1  0.16900750  0.92829150  0.99896800  1
  O  O28  1  0.75000000  0.75000000  0.46280700  1
  O  O29  1  0.83099250  0.92829150  0.49896800  1
  O  O30  1  0.25000000  0.75000000  0.96280700  1
  O  O31  1  0.59197200  0.86236000  0.07291300  1
  O  O32  1  0.09197200  0.63764000  0.57291300  1
  O  O33  1  0.40802800  0.86236000  0.57291300  1
  O  O34  1  0.90802800  0.63764000  0.07291300  1
  O  O35  1  0.33099250  0.57170850  0.99896800  1
