# generated using pymatgen
data_Li4TeO5
_symmetry_space_group_name_H-M   'P 1'
_cell_length_a   5.18354623
_cell_length_b   5.25879267
_cell_length_c   7.85832592
_cell_angle_alpha   107.47339138
_cell_angle_beta   102.11331653
_cell_angle_gamma   101.86757951
_symmetry_Int_Tables_number   1
_chemical_formula_structural   Li4TeO5
_chemical_formula_sum   'Li8 Te2 O10'
_cell_volume   191.30900918
_cell_formula_units_Z   2
loop_
 _symmetry_equiv_pos_site_id
 _symmetry_equiv_pos_as_xyz
  1  'x, y, z'
loop_
 _atom_site_type_symbol
 _atom_site_label
 _atom_site_symmetry_multiplicity
 _atom_site_fract_x
 _atom_site_fract_y
 _atom_site_fract_z
 _atom_site_occupancy
  Li  Li0  1  0.10459994  0.48395689  0.31726269  1
  Li  Li1  1  0.89540006  0.51604311  0.68273731  1
  Li  Li2  1  0.50000000  0.50000000  0.50000000  1
  Li  Li3  1  0.50000000  0.00000000  0.00000000  1
  Li  Li4  1  0.33876844  0.50512310  0.88735160  1
  Li  Li5  1  0.66123156  0.49487690  0.11264840  1
  Li  Li6  1  0.69109065  0.01110941  0.60421139  1
  Li  Li7  1  0.30890935  0.98889059  0.39578861  1
  Te  Te8  1  0.10253299  0.00185461  0.78844018  1
  Te  Te9  1  0.89746701  0.99814539  0.21155982  1
  O  O10  1  0.72923312  0.76290526  0.84693617  1
  O  O11  1  0.27076688  0.23709474  0.15306383  1
  O  O12  1  0.72161725  0.22902870  0.32927147  1
  O  O13  1  0.27838275  0.77097130  0.67072853  1
  O  O14  1  0.08797614  0.78756264  0.04457123  1
  O  O15  1  0.91202386  0.21243736  0.95542877  1
  O  O16  1  0.46742173  0.24018839  0.75044581  1
  O  O17  1  0.53257827  0.75981161  0.24955419  1
  O  O18  1  0.90962993  0.75403610  0.42668527  1
  O  O19  1  0.09037007  0.24596390  0.57331473  1
