# generated using pymatgen
data_TaBO4
_symmetry_space_group_name_H-M   'P 1'
_cell_length_a   6.28229800
_cell_length_b   6.28229800
_cell_length_c   5.52677000
_cell_angle_alpha   90.00000000
_cell_angle_beta   90.00000000
_cell_angle_gamma   90.00000000
_symmetry_Int_Tables_number   1
_chemical_formula_structural   TaBO4
_chemical_formula_sum   'Ta4 B4 O16'
_cell_volume   218.12651365
_cell_formula_units_Z   4
loop_
 _symmetry_equiv_pos_site_id
 _symmetry_equiv_pos_as_xyz
  1  'x, y, z'
loop_
 _atom_site_type_symbol
 _atom_site_label
 _atom_site_symmetry_multiplicity
 _atom_site_fract_x
 _atom_site_fract_y
 _atom_site_fract_z
 _atom_site_occupancy
  Ta  Ta0  1  0.50000000  0.00000000  0.25000000  1
  Ta  Ta1  1  0.50000000  0.50000000  0.50000000  1
  Ta  Ta2  1  0.00000000  0.50000000  0.75000000  1
  Ta  Ta3  1  0.00000000  0.00000000  0.00000000  1
  B  B4  1  0.50000000  0.00000000  0.75000000  1
  B  B5  1  0.00000000  0.00000000  0.50000000  1
  B  B6  1  0.00000000  0.50000000  0.25000000  1
  B  B7  1  0.50000000  0.50000000  0.00000000  1
  O  O8  1  0.00000000  0.32209700  0.07421300  1
  O  O9  1  0.17790300  0.00000000  0.32421300  1
  O  O10  1  0.82209700  0.50000000  0.42578700  1
  O  O11  1  0.00000000  0.17790300  0.67578700  1
  O  O12  1  0.00000000  0.82209700  0.67578700  1
  O  O13  1  0.67790300  0.00000000  0.92578700  1
  O  O14  1  0.50000000  0.17790300  0.57421300  1
  O  O15  1  0.82209700  0.00000000  0.32421300  1
  O  O16  1  0.50000000  0.82209700  0.57421300  1
  O  O17  1  0.67790300  0.50000000  0.82421300  1
  O  O18  1  0.32209700  0.00000000  0.92578700  1
  O  O19  1  0.50000000  0.67790300  0.17578700  1
  O  O20  1  0.50000000  0.32209700  0.17578700  1
  O  O21  1  0.17790300  0.50000000  0.42578700  1
  O  O22  1  0.00000000  0.67790300  0.07421300  1
  O  O23  1  0.32209700  0.50000000  0.82421300  1
