# generated using pymatgen
data_NaCaNb2O6F
_symmetry_space_group_name_H-M   'P 1'
_cell_length_a   7.43873800
_cell_length_b   7.53081000
_cell_length_c   10.57554800
_cell_angle_alpha   90.00000000
_cell_angle_beta   90.00000000
_cell_angle_gamma   90.00000000
_symmetry_Int_Tables_number   1
_chemical_formula_structural   NaCaNb2O6F
_chemical_formula_sum   'Na4 Ca4 Nb8 O24 F4'
_cell_volume   592.43926443
_cell_formula_units_Z   4
loop_
 _symmetry_equiv_pos_site_id
 _symmetry_equiv_pos_as_xyz
  1  'x, y, z'
loop_
 _atom_site_type_symbol
 _atom_site_label
 _atom_site_symmetry_multiplicity
 _atom_site_fract_x
 _atom_site_fract_y
 _atom_site_fract_z
 _atom_site_occupancy
  Na  Na0  1  0.75000000  0.25000000  0.25000000  1
  Na  Na1  1  0.25000000  0.25000000  0.25000000  1
  Na  Na2  1  0.25000000  0.75000000  0.75000000  1
  Na  Na3  1  0.75000000  0.75000000  0.75000000  1
  Ca  Ca4  1  0.00000000  0.00000000  0.50000000  1
  Ca  Ca5  1  0.50000000  0.00000000  0.00000000  1
  Ca  Ca6  1  0.50000000  0.50000000  0.00000000  1
  Ca  Ca7  1  0.00000000  0.50000000  0.50000000  1
  Nb  Nb8  1  0.50000000  0.00000000  0.50000000  1
  Nb  Nb9  1  0.75000000  0.75000000  0.25000000  1
  Nb  Nb10  1  0.00000000  0.00000000  0.00000000  1
  Nb  Nb11  1  0.25000000  0.75000000  0.25000000  1
  Nb  Nb12  1  0.00000000  0.50000000  0.00000000  1
  Nb  Nb13  1  0.25000000  0.25000000  0.75000000  1
  Nb  Nb14  1  0.50000000  0.50000000  0.50000000  1
  Nb  Nb15  1  0.75000000  0.25000000  0.75000000  1
  O  O16  1  0.30338700  0.05978300  0.62327200  1
  O  O17  1  0.50000000  0.25000000  0.43660600  1
  O  O18  1  0.69661300  0.05978300  0.62327200  1
  O  O19  1  0.80338700  0.94021700  0.12327200  1
  O  O20  1  0.69661300  0.94021700  0.37672800  1
  O  O21  1  0.50000000  0.75000000  0.56339400  1
  O  O22  1  0.19661300  0.94021700  0.12327200  1
  O  O23  1  0.00000000  0.75000000  0.32258400  1
  O  O24  1  0.30338700  0.94021700  0.37672800  1
  O  O25  1  0.19661300  0.05978300  0.87672800  1
  O  O26  1  0.80338700  0.05978300  0.87672800  1
  O  O27  1  0.00000000  0.25000000  0.67741600  1
  O  O28  1  0.80338700  0.55978300  0.12327200  1
  O  O29  1  0.00000000  0.75000000  0.93660600  1
  O  O30  1  0.19661300  0.55978300  0.12327200  1
  O  O31  1  0.30338700  0.44021700  0.62327200  1
  O  O32  1  0.19661300  0.44021700  0.87672800  1
  O  O33  1  0.00000000  0.25000000  0.06339400  1
  O  O34  1  0.69661300  0.44021700  0.62327200  1
  O  O35  1  0.50000000  0.25000000  0.82258400  1
  O  O36  1  0.80338700  0.44021700  0.87672800  1
  O  O37  1  0.69661300  0.55978300  0.37672800  1
  O  O38  1  0.30338700  0.55978300  0.37672800  1
  O  O39  1  0.50000000  0.75000000  0.17741600  1
  F  F40  1  0.00000000  0.25000000  0.38178200  1
  F  F41  1  0.00000000  0.75000000  0.61821800  1
  F  F42  1  0.50000000  0.75000000  0.88178200  1
  F  F43  1  0.50000000  0.25000000  0.11821800  1
