# generated using pymatgen
data_K4Sn3Se8
_symmetry_space_group_name_H-M   'P 1'
_cell_length_a   8.46026800
_cell_length_b   28.23902000
_cell_length_c   8.42020200
_cell_angle_alpha   90.00000000
_cell_angle_beta   90.00000000
_cell_angle_gamma   90.00000000
_symmetry_Int_Tables_number   1
_chemical_formula_structural   K4Sn3Se8
_chemical_formula_sum   'K16 Sn12 Se32'
_cell_volume   2011.66774226
_cell_formula_units_Z   4
loop_
 _symmetry_equiv_pos_site_id
 _symmetry_equiv_pos_as_xyz
  1  'x, y, z'
loop_
 _atom_site_type_symbol
 _atom_site_label
 _atom_site_symmetry_multiplicity
 _atom_site_fract_x
 _atom_site_fract_y
 _atom_site_fract_z
 _atom_site_occupancy
  K  K0  1  0.50000000  0.39685800  0.00000000  1
  K  K1  1  0.00000000  0.10314200  0.00000000  1
  K  K2  1  0.50000000  0.10314200  0.50000000  1
  K  K3  1  0.00000000  0.39685800  0.50000000  1
  K  K4  1  0.00000000  0.23299800  0.00000000  1
  K  K5  1  0.50000000  0.26700200  0.00000000  1
  K  K6  1  0.00000000  0.26700200  0.50000000  1
  K  K7  1  0.50000000  0.23299800  0.50000000  1
  K  K8  1  0.00000000  0.89685800  0.00000000  1
  K  K9  1  0.50000000  0.60314200  0.00000000  1
  K  K10  1  0.00000000  0.60314200  0.50000000  1
  K  K11  1  0.50000000  0.89685800  0.50000000  1
  K  K12  1  0.50000000  0.73299800  0.00000000  1
  K  K13  1  0.00000000  0.76700200  0.00000000  1
  K  K14  1  0.50000000  0.76700200  0.50000000  1
  K  K15  1  0.00000000  0.73299800  0.50000000  1
  Sn  Sn16  1  0.00000000  0.37359200  0.00000000  1
  Sn  Sn17  1  0.50000000  0.12640800  0.00000000  1
  Sn  Sn18  1  0.00000000  0.12640800  0.50000000  1
  Sn  Sn19  1  0.50000000  0.37359200  0.50000000  1
  Sn  Sn20  1  0.50000000  0.00000000  0.00000000  1
  Sn  Sn21  1  0.00000000  0.00000000  0.50000000  1
  Sn  Sn22  1  0.50000000  0.87359200  0.00000000  1
  Sn  Sn23  1  0.00000000  0.62640800  0.00000000  1
  Sn  Sn24  1  0.50000000  0.62640800  0.50000000  1
  Sn  Sn25  1  0.00000000  0.87359200  0.50000000  1
  Sn  Sn26  1  0.00000000  0.50000000  0.00000000  1
  Sn  Sn27  1  0.50000000  0.50000000  0.50000000  1
  Se  Se28  1  0.83886750  0.06113050  0.66149200  1
  Se  Se29  1  0.33886750  0.43886950  0.33850800  1
  Se  Se30  1  0.33886750  0.06113050  0.83850800  1
  Se  Se31  1  0.16113250  0.06113050  0.33850800  1
  Se  Se32  1  0.83886750  0.43886950  0.16149200  1
  Se  Se33  1  0.66113250  0.06113050  0.16149200  1
  Se  Se34  1  0.32033400  0.32703000  0.68030700  1
  Se  Se35  1  0.17966600  0.17297000  0.68030700  1
  Se  Se36  1  0.82033400  0.17297000  0.31969300  1
  Se  Se37  1  0.67966600  0.32703000  0.31969300  1
  Se  Se38  1  0.67966600  0.17297000  0.81969300  1
  Se  Se39  1  0.82033400  0.32703000  0.81969300  1
  Se  Se40  1  0.17966600  0.32703000  0.18030700  1
  Se  Se41  1  0.32033400  0.17297000  0.18030700  1
  Se  Se42  1  0.16113250  0.43886950  0.83850800  1
  Se  Se43  1  0.66113250  0.43886950  0.66149200  1
  Se  Se44  1  0.33886750  0.56113050  0.66149200  1
  Se  Se45  1  0.83886750  0.93886950  0.33850800  1
  Se  Se46  1  0.83886750  0.56113050  0.83850800  1
  Se  Se47  1  0.66113250  0.56113050  0.33850800  1
  Se  Se48  1  0.33886750  0.93886950  0.16149200  1
  Se  Se49  1  0.16113250  0.56113050  0.16149200  1
  Se  Se50  1  0.82033400  0.82703000  0.68030700  1
  Se  Se51  1  0.67966600  0.67297000  0.68030700  1
  Se  Se52  1  0.32033400  0.67297000  0.31969300  1
  Se  Se53  1  0.17966600  0.82703000  0.31969300  1
  Se  Se54  1  0.17966600  0.67297000  0.81969300  1
  Se  Se55  1  0.32033400  0.82703000  0.81969300  1
  Se  Se56  1  0.67966600  0.82703000  0.18030700  1
  Se  Se57  1  0.82033400  0.67297000  0.18030700  1
  Se  Se58  1  0.66113250  0.93886950  0.83850800  1
  Se  Se59  1  0.16113250  0.93886950  0.66149200  1
