# generated using pymatgen
data_Th3N4
_symmetry_space_group_name_H-M   'P 1'
_cell_length_a   3.88176394
_cell_length_b   3.88176394
_cell_length_c   27.48142767
_cell_angle_alpha   90.00000000
_cell_angle_beta   90.00000000
_cell_angle_gamma   120.00000000
_symmetry_Int_Tables_number   1
_chemical_formula_structural   Th3N4
_chemical_formula_sum   'Th9 N12'
_cell_volume   358.61476316
_cell_formula_units_Z   3
loop_
 _symmetry_equiv_pos_site_id
 _symmetry_equiv_pos_as_xyz
  1  'x, y, z'
loop_
 _atom_site_type_symbol
 _atom_site_label
 _atom_site_symmetry_multiplicity
 _atom_site_fract_x
 _atom_site_fract_y
 _atom_site_fract_z
 _atom_site_occupancy
  Th  Th0  1  0.00000000  0.00000000  0.00000000  1
  Th  Th1  1  0.00000000  0.00000000  0.22191200  1
  Th  Th2  1  0.66666667  0.33333333  0.11142133  1
  Th  Th3  1  0.66666667  0.33333333  0.33333333  1
  Th  Th4  1  0.66666667  0.33333333  0.55524533  1
  Th  Th5  1  0.33333333  0.66666667  0.44475467  1
  Th  Th6  1  0.33333333  0.66666667  0.66666667  1
  Th  Th7  1  0.33333333  0.66666667  0.88857867  1
  Th  Th8  1  0.00000000  0.00000000  0.77808800  1
  N  N9  1  0.00000000  0.00000000  0.13253800  1
  N  N10  1  0.66666667  0.33333333  0.20079533  1
  N  N11  1  0.33333333  0.66666667  0.04361167  1
  N  N12  1  0.33333333  0.66666667  0.28972167  1
  N  N13  1  0.66666667  0.33333333  0.46587133  1
  N  N14  1  0.33333333  0.66666667  0.53412867  1
  N  N15  1  0.00000000  0.00000000  0.37694500  1
  N  N16  1  0.00000000  0.00000000  0.62305500  1
  N  N17  1  0.33333333  0.66666667  0.79920467  1
  N  N18  1  0.00000000  0.00000000  0.86746200  1
  N  N19  1  0.66666667  0.33333333  0.71027833  1
  N  N20  1  0.66666667  0.33333333  0.95638833  1
