# generated using pymatgen
data_Li4GeO4
_symmetry_space_group_name_H-M   'P 1'
_cell_length_a   7.43255000
_cell_length_b   7.87955400
_cell_length_c   6.13836500
_cell_angle_alpha   90.00000000
_cell_angle_beta   90.00000000
_cell_angle_gamma   90.00000000
_symmetry_Int_Tables_number   1
_chemical_formula_structural   Li4GeO4
_chemical_formula_sum   'Li16 Ge4 O16'
_cell_volume   359.49444550
_cell_formula_units_Z   4
loop_
 _symmetry_equiv_pos_site_id
 _symmetry_equiv_pos_as_xyz
  1  'x, y, z'
loop_
 _atom_site_type_symbol
 _atom_site_label
 _atom_site_symmetry_multiplicity
 _atom_site_fract_x
 _atom_site_fract_y
 _atom_site_fract_z
 _atom_site_occupancy
  Li  Li0  1  0.27327050  0.14788850  0.75000000  1
  Li  Li1  1  0.72672950  0.85211150  0.25000000  1
  Li  Li2  1  0.50000000  0.33814300  0.00000000  1
  Li  Li3  1  0.50000000  0.66185700  0.50000000  1
  Li  Li4  1  0.50000000  0.66185700  0.00000000  1
  Li  Li5  1  0.50000000  0.33814300  0.50000000  1
  Li  Li6  1  0.72672950  0.14788850  0.25000000  1
  Li  Li7  1  0.27327050  0.85211150  0.75000000  1
  Li  Li8  1  0.77327050  0.64788850  0.75000000  1
  Li  Li9  1  0.22672950  0.35211150  0.25000000  1
  Li  Li10  1  0.00000000  0.83814300  0.00000000  1
  Li  Li11  1  0.00000000  0.16185700  0.50000000  1
  Li  Li12  1  0.00000000  0.16185700  0.00000000  1
  Li  Li13  1  0.00000000  0.83814300  0.50000000  1
  Li  Li14  1  0.22672950  0.64788850  0.25000000  1
  Li  Li15  1  0.77327050  0.35211150  0.75000000  1
  Ge  Ge16  1  0.66129900  0.00000000  0.75000000  1
  Ge  Ge17  1  0.33870100  0.00000000  0.25000000  1
  Ge  Ge18  1  0.16129900  0.50000000  0.75000000  1
  Ge  Ge19  1  0.83870100  0.50000000  0.25000000  1
  O  O20  1  0.46130050  0.19447450  0.25000000  1
  O  O21  1  0.53869950  0.80552550  0.75000000  1
  O  O22  1  0.20370800  0.00000000  0.00754800  1
  O  O23  1  0.79629200  0.00000000  0.50754800  1
  O  O24  1  0.20370800  0.00000000  0.49245200  1
  O  O25  1  0.79629200  0.00000000  0.99245200  1
  O  O26  1  0.46130050  0.80552550  0.25000000  1
  O  O27  1  0.53869950  0.19447450  0.75000000  1
  O  O28  1  0.96130050  0.69447450  0.25000000  1
  O  O29  1  0.03869950  0.30552550  0.75000000  1
  O  O30  1  0.70370800  0.50000000  0.00754800  1
  O  O31  1  0.29629200  0.50000000  0.50754800  1
  O  O32  1  0.70370800  0.50000000  0.49245200  1
  O  O33  1  0.29629200  0.50000000  0.99245200  1
  O  O34  1  0.96130050  0.30552550  0.25000000  1
  O  O35  1  0.03869950  0.69447450  0.75000000  1
