# generated using pymatgen
data_Ba3Na2Ti3Nb2O15
_symmetry_space_group_name_H-M   'P 1'
_cell_length_a   5.68598600
_cell_length_b   28.47429200
_cell_length_c   4.02806600
_cell_angle_alpha   90.00000000
_cell_angle_beta   90.00000000
_cell_angle_gamma   90.00000000
_symmetry_Int_Tables_number   1
_chemical_formula_structural   Ba3Na2Ti3Nb2O15
_chemical_formula_sum   'Ba6 Na4 Ti6 Nb4 O30'
_cell_volume   652.16171230
_cell_formula_units_Z   2
loop_
 _symmetry_equiv_pos_site_id
 _symmetry_equiv_pos_as_xyz
  1  'x, y, z'
loop_
 _atom_site_type_symbol
 _atom_site_label
 _atom_site_symmetry_multiplicity
 _atom_site_fract_x
 _atom_site_fract_y
 _atom_site_fract_z
 _atom_site_occupancy
  Ba  Ba0  1  0.00000000  0.40090900  0.00000000  1
  Ba  Ba1  1  0.00000000  0.00000000  0.00000000  1
  Ba  Ba2  1  0.50000000  0.09909100  0.00000000  1
  Ba  Ba3  1  0.50000000  0.90090900  0.00000000  1
  Ba  Ba4  1  0.50000000  0.50000000  0.00000000  1
  Ba  Ba5  1  0.00000000  0.59909100  0.00000000  1
  Na  Na6  1  0.00000000  0.19867300  0.00000000  1
  Na  Na7  1  0.50000000  0.30132700  0.00000000  1
  Na  Na8  1  0.50000000  0.69867300  0.00000000  1
  Na  Na9  1  0.00000000  0.80132700  0.00000000  1
  Ti  Ti10  1  0.50000000  0.00000000  0.50000000  1
  Ti  Ti11  1  0.00000000  0.10104300  0.50000000  1
  Ti  Ti12  1  0.50000000  0.39895700  0.50000000  1
  Ti  Ti13  1  0.00000000  0.50000000  0.50000000  1
  Ti  Ti14  1  0.50000000  0.60104300  0.50000000  1
  Ti  Ti15  1  0.00000000  0.89895700  0.50000000  1
  Nb  Nb16  1  0.50000000  0.20061800  0.50000000  1
  Nb  Nb17  1  0.00000000  0.29938200  0.50000000  1
  Nb  Nb18  1  0.00000000  0.70061800  0.50000000  1
  Nb  Nb19  1  0.50000000  0.79938200  0.50000000  1
  O  O20  1  0.24945950  0.44978550  0.50000000  1
  O  O21  1  0.25054050  0.05021450  0.50000000  1
  O  O22  1  0.75054050  0.44978550  0.50000000  1
  O  O23  1  0.74977100  0.15003100  0.50000000  1
  O  O24  1  0.25000000  0.25000000  0.50000000  1
  O  O25  1  0.74945950  0.05021450  0.50000000  1
  O  O26  1  0.25022900  0.15003100  0.50000000  1
  O  O27  1  0.75022900  0.34996900  0.50000000  1
  O  O28  1  0.75000000  0.25000000  0.50000000  1
  O  O29  1  0.24977100  0.34996900  0.50000000  1
  O  O30  1  0.50000000  0.00000000  0.00000000  1
  O  O31  1  0.00000000  0.10066000  0.00000000  1
  O  O32  1  0.50000000  0.20059300  0.00000000  1
  O  O33  1  0.00000000  0.29940700  0.00000000  1
  O  O34  1  0.50000000  0.39934000  0.00000000  1
  O  O35  1  0.74945950  0.94978550  0.50000000  1
  O  O36  1  0.75054050  0.55021450  0.50000000  1
  O  O37  1  0.25054050  0.94978550  0.50000000  1
  O  O38  1  0.24977100  0.65003100  0.50000000  1
  O  O39  1  0.75000000  0.75000000  0.50000000  1
  O  O40  1  0.24945950  0.55021450  0.50000000  1
  O  O41  1  0.75022900  0.65003100  0.50000000  1
  O  O42  1  0.25022900  0.84996900  0.50000000  1
  O  O43  1  0.25000000  0.75000000  0.50000000  1
  O  O44  1  0.74977100  0.84996900  0.50000000  1
  O  O45  1  0.00000000  0.50000000  0.00000000  1
  O  O46  1  0.50000000  0.60066000  0.00000000  1
  O  O47  1  0.00000000  0.70059300  0.00000000  1
  O  O48  1  0.50000000  0.79940700  0.00000000  1
  O  O49  1  0.00000000  0.89934000  0.00000000  1
