# generated using pymatgen
data_K2MnH4(Cl2O)2
_symmetry_space_group_name_H-M   'P 1'
_cell_length_a   7.44718444
_cell_length_b   7.44718444
_cell_length_c   8.31832466
_cell_angle_alpha   90.00000000
_cell_angle_beta   90.00000000
_cell_angle_gamma   90.00000000
_symmetry_Int_Tables_number   1
_chemical_formula_structural   K2MnH4(Cl2O)2
_chemical_formula_sum   'K4 Mn2 H8 Cl8 O4'
_cell_volume   461.33891098
_cell_formula_units_Z   2
loop_
 _symmetry_equiv_pos_site_id
 _symmetry_equiv_pos_as_xyz
  1  'x, y, z'
loop_
 _atom_site_type_symbol
 _atom_site_label
 _atom_site_symmetry_multiplicity
 _atom_site_fract_x
 _atom_site_fract_y
 _atom_site_fract_z
 _atom_site_occupancy
  K  K0  1  0.50000000  0.00000000  0.25000000  1
  K  K1  1  0.00000000  0.50000000  0.25000000  1
  K  K2  1  0.00000000  0.50000000  0.75000000  1
  K  K3  1  0.50000000  0.00000000  0.75000000  1
  Mn  Mn4  1  0.50000000  0.50000000  0.50000000  1
  Mn  Mn5  1  0.00000000  0.00000000  0.00000000  1
  H  H6  1  0.42506950  0.42506950  0.16306575  1
  H  H7  1  0.07493050  0.92506950  0.33693425  1
  H  H8  1  0.92506950  0.07493050  0.33693425  1
  H  H9  1  0.07493050  0.07493050  0.66306575  1
  H  H10  1  0.92506950  0.92506950  0.66306575  1
  H  H11  1  0.57493050  0.42506950  0.83693425  1
  H  H12  1  0.42506950  0.57493050  0.83693425  1
  H  H13  1  0.57493050  0.57493050  0.16306575  1
  Cl  Cl14  1  0.74365050  0.25634950  0.49150388  1
  Cl  Cl15  1  0.24365050  0.24365050  0.00849612  1
  Cl  Cl16  1  0.25634950  0.25634950  0.50849612  1
  Cl  Cl17  1  0.25634950  0.74365050  0.49150388  1
  Cl  Cl18  1  0.24365050  0.75634950  0.99150388  1
  Cl  Cl19  1  0.74365050  0.74365050  0.50849612  1
  Cl  Cl20  1  0.75634950  0.75634950  0.00849612  1
  Cl  Cl21  1  0.75634950  0.24365050  0.99150388  1
  O  O22  1  0.00000000  0.00000000  0.26606737  1
  O  O23  1  0.50000000  0.50000000  0.23393263  1
  O  O24  1  0.50000000  0.50000000  0.76606737  1
  O  O25  1  0.00000000  0.00000000  0.73393263  1
