# generated using pymatgen
data_ZrTe3O8
_symmetry_space_group_name_H-M   'P 1'
_cell_length_a   11.59483200
_cell_length_b   11.59483200
_cell_length_c   11.59483200
_cell_angle_alpha   90.00000000
_cell_angle_beta   90.00000000
_cell_angle_gamma   90.00000000
_symmetry_Int_Tables_number   1
_chemical_formula_structural   ZrTe3O8
_chemical_formula_sum   'Zr8 Te24 O64'
_cell_volume   1558.81071107
_cell_formula_units_Z   8
loop_
 _symmetry_equiv_pos_site_id
 _symmetry_equiv_pos_as_xyz
  1  'x, y, z'
loop_
 _atom_site_type_symbol
 _atom_site_label
 _atom_site_symmetry_multiplicity
 _atom_site_fract_x
 _atom_site_fract_y
 _atom_site_fract_z
 _atom_site_occupancy
  Zr  Zr0  1  0.75000000  0.25000000  0.25000000  1
  Zr  Zr1  1  0.25000000  0.25000000  0.75000000  1
  Zr  Zr2  1  0.25000000  0.75000000  0.25000000  1
  Zr  Zr3  1  0.25000000  0.25000000  0.25000000  1
  Zr  Zr4  1  0.25000000  0.75000000  0.75000000  1
  Zr  Zr5  1  0.75000000  0.75000000  0.25000000  1
  Zr  Zr6  1  0.75000000  0.25000000  0.75000000  1
  Zr  Zr7  1  0.75000000  0.75000000  0.75000000  1
  Te  Te8  1  0.25000000  0.55155000  0.00000000  1
  Te  Te9  1  0.50000000  0.25000000  0.44845000  1
  Te  Te10  1  0.55155000  0.00000000  0.25000000  1
  Te  Te11  1  0.00000000  0.25000000  0.55155000  1
  Te  Te12  1  0.44845000  0.50000000  0.25000000  1
  Te  Te13  1  0.25000000  0.44845000  0.50000000  1
  Te  Te14  1  0.25000000  0.94845000  0.50000000  1
  Te  Te15  1  0.00000000  0.25000000  0.05155000  1
  Te  Te16  1  0.94845000  0.50000000  0.25000000  1
  Te  Te17  1  0.50000000  0.25000000  0.94845000  1
  Te  Te18  1  0.05155000  0.00000000  0.25000000  1
  Te  Te19  1  0.25000000  0.05155000  0.00000000  1
  Te  Te20  1  0.75000000  0.05155000  0.50000000  1
  Te  Te21  1  0.00000000  0.75000000  0.94845000  1
  Te  Te22  1  0.05155000  0.50000000  0.75000000  1
  Te  Te23  1  0.50000000  0.75000000  0.05155000  1
  Te  Te24  1  0.94845000  0.00000000  0.75000000  1
  Te  Te25  1  0.75000000  0.94845000  0.00000000  1
  Te  Te26  1  0.75000000  0.44845000  0.00000000  1
  Te  Te27  1  0.50000000  0.75000000  0.55155000  1
  Te  Te28  1  0.44845000  0.00000000  0.75000000  1
  Te  Te29  1  0.00000000  0.75000000  0.44845000  1
  Te  Te30  1  0.55155000  0.50000000  0.75000000  1
  Te  Te31  1  0.75000000  0.55155000  0.50000000  1
  O  O32  1  0.31447400  0.65456300  0.89085800  1
  O  O33  1  0.18552600  0.65456300  0.10914200  1
  O  O34  1  0.31447400  0.34543700  0.60914200  1
  O  O35  1  0.34543700  0.39085800  0.18552600  1
  O  O36  1  0.39085800  0.18552600  0.34543700  1
  O  O37  1  0.89085800  0.31447400  0.65456300  1
  O  O38  1  0.65456300  0.10914200  0.18552600  1
  O  O39  1  0.60914200  0.31447400  0.34543700  1
  O  O40  1  0.65456300  0.89085800  0.31447400  1
  O  O41  1  0.10914200  0.18552600  0.65456300  1
  O  O42  1  0.34543700  0.60914200  0.31447400  1
  O  O43  1  0.18552600  0.34543700  0.39085800  1
  O  O44  1  0.18552600  0.84543700  0.60914200  1
  O  O45  1  0.31447400  0.84543700  0.39085800  1
  O  O46  1  0.18552600  0.15456300  0.89085800  1
  O  O47  1  0.15456300  0.10914200  0.31447400  1
  O  O48  1  0.08448050  0.08448050  0.08448050  1
  O  O49  1  0.08448050  0.91551950  0.41551950  1
  O  O50  1  0.41551950  0.08448050  0.91551950  1
  O  O51  1  0.91551950  0.41551950  0.08448050  1
  O  O52  1  0.41551950  0.41551950  0.41551950  1
  O  O53  1  0.91551950  0.08448050  0.58448050  1
  O  O54  1  0.58448050  0.91551950  0.08448050  1
  O  O55  1  0.08448050  0.58448050  0.91551950  1
  O  O56  1  0.31447400  0.15456300  0.10914200  1
  O  O57  1  0.15456300  0.89085800  0.18552600  1
  O  O58  1  0.39085800  0.31447400  0.84543700  1
  O  O59  1  0.84543700  0.60914200  0.18552600  1
  O  O60  1  0.89085800  0.18552600  0.15456300  1
  O  O61  1  0.84543700  0.39085800  0.31447400  1
  O  O62  1  0.60914200  0.18552600  0.84543700  1
  O  O63  1  0.10914200  0.31447400  0.15456300  1
  O  O64  1  0.81447400  0.15456300  0.39085800  1
  O  O65  1  0.68552600  0.15456300  0.60914200  1
  O  O66  1  0.81447400  0.84543700  0.10914200  1
  O  O67  1  0.84543700  0.89085800  0.68552600  1
  O  O68  1  0.89085800  0.68552600  0.84543700  1
  O  O69  1  0.39085800  0.81447400  0.15456300  1
  O  O70  1  0.15456300  0.60914200  0.68552600  1
  O  O71  1  0.10914200  0.81447400  0.84543700  1
  O  O72  1  0.15456300  0.39085800  0.81447400  1
  O  O73  1  0.60914200  0.68552600  0.15456300  1
  O  O74  1  0.84543700  0.10914200  0.81447400  1
  O  O75  1  0.68552600  0.84543700  0.89085800  1
  O  O76  1  0.68552600  0.34543700  0.10914200  1
  O  O77  1  0.81447400  0.34543700  0.89085800  1
  O  O78  1  0.68552600  0.65456300  0.39085800  1
  O  O79  1  0.65456300  0.60914200  0.81447400  1
  O  O80  1  0.58448050  0.58448050  0.58448050  1
  O  O81  1  0.58448050  0.41551950  0.91551950  1
  O  O82  1  0.91551950  0.58448050  0.41551950  1
  O  O83  1  0.41551950  0.91551950  0.58448050  1
  O  O84  1  0.91551950  0.91551950  0.91551950  1
  O  O85  1  0.41551950  0.58448050  0.08448050  1
  O  O86  1  0.08448050  0.41551950  0.58448050  1
  O  O87  1  0.58448050  0.08448050  0.41551950  1
  O  O88  1  0.81447400  0.65456300  0.60914200  1
  O  O89  1  0.65456300  0.39085800  0.68552600  1
  O  O90  1  0.89085800  0.81447400  0.34543700  1
  O  O91  1  0.34543700  0.10914200  0.68552600  1
  O  O92  1  0.39085800  0.68552600  0.65456300  1
  O  O93  1  0.34543700  0.89085800  0.81447400  1
  O  O94  1  0.10914200  0.68552600  0.34543700  1
  O  O95  1  0.60914200  0.81447400  0.65456300  1
