# generated using pymatgen
data_CaAl4O7
_symmetry_space_group_name_H-M   'P 1'
_cell_length_a   12.97667800
_cell_length_b   8.96697400
_cell_length_c   5.49729139
_cell_angle_alpha   90.00000000
_cell_angle_beta   106.31493518
_cell_angle_gamma   90.00000000
_symmetry_Int_Tables_number   1
_chemical_formula_structural   CaAl4O7
_chemical_formula_sum   'Ca4 Al16 O28'
_cell_volume   613.91496022
_cell_formula_units_Z   4
loop_
 _symmetry_equiv_pos_site_id
 _symmetry_equiv_pos_as_xyz
  1  'x, y, z'
loop_
 _atom_site_type_symbol
 _atom_site_label
 _atom_site_symmetry_multiplicity
 _atom_site_fract_x
 _atom_site_fract_y
 _atom_site_fract_z
 _atom_site_occupancy
  Ca  Ca0  1  0.50000000  0.69518800  0.25000000  1
  Ca  Ca1  1  0.50000000  0.30481200  0.75000000  1
  Ca  Ca2  1  0.00000000  0.19518800  0.25000000  1
  Ca  Ca3  1  0.00000000  0.80481200  0.75000000  1
  Al  Al4  1  0.37958400  0.06023600  0.25610900  1
  Al  Al5  1  0.62041600  0.06023600  0.24389100  1
  Al  Al6  1  0.62041600  0.93976400  0.74389100  1
  Al  Al7  1  0.37958400  0.93976400  0.75610900  1
  Al  Al8  1  0.83676850  0.91432850  0.19427800  1
  Al  Al9  1  0.16323150  0.91432850  0.30572200  1
  Al  Al10  1  0.16323150  0.08567150  0.80572200  1
  Al  Al11  1  0.83676850  0.08567150  0.69427800  1
  Al  Al12  1  0.87958400  0.56023600  0.25610900  1
  Al  Al13  1  0.12041600  0.56023600  0.24389100  1
  Al  Al14  1  0.12041600  0.43976400  0.74389100  1
  Al  Al15  1  0.87958400  0.43976400  0.75610900  1
  Al  Al16  1  0.33676850  0.41432850  0.19427800  1
  Al  Al17  1  0.66323150  0.41432850  0.30572200  1
  Al  Al18  1  0.66323150  0.58567150  0.80572200  1
  Al  Al19  1  0.33676850  0.58567150  0.69427800  1
  O  O20  1  0.30706300  0.05550600  0.92018500  1
  O  O21  1  0.69293700  0.05550600  0.57981500  1
  O  O22  1  0.69293700  0.94449400  0.07981500  1
  O  O23  1  0.30706300  0.94449400  0.42018500  1
  O  O24  1  0.38171650  0.24602350  0.34991800  1
  O  O25  1  0.61828350  0.24602350  0.15008200  1
  O  O26  1  0.61828350  0.75397650  0.65008200  1
  O  O27  1  0.38171650  0.75397650  0.84991800  1
  O  O28  1  0.88436950  0.94573150  0.92760300  1
  O  O29  1  0.11563050  0.94573150  0.57239700  1
  O  O30  1  0.50000000  0.03138700  0.75000000  1
  O  O31  1  0.50000000  0.96861300  0.25000000  1
  O  O32  1  0.88436950  0.05426850  0.42760300  1
  O  O33  1  0.11563050  0.05426850  0.07239700  1
  O  O34  1  0.80706300  0.55550600  0.92018500  1
  O  O35  1  0.19293700  0.55550600  0.57981500  1
  O  O36  1  0.19293700  0.44449400  0.07981500  1
  O  O37  1  0.80706300  0.44449400  0.42018500  1
  O  O38  1  0.88171650  0.74602350  0.34991800  1
  O  O39  1  0.11828350  0.74602350  0.15008200  1
  O  O40  1  0.11828350  0.25397650  0.65008200  1
  O  O41  1  0.88171650  0.25397650  0.84991800  1
  O  O42  1  0.38436950  0.44573150  0.92760300  1
  O  O43  1  0.61563050  0.44573150  0.57239700  1
  O  O44  1  0.00000000  0.53138700  0.75000000  1
  O  O45  1  0.00000000  0.46861300  0.25000000  1
  O  O46  1  0.38436950  0.55426850  0.42760300  1
  O  O47  1  0.61563050  0.55426850  0.07239700  1
