# generated using pymatgen
data_NaCdF3
_symmetry_space_group_name_H-M   'P 1'
_cell_length_a   5.83176401
_cell_length_b   5.83176401
_cell_length_c   15.40040191
_cell_angle_alpha   90.00000000
_cell_angle_beta   90.00000000
_cell_angle_gamma   120.00000000
_symmetry_Int_Tables_number   1
_chemical_formula_structural   NaCdF3
_chemical_formula_sum   'Na6 Cd6 F18'
_cell_volume   453.58905799
_cell_formula_units_Z   6
loop_
 _symmetry_equiv_pos_site_id
 _symmetry_equiv_pos_as_xyz
  1  'x, y, z'
loop_
 _atom_site_type_symbol
 _atom_site_label
 _atom_site_symmetry_multiplicity
 _atom_site_fract_x
 _atom_site_fract_y
 _atom_site_fract_z
 _atom_site_occupancy
  Na  Na0  1  0.00000000  0.00000000  0.29073100  1
  Na  Na1  1  0.66666667  0.33333333  0.12406433  1
  Na  Na2  1  0.66666667  0.33333333  0.62406433  1
  Na  Na3  1  0.33333333  0.66666667  0.45739767  1
  Na  Na4  1  0.33333333  0.66666667  0.95739767  1
  Na  Na5  1  0.00000000  0.00000000  0.79073100  1
  Cd  Cd6  1  0.00000000  0.00000000  0.00126200  1
  Cd  Cd7  1  0.33333333  0.66666667  0.16792867  1
  Cd  Cd8  1  0.66666667  0.33333333  0.33459533  1
  Cd  Cd9  1  0.00000000  0.00000000  0.50126200  1
  Cd  Cd10  1  0.33333333  0.66666667  0.66792867  1
  Cd  Cd11  1  0.66666667  0.33333333  0.83459533  1
  F  F12  1  0.04506600  0.68338800  0.06800200  1
  F  F13  1  0.31661200  0.36167800  0.06800200  1
  F  F14  1  0.63832200  0.95493400  0.06800200  1
  F  F15  1  0.97165533  0.35005467  0.23466867  1
  F  F16  1  0.37839933  0.02834467  0.23466867  1
  F  F17  1  0.64994533  0.62160067  0.23466867  1
  F  F18  1  0.71173267  0.01672133  0.40133533  1
  F  F19  1  0.98327867  0.69501133  0.40133533  1
  F  F20  1  0.30498867  0.28826733  0.40133533  1
  F  F21  1  0.63832200  0.68338800  0.56800200  1
  F  F22  1  0.04506600  0.36167800  0.56800200  1
  F  F23  1  0.31661200  0.95493400  0.56800200  1
  F  F24  1  0.37839933  0.35005467  0.73466867  1
  F  F25  1  0.64994533  0.02834467  0.73466867  1
  F  F26  1  0.97165533  0.62160067  0.73466867  1
  F  F27  1  0.30498867  0.01672133  0.90133533  1
  F  F28  1  0.71173267  0.69501133  0.90133533  1
  F  F29  1  0.98327867  0.28826733  0.90133533  1
