# generated using pymatgen
data_Sc2S3
_symmetry_space_group_name_H-M   'P 1'
_cell_length_a   7.43841000
_cell_length_b   10.44421200
_cell_length_c   22.15881200
_cell_angle_alpha   90.00000000
_cell_angle_beta   90.00000000
_cell_angle_gamma   90.00000000
_symmetry_Int_Tables_number   1
_chemical_formula_structural   Sc2S3
_chemical_formula_sum   'Sc32 S48'
_cell_volume   1721.48112084
_cell_formula_units_Z   16
loop_
 _symmetry_equiv_pos_site_id
 _symmetry_equiv_pos_as_xyz
  1  'x, y, z'
loop_
 _atom_site_type_symbol
 _atom_site_label
 _atom_site_symmetry_multiplicity
 _atom_site_fract_x
 _atom_site_fract_y
 _atom_site_fract_z
 _atom_site_occupancy
  Sc  Sc0  1  0.75000000  0.75000000  0.16651100  1
  Sc  Sc1  1  0.75000000  0.75000000  0.33348900  1
  Sc  Sc2  1  0.00000000  0.00000000  0.08348900  1
  Sc  Sc3  1  0.50000000  0.00000000  0.41651100  1
  Sc  Sc4  1  0.75000000  0.25000000  0.00232200  1
  Sc  Sc5  1  0.75000000  0.25000000  0.49767800  1
  Sc  Sc6  1  0.50000000  0.00000000  0.24767800  1
  Sc  Sc7  1  0.00000000  0.00000000  0.25232200  1
  Sc  Sc8  1  0.75000000  0.25000000  0.66651100  1
  Sc  Sc9  1  0.75000000  0.25000000  0.83348900  1
  Sc  Sc10  1  0.00000000  0.50000000  0.58348900  1
  Sc  Sc11  1  0.50000000  0.50000000  0.91651100  1
  Sc  Sc12  1  0.75000000  0.75000000  0.50232200  1
  Sc  Sc13  1  0.75000000  0.75000000  0.99767800  1
  Sc  Sc14  1  0.50000000  0.50000000  0.74767800  1
  Sc  Sc15  1  0.00000000  0.50000000  0.75232200  1
  Sc  Sc16  1  0.25000000  0.75000000  0.66651100  1
  Sc  Sc17  1  0.25000000  0.75000000  0.83348900  1
  Sc  Sc18  1  0.50000000  0.00000000  0.58348900  1
  Sc  Sc19  1  0.00000000  0.00000000  0.91651100  1
  Sc  Sc20  1  0.25000000  0.25000000  0.50232200  1
  Sc  Sc21  1  0.25000000  0.25000000  0.99767800  1
  Sc  Sc22  1  0.00000000  0.00000000  0.74767800  1
  Sc  Sc23  1  0.50000000  0.00000000  0.75232200  1
  Sc  Sc24  1  0.25000000  0.25000000  0.16651100  1
  Sc  Sc25  1  0.25000000  0.25000000  0.33348900  1
  Sc  Sc26  1  0.50000000  0.50000000  0.08348900  1
  Sc  Sc27  1  0.00000000  0.50000000  0.41651100  1
  Sc  Sc28  1  0.25000000  0.75000000  0.00232200  1
  Sc  Sc29  1  0.25000000  0.75000000  0.49767800  1
  Sc  Sc30  1  0.00000000  0.50000000  0.24767800  1
  Sc  Sc31  1  0.50000000  0.50000000  0.25232200  1
  S  S32  1  0.50935100  0.75000000  0.25000000  1
  S  S33  1  0.99064900  0.75000000  0.25000000  1
  S  S34  1  0.24064900  0.00000000  0.00000000  1
  S  S35  1  0.75935100  0.00000000  0.00000000  1
  S  S36  1  0.74166550  0.99533900  0.33063950  1
  S  S37  1  0.24166550  0.00466100  0.16936050  1
  S  S38  1  0.75833450  0.99533900  0.16936050  1
  S  S39  1  0.25833450  0.00466100  0.33063950  1
  S  S40  1  0.00833450  0.25466100  0.41936050  1
  S  S41  1  0.50833450  0.74533900  0.08063950  1
  S  S42  1  0.49166550  0.25466100  0.08063950  1
  S  S43  1  0.99166550  0.74533900  0.41936050  1
  S  S44  1  0.50935100  0.25000000  0.75000000  1
  S  S45  1  0.99064900  0.25000000  0.75000000  1
  S  S46  1  0.24064900  0.50000000  0.50000000  1
  S  S47  1  0.75935100  0.50000000  0.50000000  1
  S  S48  1  0.74166550  0.49533900  0.83063950  1
  S  S49  1  0.24166550  0.50466100  0.66936050  1
  S  S50  1  0.75833450  0.49533900  0.66936050  1
  S  S51  1  0.25833450  0.50466100  0.83063950  1
  S  S52  1  0.00833450  0.75466100  0.91936050  1
  S  S53  1  0.50833450  0.24533900  0.58063950  1
  S  S54  1  0.49166550  0.75466100  0.58063950  1
  S  S55  1  0.99166550  0.24533900  0.91936050  1
  S  S56  1  0.00935100  0.75000000  0.75000000  1
  S  S57  1  0.49064900  0.75000000  0.75000000  1
  S  S58  1  0.74064900  0.00000000  0.50000000  1
  S  S59  1  0.25935100  0.00000000  0.50000000  1
  S  S60  1  0.24166550  0.99533900  0.83063950  1
  S  S61  1  0.74166550  0.00466100  0.66936050  1
  S  S62  1  0.25833450  0.99533900  0.66936050  1
  S  S63  1  0.75833450  0.00466100  0.83063950  1
  S  S64  1  0.50833450  0.25466100  0.91936050  1
  S  S65  1  0.00833450  0.74533900  0.58063950  1
  S  S66  1  0.99166550  0.25466100  0.58063950  1
  S  S67  1  0.49166550  0.74533900  0.91936050  1
  S  S68  1  0.00935100  0.25000000  0.25000000  1
  S  S69  1  0.49064900  0.25000000  0.25000000  1
  S  S70  1  0.74064900  0.50000000  0.00000000  1
  S  S71  1  0.25935100  0.50000000  0.00000000  1
  S  S72  1  0.24166550  0.49533900  0.33063950  1
  S  S73  1  0.74166550  0.50466100  0.16936050  1
  S  S74  1  0.25833450  0.49533900  0.16936050  1
  S  S75  1  0.75833450  0.50466100  0.33063950  1
  S  S76  1  0.50833450  0.75466100  0.41936050  1
  S  S77  1  0.00833450  0.24533900  0.08063950  1
  S  S78  1  0.99166550  0.75466100  0.08063950  1
  S  S79  1  0.49166550  0.24533900  0.41936050  1
