# generated using pymatgen
data_Sr3(PO4)2
_symmetry_space_group_name_H-M   'P 1'
_cell_length_a   5.46055162
_cell_length_b   5.46055162
_cell_length_c   20.04026629
_cell_angle_alpha   90.00000000
_cell_angle_beta   90.00000000
_cell_angle_gamma   120.00000000
_symmetry_Int_Tables_number   1
_chemical_formula_structural   Sr3(PO4)2
_chemical_formula_sum   'Sr9 P6 O24'
_cell_volume   517.49618659
_cell_formula_units_Z   3
loop_
 _symmetry_equiv_pos_site_id
 _symmetry_equiv_pos_as_xyz
  1  'x, y, z'
loop_
 _atom_site_type_symbol
 _atom_site_label
 _atom_site_symmetry_multiplicity
 _atom_site_fract_x
 _atom_site_fract_y
 _atom_site_fract_z
 _atom_site_occupancy
  Sr  Sr0  1  0.00000000  0.00000000  0.00000000  1
  Sr  Sr1  1  0.00000000  0.00000000  0.20782200  1
  Sr  Sr2  1  0.66666667  0.33333333  0.12551133  1
  Sr  Sr3  1  0.66666667  0.33333333  0.33333333  1
  Sr  Sr4  1  0.66666667  0.33333333  0.54115533  1
  Sr  Sr5  1  0.33333333  0.66666667  0.45884467  1
  Sr  Sr6  1  0.33333333  0.66666667  0.66666667  1
  Sr  Sr7  1  0.33333333  0.66666667  0.87448867  1
  Sr  Sr8  1  0.00000000  0.00000000  0.79217800  1
  P  P9  1  0.33333333  0.66666667  0.07298967  1
  P  P10  1  0.33333333  0.66666667  0.26034367  1
  P  P11  1  0.00000000  0.00000000  0.40632300  1
  P  P12  1  0.00000000  0.00000000  0.59367700  1
  P  P13  1  0.66666667  0.33333333  0.73965633  1
  P  P14  1  0.66666667  0.33333333  0.92701033  1
  O  O15  1  0.00000000  0.00000000  0.32919900  1
  O  O16  1  0.66666667  0.33333333  0.00413433  1
  O  O17  1  0.17766867  0.82233133  0.09936433  1
  O  O18  1  0.17766867  0.35533733  0.09936433  1
  O  O19  1  0.64466267  0.82233133  0.09936433  1
  O  O20  1  0.48899800  0.51100200  0.23396900  1
  O  O21  1  0.48899800  0.97799600  0.23396900  1
  O  O22  1  0.02200400  0.51100200  0.23396900  1
  O  O23  1  0.66666667  0.33333333  0.66253233  1
  O  O24  1  0.33333333  0.66666667  0.33746767  1
  O  O25  1  0.84433533  0.15566467  0.43269767  1
  O  O26  1  0.84433533  0.68867067  0.43269767  1
  O  O27  1  0.31132933  0.15566467  0.43269767  1
  O  O28  1  0.15566467  0.84433533  0.56730233  1
  O  O29  1  0.15566467  0.31132933  0.56730233  1
  O  O30  1  0.68867067  0.84433533  0.56730233  1
  O  O31  1  0.33333333  0.66666667  0.99586567  1
  O  O32  1  0.00000000  0.00000000  0.67080100  1
  O  O33  1  0.51100200  0.48899800  0.76603100  1
  O  O34  1  0.51100200  0.02200400  0.76603100  1
  O  O35  1  0.97799600  0.48899800  0.76603100  1
  O  O36  1  0.82233133  0.17766867  0.90063567  1
  O  O37  1  0.82233133  0.64466267  0.90063567  1
  O  O38  1  0.35533733  0.17766867  0.90063567  1
