# generated using pymatgen
data_ZnGeAs2
_symmetry_space_group_name_H-M   'P 1'
_cell_length_a   5.75862200
_cell_length_b   5.75862200
_cell_length_c   11.37251400
_cell_angle_alpha   90.00000000
_cell_angle_beta   90.00000000
_cell_angle_gamma   90.00000000
_symmetry_Int_Tables_number   1
_chemical_formula_structural   ZnGeAs2
_chemical_formula_sum   'Zn4 Ge4 As8'
_cell_volume   377.13220843
_cell_formula_units_Z   4
loop_
 _symmetry_equiv_pos_site_id
 _symmetry_equiv_pos_as_xyz
  1  'x, y, z'
loop_
 _atom_site_type_symbol
 _atom_site_label
 _atom_site_symmetry_multiplicity
 _atom_site_fract_x
 _atom_site_fract_y
 _atom_site_fract_z
 _atom_site_occupancy
  Zn  Zn0  1  0.00000000  0.00000000  0.00000000  1
  Zn  Zn1  1  0.00000000  0.50000000  0.25000000  1
  Zn  Zn2  1  0.50000000  0.50000000  0.50000000  1
  Zn  Zn3  1  0.50000000  0.00000000  0.75000000  1
  Ge  Ge4  1  0.50000000  0.50000000  0.00000000  1
  Ge  Ge5  1  0.50000000  0.00000000  0.25000000  1
  Ge  Ge6  1  0.00000000  0.00000000  0.50000000  1
  Ge  Ge7  1  0.00000000  0.50000000  0.75000000  1
  As  As8  1  0.25000000  0.24961900  0.37500000  1
  As  As9  1  0.74961900  0.25000000  0.12500000  1
  As  As10  1  0.25038100  0.75000000  0.12500000  1
  As  As11  1  0.75000000  0.75038100  0.37500000  1
  As  As12  1  0.75000000  0.74961900  0.87500000  1
  As  As13  1  0.24961900  0.75000000  0.62500000  1
  As  As14  1  0.75038100  0.25000000  0.62500000  1
  As  As15  1  0.25000000  0.25038100  0.87500000  1
