# generated using pymatgen
data_CaSO4
_symmetry_space_group_name_H-M   'P 1'
_cell_length_a   6.29186600
_cell_length_b   7.10308800
_cell_length_c   7.09405700
_cell_angle_alpha   90.00000000
_cell_angle_beta   90.00000000
_cell_angle_gamma   90.00000000
_symmetry_Int_Tables_number   1
_chemical_formula_structural   CaSO4
_chemical_formula_sum   'Ca4 S4 O16'
_cell_volume   317.04531032
_cell_formula_units_Z   4
loop_
 _symmetry_equiv_pos_site_id
 _symmetry_equiv_pos_as_xyz
  1  'x, y, z'
loop_
 _atom_site_type_symbol
 _atom_site_label
 _atom_site_symmetry_multiplicity
 _atom_site_fract_x
 _atom_site_fract_y
 _atom_site_fract_z
 _atom_site_occupancy
  Ca  Ca0  1  0.34845100  0.00000000  0.75000000  1
  Ca  Ca1  1  0.65154900  0.00000000  0.25000000  1
  Ca  Ca2  1  0.84845100  0.50000000  0.75000000  1
  Ca  Ca3  1  0.15154900  0.50000000  0.25000000  1
  S  S4  1  0.84380600  0.00000000  0.75000000  1
  S  S5  1  0.15619400  0.00000000  0.25000000  1
  S  S6  1  0.34380600  0.50000000  0.75000000  1
  S  S7  1  0.65619400  0.50000000  0.25000000  1
  O  O8  1  0.48395300  0.33105500  0.75000000  1
  O  O9  1  0.51604700  0.66894500  0.25000000  1
  O  O10  1  0.48395300  0.66894500  0.75000000  1
  O  O11  1  0.51604700  0.33105500  0.25000000  1
  O  O12  1  0.29895700  0.00000000  0.08226100  1
  O  O13  1  0.70104300  0.00000000  0.58226100  1
  O  O14  1  0.29895700  0.00000000  0.41773900  1
  O  O15  1  0.70104300  0.00000000  0.91773900  1
  O  O16  1  0.98395300  0.83105500  0.75000000  1
  O  O17  1  0.01604700  0.16894500  0.25000000  1
  O  O18  1  0.98395300  0.16894500  0.75000000  1
  O  O19  1  0.01604700  0.83105500  0.25000000  1
  O  O20  1  0.79895700  0.50000000  0.08226100  1
  O  O21  1  0.20104300  0.50000000  0.58226100  1
  O  O22  1  0.79895700  0.50000000  0.41773900  1
  O  O23  1  0.20104300  0.50000000  0.91773900  1
