# generated using pymatgen
data_Sr4PtO6
_symmetry_space_group_name_H-M   'P 1'
_cell_length_a   9.86349051
_cell_length_b   9.86349051
_cell_length_c   12.02002696
_cell_angle_alpha   90.00000000
_cell_angle_beta   90.00000000
_cell_angle_gamma   120.00000000
_symmetry_Int_Tables_number   1
_chemical_formula_structural   Sr4PtO6
_chemical_formula_sum   'Sr24 Pt6 O36'
_cell_volume   1012.73853690
_cell_formula_units_Z   6
loop_
 _symmetry_equiv_pos_site_id
 _symmetry_equiv_pos_as_xyz
  1  'x, y, z'
loop_
 _atom_site_type_symbol
 _atom_site_label
 _atom_site_symmetry_multiplicity
 _atom_site_fract_x
 _atom_site_fract_y
 _atom_site_fract_z
 _atom_site_occupancy
  Sr  Sr0  1  0.70154633  0.66666667  0.41666667  1
  Sr  Sr1  1  0.33333333  0.03487967  0.41666667  1
  Sr  Sr2  1  0.96512033  0.29845367  0.41666667  1
  Sr  Sr3  1  0.29845367  0.33333333  0.58333333  1
  Sr  Sr4  1  0.66666667  0.96512033  0.58333333  1
  Sr  Sr5  1  0.03487967  0.70154633  0.58333333  1
  Sr  Sr6  1  0.00000000  0.00000000  0.75000000  1
  Sr  Sr7  1  0.00000000  0.00000000  0.25000000  1
  Sr  Sr8  1  0.36821300  0.00000000  0.75000000  1
  Sr  Sr9  1  0.00000000  0.36821300  0.75000000  1
  Sr  Sr10  1  0.63178700  0.63178700  0.75000000  1
  Sr  Sr11  1  0.96512033  0.66666667  0.91666667  1
  Sr  Sr12  1  0.33333333  0.29845367  0.91666667  1
  Sr  Sr13  1  0.70154633  0.03487967  0.91666667  1
  Sr  Sr14  1  0.66666667  0.33333333  0.08333333  1
  Sr  Sr15  1  0.66666667  0.33333333  0.58333333  1
  Sr  Sr16  1  0.03487967  0.33333333  0.08333333  1
  Sr  Sr17  1  0.66666667  0.70154633  0.08333333  1
  Sr  Sr18  1  0.29845367  0.96512033  0.08333333  1
  Sr  Sr19  1  0.63178700  0.00000000  0.25000000  1
  Sr  Sr20  1  0.00000000  0.63178700  0.25000000  1
  Sr  Sr21  1  0.36821300  0.36821300  0.25000000  1
  Sr  Sr22  1  0.33333333  0.66666667  0.41666667  1
  Sr  Sr23  1  0.33333333  0.66666667  0.91666667  1
  Pt  Pt24  1  0.00000000  0.00000000  0.50000000  1
  Pt  Pt25  1  0.00000000  0.00000000  0.00000000  1
  Pt  Pt26  1  0.66666667  0.33333333  0.83333333  1
  Pt  Pt27  1  0.66666667  0.33333333  0.33333333  1
  Pt  Pt28  1  0.33333333  0.66666667  0.16666667  1
  Pt  Pt29  1  0.33333333  0.66666667  0.66666667  1
  O  O30  1  0.18591700  0.02819100  0.60036000  1
  O  O31  1  0.97180900  0.15772600  0.60036000  1
  O  O32  1  0.84227400  0.81408300  0.60036000  1
  O  O33  1  0.49105933  0.63847567  0.56630667  1
  O  O34  1  0.36152433  0.85258367  0.56630667  1
  O  O35  1  0.14741633  0.50894067  0.56630667  1
  O  O36  1  0.81408300  0.97180900  0.39964000  1
  O  O37  1  0.02819100  0.84227400  0.39964000  1
  O  O38  1  0.15772600  0.18591700  0.39964000  1
  O  O39  1  0.50894067  0.36152433  0.43369333  1
  O  O40  1  0.85258367  0.49105933  0.43369333  1
  O  O41  1  0.63847567  0.14741633  0.43369333  1
  O  O42  1  0.85258367  0.36152433  0.93369333  1
  O  O43  1  0.63847567  0.49105933  0.93369333  1
  O  O44  1  0.50894067  0.14741633  0.93369333  1
  O  O45  1  0.15772600  0.97180900  0.89964000  1
  O  O46  1  0.02819100  0.18591700  0.89964000  1
  O  O47  1  0.81408300  0.84227400  0.89964000  1
  O  O48  1  0.48074967  0.30514233  0.73297333  1
  O  O49  1  0.69485767  0.17560733  0.73297333  1
  O  O50  1  0.82439267  0.51925033  0.73297333  1
  O  O51  1  0.17560733  0.69485767  0.76702667  1
  O  O52  1  0.51925033  0.82439267  0.76702667  1
  O  O53  1  0.30514233  0.48074967  0.76702667  1
  O  O54  1  0.51925033  0.69485767  0.26702667  1
  O  O55  1  0.30514233  0.82439267  0.26702667  1
  O  O56  1  0.17560733  0.48074967  0.26702667  1
  O  O57  1  0.82439267  0.30514233  0.23297333  1
  O  O58  1  0.69485767  0.51925033  0.23297333  1
  O  O59  1  0.48074967  0.17560733  0.23297333  1
  O  O60  1  0.14741633  0.63847567  0.06630667  1
  O  O61  1  0.36152433  0.50894067  0.06630667  1
  O  O62  1  0.49105933  0.85258367  0.06630667  1
  O  O63  1  0.84227400  0.02819100  0.10036000  1
  O  O64  1  0.18591700  0.15772600  0.10036000  1
  O  O65  1  0.97180900  0.81408300  0.10036000  1
