# generated using pymatgen
data_Li8SnO6
_symmetry_space_group_name_H-M   'P 1'
_cell_length_a   5.53153415
_cell_length_b   5.53153415
_cell_length_c   15.47479711
_cell_angle_alpha   90.00000000
_cell_angle_beta   90.00000000
_cell_angle_gamma   120.00000000
_symmetry_Int_Tables_number   1
_chemical_formula_structural   Li8SnO6
_chemical_formula_sum   'Li24 Sn3 O18'
_cell_volume   410.05941904
_cell_formula_units_Z   3
loop_
 _symmetry_equiv_pos_site_id
 _symmetry_equiv_pos_as_xyz
  1  'x, y, z'
loop_
 _atom_site_type_symbol
 _atom_site_label
 _atom_site_symmetry_multiplicity
 _atom_site_fract_x
 _atom_site_fract_y
 _atom_site_fract_z
 _atom_site_occupancy
  Li  Li0  1  0.98019700  0.35483700  0.12024800  1
  Li  Li1  1  0.37464000  0.01980300  0.12024800  1
  Li  Li2  1  0.64516300  0.62536000  0.12024800  1
  Li  Li3  1  0.68646967  0.97849633  0.21308533  1
  Li  Li4  1  0.29202667  0.31353033  0.21308533  1
  Li  Li5  1  0.02150367  0.70797333  0.21308533  1
  Li  Li6  1  0.33333333  0.66666667  0.01133067  1
  Li  Li7  1  0.33333333  0.66666667  0.32200267  1
  Li  Li8  1  0.64686367  0.68817033  0.45358133  1
  Li  Li9  1  0.04130667  0.35313633  0.45358133  1
  Li  Li10  1  0.31182967  0.95869333  0.45358133  1
  Li  Li11  1  0.35313633  0.31182967  0.54641867  1
  Li  Li12  1  0.95869333  0.64686367  0.54641867  1
  Li  Li13  1  0.68817033  0.04130667  0.54641867  1
  Li  Li14  1  0.00000000  0.00000000  0.34466400  1
  Li  Li15  1  0.00000000  0.00000000  0.65533600  1
  Li  Li16  1  0.31353033  0.02150367  0.78691467  1
  Li  Li17  1  0.70797333  0.68646967  0.78691467  1
  Li  Li18  1  0.97849633  0.29202667  0.78691467  1
  Li  Li19  1  0.01980300  0.64516300  0.87975200  1
  Li  Li20  1  0.62536000  0.98019700  0.87975200  1
  Li  Li21  1  0.35483700  0.37464000  0.87975200  1
  Li  Li22  1  0.66666667  0.33333333  0.67799733  1
  Li  Li23  1  0.66666667  0.33333333  0.98866933  1
  Sn  Sn24  1  0.00000000  0.00000000  0.00000000  1
  Sn  Sn25  1  0.66666667  0.33333333  0.33333333  1
  Sn  Sn26  1  0.33333333  0.66666667  0.66666667  1
  O  O27  1  0.65398400  0.63685000  0.25223400  1
  O  O28  1  0.68380067  0.98731733  0.08109933  1
  O  O29  1  0.30351667  0.31619933  0.08109933  1
  O  O30  1  0.01268267  0.69648333  0.08109933  1
  O  O31  1  0.98286600  0.34601600  0.25223400  1
  O  O32  1  0.36315000  0.01713400  0.25223400  1
  O  O33  1  0.32065067  0.97018333  0.58556733  1
  O  O34  1  0.35046733  0.32065067  0.41443267  1
  O  O35  1  0.97018333  0.64953267  0.41443267  1
  O  O36  1  0.67934933  0.02981667  0.41443267  1
  O  O37  1  0.64953267  0.67934933  0.58556733  1
  O  O38  1  0.02981667  0.35046733  0.58556733  1
  O  O39  1  0.98731733  0.30351667  0.91890067  1
  O  O40  1  0.01713400  0.65398400  0.74776600  1
  O  O41  1  0.63685000  0.98286600  0.74776600  1
  O  O42  1  0.34601600  0.36315000  0.74776600  1
  O  O43  1  0.31619933  0.01268267  0.91890067  1
  O  O44  1  0.69648333  0.68380067  0.91890067  1
