# generated using pymatgen
data_ErPO4
_symmetry_space_group_name_H-M   'P 1'
_cell_length_a   6.91187000
_cell_length_b   6.91187000
_cell_length_c   6.01885600
_cell_angle_alpha   90.00000000
_cell_angle_beta   90.00000000
_cell_angle_gamma   90.00000000
_symmetry_Int_Tables_number   1
_chemical_formula_structural   ErPO4
_chemical_formula_sum   'Er4 P4 O16'
_cell_volume   287.54450692
_cell_formula_units_Z   4
loop_
 _symmetry_equiv_pos_site_id
 _symmetry_equiv_pos_as_xyz
  1  'x, y, z'
loop_
 _atom_site_type_symbol
 _atom_site_label
 _atom_site_symmetry_multiplicity
 _atom_site_fract_x
 _atom_site_fract_y
 _atom_site_fract_z
 _atom_site_occupancy
  Er  Er0  1  0.50000000  0.00000000  0.75000000  1
  Er  Er1  1  0.00000000  0.00000000  0.50000000  1
  Er  Er2  1  0.00000000  0.50000000  0.25000000  1
  Er  Er3  1  0.50000000  0.50000000  0.00000000  1
  P  P4  1  0.50000000  0.50000000  0.50000000  1
  P  P5  1  0.50000000  0.00000000  0.25000000  1
  P  P6  1  0.00000000  0.00000000  0.00000000  1
  P  P7  1  0.00000000  0.50000000  0.75000000  1
  O  O8  1  0.00000000  0.32473200  0.58827800  1
  O  O9  1  0.67526800  0.50000000  0.33827800  1
  O  O10  1  0.82473200  0.00000000  0.83827800  1
  O  O11  1  0.00000000  0.67526800  0.58827800  1
  O  O12  1  0.32473200  0.00000000  0.41172200  1
  O  O13  1  0.00000000  0.17526800  0.16172200  1
  O  O14  1  0.50000000  0.32473200  0.66172200  1
  O  O15  1  0.67526800  0.00000000  0.41172200  1
  O  O16  1  0.50000000  0.82473200  0.08827800  1
  O  O17  1  0.17526800  0.00000000  0.83827800  1
  O  O18  1  0.32473200  0.50000000  0.33827800  1
  O  O19  1  0.50000000  0.17526800  0.08827800  1
  O  O20  1  0.82473200  0.50000000  0.91172200  1
  O  O21  1  0.50000000  0.67526800  0.66172200  1
  O  O22  1  0.00000000  0.82473200  0.16172200  1
  O  O23  1  0.17526800  0.50000000  0.91172200  1
