# generated using pymatgen
data_Na3Ti2P2O10F
_symmetry_space_group_name_H-M   'P 1'
_cell_length_a   9.16763800
_cell_length_b   9.19814200
_cell_length_c   10.76583000
_cell_angle_alpha   90.00000000
_cell_angle_beta   90.00000000
_cell_angle_gamma   90.00000000
_symmetry_Int_Tables_number   1
_chemical_formula_structural   Na3Ti2P2O10F
_chemical_formula_sum   'Na12 Ti8 P8 O40 F4'
_cell_volume   907.83115687
_cell_formula_units_Z   4
loop_
 _symmetry_equiv_pos_site_id
 _symmetry_equiv_pos_as_xyz
  1  'x, y, z'
loop_
 _atom_site_type_symbol
 _atom_site_label
 _atom_site_symmetry_multiplicity
 _atom_site_fract_x
 _atom_site_fract_y
 _atom_site_fract_z
 _atom_site_occupancy
  Na  Na0  1  0.72048300  0.98153600  0.00000000  1
  Na  Na1  1  0.50000000  0.23619700  0.00000000  1
  Na  Na2  1  0.27951700  0.98153600  0.00000000  1
  Na  Na3  1  0.72048300  0.48153600  0.50000000  1
  Na  Na4  1  0.50000000  0.73619700  0.50000000  1
  Na  Na5  1  0.27951700  0.48153600  0.50000000  1
  Na  Na6  1  0.22048300  0.48153600  0.00000000  1
  Na  Na7  1  0.00000000  0.73619700  0.00000000  1
  Na  Na8  1  0.77951700  0.48153600  0.00000000  1
  Na  Na9  1  0.22048300  0.98153600  0.50000000  1
  Na  Na10  1  0.00000000  0.23619700  0.50000000  1
  Na  Na11  1  0.77951700  0.98153600  0.50000000  1
  Ti  Ti12  1  0.00000000  0.00857250  0.19980550  1
  Ti  Ti13  1  0.50000000  0.00857250  0.30019450  1
  Ti  Ti14  1  0.00000000  0.50857250  0.69980550  1
  Ti  Ti15  1  0.50000000  0.50857250  0.80019450  1
  Ti  Ti16  1  0.50000000  0.50857250  0.19980550  1
  Ti  Ti17  1  0.00000000  0.50857250  0.30019450  1
  Ti  Ti18  1  0.50000000  0.00857250  0.69980550  1
  Ti  Ti19  1  0.00000000  0.00857250  0.80019450  1
  P  P20  1  0.25000000  0.24879000  0.25000000  1
  P  P21  1  0.25000000  0.74879000  0.25000000  1
  P  P22  1  0.25000000  0.74879000  0.75000000  1
  P  P23  1  0.25000000  0.24879000  0.75000000  1
  P  P24  1  0.75000000  0.74879000  0.25000000  1
  P  P25  1  0.75000000  0.24879000  0.25000000  1
  P  P26  1  0.75000000  0.24879000  0.75000000  1
  P  P27  1  0.75000000  0.74879000  0.75000000  1
  O  O28  1  0.34269950  0.15168000  0.33811850  1
  O  O29  1  0.15730050  0.15168000  0.16188150  1
  O  O30  1  0.34723300  0.34522350  0.16605750  1
  O  O31  1  0.00000000  0.01957850  0.35772550  1
  O  O32  1  0.15276700  0.34522350  0.33394250  1
  O  O33  1  0.34269950  0.65168000  0.16188150  1
  O  O34  1  0.50000000  0.01957850  0.14227450  1
  O  O35  1  0.15730050  0.65168000  0.33811850  1
  O  O36  1  0.34723300  0.84522350  0.33394250  1
  O  O37  1  0.15276700  0.84522350  0.16605750  1
  O  O38  1  0.34269950  0.65168000  0.83811850  1
  O  O39  1  0.15730050  0.65168000  0.66188150  1
  O  O40  1  0.34723300  0.84522350  0.66605750  1
  O  O41  1  0.00000000  0.51957850  0.85772550  1
  O  O42  1  0.15276700  0.84522350  0.83394250  1
  O  O43  1  0.34269950  0.15168000  0.66188150  1
  O  O44  1  0.50000000  0.51957850  0.64227450  1
  O  O45  1  0.15730050  0.15168000  0.83811850  1
  O  O46  1  0.34723300  0.34522350  0.83394250  1
  O  O47  1  0.15276700  0.34522350  0.66605750  1
  O  O48  1  0.84269950  0.65168000  0.33811850  1
  O  O49  1  0.65730050  0.65168000  0.16188150  1
  O  O50  1  0.84723300  0.84522350  0.16605750  1
  O  O51  1  0.50000000  0.51957850  0.35772550  1
  O  O52  1  0.65276700  0.84522350  0.33394250  1
  O  O53  1  0.84269950  0.15168000  0.16188150  1
  O  O54  1  0.00000000  0.51957850  0.14227450  1
  O  O55  1  0.65730050  0.15168000  0.33811850  1
  O  O56  1  0.84723300  0.34522350  0.33394250  1
  O  O57  1  0.65276700  0.34522350  0.16605750  1
  O  O58  1  0.84269950  0.15168000  0.83811850  1
  O  O59  1  0.65730050  0.15168000  0.66188150  1
  O  O60  1  0.84723300  0.34522350  0.66605750  1
  O  O61  1  0.50000000  0.01957850  0.85772550  1
  O  O62  1  0.65276700  0.34522350  0.83394250  1
  O  O63  1  0.84269950  0.65168000  0.66188150  1
  O  O64  1  0.00000000  0.01957850  0.64227450  1
  O  O65  1  0.65730050  0.65168000  0.83811850  1
  O  O66  1  0.84723300  0.84522350  0.83394250  1
  O  O67  1  0.65276700  0.84522350  0.66605750  1
  F  F68  1  0.50000000  0.49001400  0.00000000  1
  F  F69  1  0.50000000  0.99001400  0.50000000  1
  F  F70  1  0.00000000  0.99001400  0.00000000  1
  F  F71  1  0.00000000  0.49001400  0.50000000  1
