# generated using pymatgen
data_HoPO4
_symmetry_space_group_name_H-M   'P 1'
_cell_length_a   6.93711600
_cell_length_b   6.93711600
_cell_length_c   6.03959200
_cell_angle_alpha   90.00000000
_cell_angle_beta   90.00000000
_cell_angle_gamma   90.00000000
_symmetry_Int_Tables_number   1
_chemical_formula_structural   HoPO4
_chemical_formula_sum   'Ho4 P4 O16'
_cell_volume   290.64677910
_cell_formula_units_Z   4
loop_
 _symmetry_equiv_pos_site_id
 _symmetry_equiv_pos_as_xyz
  1  'x, y, z'
loop_
 _atom_site_type_symbol
 _atom_site_label
 _atom_site_symmetry_multiplicity
 _atom_site_fract_x
 _atom_site_fract_y
 _atom_site_fract_z
 _atom_site_occupancy
  Ho  Ho0  1  0.50000000  0.00000000  0.75000000  1
  Ho  Ho1  1  0.00000000  0.00000000  0.50000000  1
  Ho  Ho2  1  0.00000000  0.50000000  0.25000000  1
  Ho  Ho3  1  0.50000000  0.50000000  0.00000000  1
  P  P4  1  0.50000000  0.50000000  0.50000000  1
  P  P5  1  0.50000000  0.00000000  0.25000000  1
  P  P6  1  0.00000000  0.00000000  0.00000000  1
  P  P7  1  0.00000000  0.50000000  0.75000000  1
  O  O8  1  0.00000000  0.32517950  0.58904950  1
  O  O9  1  0.67482050  0.50000000  0.33904950  1
  O  O10  1  0.82517950  0.00000000  0.83904950  1
  O  O11  1  0.00000000  0.67482050  0.58904950  1
  O  O12  1  0.32517950  0.00000000  0.41095050  1
  O  O13  1  0.00000000  0.17482050  0.16095050  1
  O  O14  1  0.50000000  0.32517950  0.66095050  1
  O  O15  1  0.67482050  0.00000000  0.41095050  1
  O  O16  1  0.50000000  0.82517950  0.08904950  1
  O  O17  1  0.17482050  0.00000000  0.83904950  1
  O  O18  1  0.32517950  0.50000000  0.33904950  1
  O  O19  1  0.50000000  0.17482050  0.08904950  1
  O  O20  1  0.82517950  0.50000000  0.91095050  1
  O  O21  1  0.50000000  0.67482050  0.66095050  1
  O  O22  1  0.00000000  0.82517950  0.16095050  1
  O  O23  1  0.17482050  0.50000000  0.91095050  1
