# generated using pymatgen
data_ThTi2O6
_symmetry_space_group_name_H-M   'P 1'
_cell_length_a   10.89127000
_cell_length_b   8.64584400
_cell_length_c   5.23574558
_cell_angle_alpha   90.00000000
_cell_angle_beta   114.90256498
_cell_angle_gamma   90.00000000
_symmetry_Int_Tables_number   1
_chemical_formula_structural   ThTi2O6
_chemical_formula_sum   'Th4 Ti8 O24'
_cell_volume   447.18146162
_cell_formula_units_Z   4
loop_
 _symmetry_equiv_pos_site_id
 _symmetry_equiv_pos_as_xyz
  1  'x, y, z'
loop_
 _atom_site_type_symbol
 _atom_site_label
 _atom_site_symmetry_multiplicity
 _atom_site_fract_x
 _atom_site_fract_y
 _atom_site_fract_z
 _atom_site_occupancy
  Th  Th0  1  0.00000000  0.81137900  0.75000000  1
  Th  Th1  1  0.00000000  0.18862100  0.25000000  1
  Th  Th2  1  0.50000000  0.31137900  0.75000000  1
  Th  Th3  1  0.50000000  0.68862100  0.25000000  1
  Ti  Ti4  1  0.76973350  0.41836850  0.55965100  1
  Ti  Ti5  1  0.23026650  0.41836850  0.94034900  1
  Ti  Ti6  1  0.23026650  0.58163150  0.44034900  1
  Ti  Ti7  1  0.76973350  0.58163150  0.05965100  1
  Ti  Ti8  1  0.26973350  0.91836850  0.55965100  1
  Ti  Ti9  1  0.73026650  0.91836850  0.94034900  1
  Ti  Ti10  1  0.73026650  0.08163150  0.44034900  1
  Ti  Ti11  1  0.26973350  0.08163150  0.05965100  1
  O  O12  1  0.14050350  0.74207350  0.53433400  1
  O  O13  1  0.85949650  0.74207350  0.96566600  1
  O  O14  1  0.85949650  0.25792650  0.46566600  1
  O  O15  1  0.14050350  0.25792650  0.03433400  1
  O  O16  1  0.86055650  0.41032750  0.96677300  1
  O  O17  1  0.13944350  0.41032750  0.53322700  1
  O  O18  1  0.36390850  0.45815150  0.34890000  1
  O  O19  1  0.63609150  0.45815150  0.15110000  1
  O  O20  1  0.63609150  0.54184850  0.65110000  1
  O  O21  1  0.36390850  0.54184850  0.84890000  1
  O  O22  1  0.86055650  0.58967250  0.46677300  1
  O  O23  1  0.13944350  0.58967250  0.03322700  1
  O  O24  1  0.64050350  0.24207350  0.53433400  1
  O  O25  1  0.35949650  0.24207350  0.96566600  1
  O  O26  1  0.35949650  0.75792650  0.46566600  1
  O  O27  1  0.64050350  0.75792650  0.03433400  1
  O  O28  1  0.36055650  0.91032750  0.96677300  1
  O  O29  1  0.63944350  0.91032750  0.53322700  1
  O  O30  1  0.86390850  0.95815150  0.34890000  1
  O  O31  1  0.13609150  0.95815150  0.15110000  1
  O  O32  1  0.13609150  0.04184850  0.65110000  1
  O  O33  1  0.86390850  0.04184850  0.84890000  1
  O  O34  1  0.36055650  0.08967250  0.46677300  1
  O  O35  1  0.63944350  0.08967250  0.03322700  1
