# generated using pymatgen
data_CsTiNiOF5
_symmetry_space_group_name_H-M   'P 1'
_cell_length_a   7.27154550
_cell_length_b   7.40781650
_cell_length_c   10.59831693
_cell_angle_alpha   90.00000000
_cell_angle_beta   90.00000000
_cell_angle_gamma   90.00000000
_symmetry_Int_Tables_number   1
_chemical_formula_structural   CsTiNiOF5
_chemical_formula_sum   'Cs4 Ti4 Ni4 O4 F20'
_cell_volume   570.89185150
_cell_formula_units_Z   4
loop_
 _symmetry_equiv_pos_site_id
 _symmetry_equiv_pos_as_xyz
  1  'x, y, z'
loop_
 _atom_site_type_symbol
 _atom_site_label
 _atom_site_symmetry_multiplicity
 _atom_site_fract_x
 _atom_site_fract_y
 _atom_site_fract_z
 _atom_site_occupancy
  Cs  Cs0  1  0.50000000  0.75000000  0.62348300  1
  Cs  Cs1  1  0.50000000  0.25000000  0.37651700  1
  Cs  Cs2  1  0.00000000  0.25000000  0.12348300  1
  Cs  Cs3  1  0.00000000  0.75000000  0.87651700  1
  Ti  Ti4  1  0.75000000  0.75000000  0.25000000  1
  Ti  Ti5  1  0.25000000  0.75000000  0.25000000  1
  Ti  Ti6  1  0.25000000  0.25000000  0.75000000  1
  Ti  Ti7  1  0.75000000  0.25000000  0.75000000  1
  Ni  Ni8  1  0.00000000  0.50000000  0.50000000  1
  Ni  Ni9  1  0.00000000  0.00000000  0.50000000  1
  Ni  Ni10  1  0.50000000  0.00000000  0.00000000  1
  Ni  Ni11  1  0.50000000  0.50000000  0.00000000  1
  O  O12  1  0.50000000  0.75000000  0.29246875  1
  O  O13  1  0.50000000  0.25000000  0.70753125  1
  O  O14  1  0.00000000  0.25000000  0.79246875  1
  O  O15  1  0.00000000  0.75000000  0.20753125  1
  F  F16  1  0.00000000  0.75000000  0.57184975  1
  F  F17  1  0.00000000  0.25000000  0.42815025  1
  F  F18  1  0.20644950  0.43809050  0.62401850  1
  F  F19  1  0.20644950  0.06190950  0.62401850  1
  F  F20  1  0.79355050  0.43809050  0.62401850  1
  F  F21  1  0.20644950  0.93809050  0.37598150  1
  F  F22  1  0.79355050  0.06190950  0.62401850  1
  F  F23  1  0.20644950  0.56190950  0.37598150  1
  F  F24  1  0.79355050  0.93809050  0.37598150  1
  F  F25  1  0.79355050  0.56190950  0.37598150  1
  F  F26  1  0.50000000  0.25000000  0.07184975  1
  F  F27  1  0.50000000  0.75000000  0.92815025  1
  F  F28  1  0.70644950  0.93809050  0.12401850  1
  F  F29  1  0.70644950  0.56190950  0.12401850  1
  F  F30  1  0.29355050  0.93809050  0.12401850  1
  F  F31  1  0.70644950  0.43809050  0.87598150  1
  F  F32  1  0.29355050  0.56190950  0.12401850  1
  F  F33  1  0.70644950  0.06190950  0.87598150  1
  F  F34  1  0.29355050  0.43809050  0.87598150  1
  F  F35  1  0.29355050  0.06190950  0.87598150  1
