# generated using pymatgen
data_Na3Sr7Ta3Ti7O30
_symmetry_space_group_name_H-M   'P 1'
_cell_length_a   7.94250700
_cell_length_b   3.95631700
_cell_length_c   19.81127548
_cell_angle_alpha   90.00000000
_cell_angle_beta   90.05299736
_cell_angle_gamma   90.00000000
_symmetry_Int_Tables_number   1
_chemical_formula_structural   Na3Sr7Ta3Ti7O30
_chemical_formula_sum   'Na3 Sr7 Ta3 Ti7 O30'
_cell_volume   622.53093803
_cell_formula_units_Z   1
loop_
 _symmetry_equiv_pos_site_id
 _symmetry_equiv_pos_as_xyz
  1  'x, y, z'
loop_
 _atom_site_type_symbol
 _atom_site_label
 _atom_site_symmetry_multiplicity
 _atom_site_fract_x
 _atom_site_fract_y
 _atom_site_fract_z
 _atom_site_occupancy
  Na  Na0  1  0.50610500  0.00000000  0.00895700  1
  Na  Na1  1  0.47964500  0.00000000  0.79140100  1
  Na  Na2  1  0.01970300  0.00000000  0.79326500  1
  Sr  Sr3  1  0.00494600  0.00000000  0.00572800  1
  Sr  Sr4  1  0.50610800  0.00000000  0.19836600  1
  Sr  Sr5  1  0.50468000  0.00000000  0.39779200  1
  Sr  Sr6  1  0.00785200  0.00000000  0.19882400  1
  Sr  Sr7  1  0.00419000  0.00000000  0.39788000  1
  Sr  Sr8  1  0.49461400  0.00000000  0.59630800  1
  Sr  Sr9  1  0.00804200  0.00000000  0.59644700  1
  Ta  Ta10  1  0.75021700  0.50000000  0.70088500  1
  Ta  Ta11  1  0.25216400  0.50000000  0.89738100  1
  Ta  Ta12  1  0.74752200  0.50000000  0.90092800  1
  Ti  Ti13  1  0.26361300  0.50000000  0.09793400  1
  Ti  Ti14  1  0.75798900  0.50000000  0.29828700  1
  Ti  Ti15  1  0.25825500  0.50000000  0.29729100  1
  Ti  Ti16  1  0.75677900  0.50000000  0.10039600  1
  Ti  Ti17  1  0.25576700  0.50000000  0.49646200  1
  Ti  Ti18  1  0.25038100  0.50000000  0.69729300  1
  Ti  Ti19  1  0.75589900  0.50000000  0.49715900  1
  O  O20  1  0.24377600  0.00000000  0.10303500  1
  O  O21  1  0.24416200  0.00000000  0.90273300  1
  O  O22  1  0.75365100  0.00000000  0.90321800  1
  O  O23  1  0.24640800  0.50000000  0.20182000  1
  O  O24  1  0.49638200  0.50000000  0.10328400  1
  O  O25  1  0.75525600  0.50000000  0.00174300  1
  O  O26  1  0.99423300  0.50000000  0.10284400  1
  O  O27  1  0.23930200  0.50000000  0.00193200  1
  O  O28  1  0.49541300  0.50000000  0.30151300  1
  O  O29  1  0.74461800  0.50000000  0.20173400  1
  O  O30  1  0.24805800  0.50000000  0.59998100  1
  O  O31  1  0.49597500  0.50000000  0.50015200  1
  O  O32  1  0.74645300  0.50000000  0.40080400  1
  O  O33  1  0.99508400  0.50000000  0.30114200  1
  O  O34  1  0.24579700  0.50000000  0.40093500  1
  O  O35  1  0.49916200  0.50000000  0.69774700  1
  O  O36  1  0.74770300  0.50000000  0.59990900  1
  O  O37  1  0.49913000  0.50000000  0.90269500  1
  O  O38  1  0.74830500  0.50000000  0.80082900  1
  O  O39  1  0.99900700  0.50000000  0.69778000  1
  O  O40  1  0.24967900  0.50000000  0.80035600  1
  O  O41  1  0.99639800  0.50000000  0.50030300  1
  O  O42  1  0.99908700  0.50000000  0.90305300  1
  O  O43  1  0.24559200  0.00000000  0.30154700  1
  O  O44  1  0.24694500  0.00000000  0.50036400  1
  O  O45  1  0.74885900  0.00000000  0.10285100  1
  O  O46  1  0.24951700  0.00000000  0.69734700  1
  O  O47  1  0.74557700  0.00000000  0.30134000  1
  O  O48  1  0.74687100  0.00000000  0.50021800  1
  O  O49  1  0.74912900  0.00000000  0.69780500  1
