# generated using pymatgen
data_Sr2PdO3
_symmetry_space_group_name_H-M   'P 1'
_cell_length_a   3.58088200
_cell_length_b   4.04934800
_cell_length_c   12.90943000
_cell_angle_alpha   90.00000000
_cell_angle_beta   90.00000000
_cell_angle_gamma   90.00000000
_symmetry_Int_Tables_number   1
_chemical_formula_structural   Sr2PdO3
_chemical_formula_sum   'Sr4 Pd2 O6'
_cell_volume   187.18979925
_cell_formula_units_Z   2
loop_
 _symmetry_equiv_pos_site_id
 _symmetry_equiv_pos_as_xyz
  1  'x, y, z'
loop_
 _atom_site_type_symbol
 _atom_site_label
 _atom_site_symmetry_multiplicity
 _atom_site_fract_x
 _atom_site_fract_y
 _atom_site_fract_z
 _atom_site_occupancy
  Sr  Sr0  1  0.00000000  0.00000000  0.64701800  1
  Sr  Sr1  1  0.50000000  0.50000000  0.85298200  1
  Sr  Sr2  1  0.50000000  0.50000000  0.14701800  1
  Sr  Sr3  1  0.00000000  0.00000000  0.35298200  1
  Pd  Pd4  1  0.00000000  0.00000000  0.00000000  1
  Pd  Pd5  1  0.50000000  0.50000000  0.50000000  1
  O  O6  1  0.00000000  0.00000000  0.83923800  1
  O  O7  1  0.50000000  0.50000000  0.66076200  1
  O  O8  1  0.00000000  0.50000000  0.00000000  1
  O  O9  1  0.50000000  0.50000000  0.33923800  1
  O  O10  1  0.00000000  0.00000000  0.16076200  1
  O  O11  1  0.50000000  0.00000000  0.50000000  1
