# generated using pymatgen
data_BeS
_symmetry_space_group_name_H-M   'P 1'
_cell_length_a   4.87452000
_cell_length_b   4.87452000
_cell_length_c   4.87452000
_cell_angle_alpha   90.00000000
_cell_angle_beta   90.00000000
_cell_angle_gamma   90.00000000
_symmetry_Int_Tables_number   1
_chemical_formula_structural   BeS
_chemical_formula_sum   'Be4 S4'
_cell_volume   115.82320274
_cell_formula_units_Z   4
loop_
 _symmetry_equiv_pos_site_id
 _symmetry_equiv_pos_as_xyz
  1  'x, y, z'
loop_
 _atom_site_type_symbol
 _atom_site_label
 _atom_site_symmetry_multiplicity
 _atom_site_fract_x
 _atom_site_fract_y
 _atom_site_fract_z
 _atom_site_occupancy
  Be  Be0  1  0.00000000  0.00000000  0.00000000  1
  Be  Be1  1  0.00000000  0.50000000  0.50000000  1
  Be  Be2  1  0.50000000  0.00000000  0.50000000  1
  Be  Be3  1  0.50000000  0.50000000  0.00000000  1
  S  S4  1  0.25000000  0.25000000  0.75000000  1
  S  S5  1  0.25000000  0.75000000  0.25000000  1
  S  S6  1  0.75000000  0.25000000  0.25000000  1
  S  S7  1  0.75000000  0.75000000  0.75000000  1
