# generated using pymatgen
data_SrHfO3
_symmetry_space_group_name_H-M   'P 1'
_cell_length_a   8.18197200
_cell_length_b   8.27047600
_cell_length_c   8.22876400
_cell_angle_alpha   90.00000000
_cell_angle_beta   90.00000000
_cell_angle_gamma   90.00000000
_symmetry_Int_Tables_number   1
_chemical_formula_structural   SrHfO3
_chemical_formula_sum   'Sr8 Hf8 O24'
_cell_volume   556.83061053
_cell_formula_units_Z   8
loop_
 _symmetry_equiv_pos_site_id
 _symmetry_equiv_pos_as_xyz
  1  'x, y, z'
loop_
 _atom_site_type_symbol
 _atom_site_label
 _atom_site_symmetry_multiplicity
 _atom_site_fract_x
 _atom_site_fract_y
 _atom_site_fract_z
 _atom_site_occupancy
  Sr  Sr0  1  0.50000000  0.50959500  0.75000000  1
  Sr  Sr1  1  0.50000000  0.49040500  0.25000000  1
  Sr  Sr2  1  0.50000000  0.00612100  0.75000000  1
  Sr  Sr3  1  0.50000000  0.99387900  0.25000000  1
  Sr  Sr4  1  0.00000000  0.00959500  0.75000000  1
  Sr  Sr5  1  0.00000000  0.99040500  0.25000000  1
  Sr  Sr6  1  0.00000000  0.50612100  0.75000000  1
  Sr  Sr7  1  0.00000000  0.49387900  0.25000000  1
  Hf  Hf8  1  0.25000000  0.75000000  0.00000000  1
  Hf  Hf9  1  0.25000000  0.75000000  0.50000000  1
  Hf  Hf10  1  0.25000000  0.25000000  0.00000000  1
  Hf  Hf11  1  0.25000000  0.25000000  0.50000000  1
  Hf  Hf12  1  0.75000000  0.25000000  0.00000000  1
  Hf  Hf13  1  0.75000000  0.25000000  0.50000000  1
  Hf  Hf14  1  0.75000000  0.75000000  0.00000000  1
  Hf  Hf15  1  0.75000000  0.75000000  0.50000000  1
  O  O16  1  0.70601350  0.74583750  0.75000000  1
  O  O17  1  0.29398650  0.25416250  0.25000000  1
  O  O18  1  0.70601350  0.25416250  0.25000000  1
  O  O19  1  0.29398650  0.74583750  0.75000000  1
  O  O20  1  0.50000000  0.28184900  0.54280100  1
  O  O21  1  0.50000000  0.71815100  0.04280100  1
  O  O22  1  0.50000000  0.71815100  0.45719900  1
  O  O23  1  0.50000000  0.28184900  0.95719900  1
  O  O24  1  0.28420200  0.00000000  0.00000000  1
  O  O25  1  0.71579800  0.00000000  0.50000000  1
  O  O26  1  0.71579800  0.00000000  0.00000000  1
  O  O27  1  0.28420200  0.00000000  0.50000000  1
  O  O28  1  0.20601350  0.24583750  0.75000000  1
  O  O29  1  0.79398650  0.75416250  0.25000000  1
  O  O30  1  0.20601350  0.75416250  0.25000000  1
  O  O31  1  0.79398650  0.24583750  0.75000000  1
  O  O32  1  0.00000000  0.78184900  0.54280100  1
  O  O33  1  0.00000000  0.21815100  0.04280100  1
  O  O34  1  0.00000000  0.21815100  0.45719900  1
  O  O35  1  0.00000000  0.78184900  0.95719900  1
  O  O36  1  0.78420200  0.50000000  0.00000000  1
  O  O37  1  0.21579800  0.50000000  0.50000000  1
  O  O38  1  0.21579800  0.50000000  0.00000000  1
  O  O39  1  0.78420200  0.50000000  0.50000000  1
