# generated using pymatgen
data_NaNdTiNbO6F
_symmetry_space_group_name_H-M   'P 1'
_cell_length_a   7.37842900
_cell_length_b   7.37842900
_cell_length_c   10.47547700
_cell_angle_alpha   90.00000000
_cell_angle_beta   90.00000000
_cell_angle_gamma   90.00000000
_symmetry_Int_Tables_number   1
_chemical_formula_structural   NaNdTiNbO6F
_chemical_formula_sum   'Na4 Nd4 Ti4 Nb4 O24 F4'
_cell_volume   570.29769043
_cell_formula_units_Z   4
loop_
 _symmetry_equiv_pos_site_id
 _symmetry_equiv_pos_as_xyz
  1  'x, y, z'
loop_
 _atom_site_type_symbol
 _atom_site_label
 _atom_site_symmetry_multiplicity
 _atom_site_fract_x
 _atom_site_fract_y
 _atom_site_fract_z
 _atom_site_occupancy
  Na  Na0  1  0.50000000  0.72960600  0.00000000  1
  Na  Na1  1  0.50000000  0.27039400  0.50000000  1
  Na  Na2  1  0.72960600  0.50000000  0.75000000  1
  Na  Na3  1  0.27039400  0.50000000  0.25000000  1
  Nd  Nd4  1  0.00000000  0.72599400  0.00000000  1
  Nd  Nd5  1  0.27400600  0.00000000  0.25000000  1
  Nd  Nd6  1  0.72599400  0.00000000  0.75000000  1
  Nd  Nd7  1  0.00000000  0.27400600  0.50000000  1
  Ti  Ti8  1  0.76467100  0.00000000  0.25000000  1
  Ti  Ti9  1  0.00000000  0.23532900  0.00000000  1
  Ti  Ti10  1  0.23532900  0.00000000  0.75000000  1
  Ti  Ti11  1  0.00000000  0.76467100  0.50000000  1
  Nb  Nb12  1  0.50000000  0.75748300  0.50000000  1
  Nb  Nb13  1  0.24251700  0.50000000  0.75000000  1
  Nb  Nb14  1  0.50000000  0.24251700  0.00000000  1
  Nb  Nb15  1  0.75748300  0.50000000  0.25000000  1
  O  O16  1  0.55672200  0.94810100  0.36771000  1
  O  O17  1  0.75146800  0.77319000  0.57173900  1
  O  O18  1  0.95836600  0.95836600  0.37500000  1
  O  O19  1  0.04163400  0.04163400  0.87500000  1
  O  O20  1  0.05189900  0.44327800  0.88229000  1
  O  O21  1  0.04163400  0.95836600  0.62500000  1
  O  O22  1  0.22681000  0.24853200  0.67826100  1
  O  O23  1  0.22681000  0.75146800  0.82173900  1
  O  O24  1  0.24853200  0.22681000  0.07173900  1
  O  O25  1  0.44327800  0.05189900  0.86771000  1
  O  O26  1  0.43784100  0.43784100  0.87500000  1
  O  O27  1  0.44327800  0.94810100  0.63229000  1
  O  O28  1  0.56215900  0.43784100  0.12500000  1
  O  O29  1  0.56215900  0.56215900  0.37500000  1
  O  O30  1  0.55672200  0.05189900  0.13229000  1
  O  O31  1  0.77319000  0.75146800  0.17826100  1
  O  O32  1  0.75146800  0.22681000  0.92826100  1
  O  O33  1  0.77319000  0.24853200  0.32173900  1
  O  O34  1  0.94810100  0.55672200  0.38229000  1
  O  O35  1  0.95836600  0.04163400  0.12500000  1
  O  O36  1  0.94810100  0.44327800  0.11771000  1
  O  O37  1  0.05189900  0.55672200  0.61771000  1
  O  O38  1  0.24853200  0.77319000  0.42826100  1
  O  O39  1  0.43784100  0.56215900  0.62500000  1
  F  F40  1  0.74128300  0.25871700  0.62500000  1
  F  F41  1  0.25871700  0.74128300  0.12500000  1
  F  F42  1  0.25871700  0.25871700  0.37500000  1
  F  F43  1  0.74128300  0.74128300  0.87500000  1
