# generated using pymatgen
data_Sr2SnO4
_symmetry_space_group_name_H-M   'P 1'
_cell_length_a   5.79993400
_cell_length_b   12.58094600
_cell_length_c   5.91903600
_cell_angle_alpha   90.00000000
_cell_angle_beta   90.00000000
_cell_angle_gamma   90.00000000
_symmetry_Int_Tables_number   1
_chemical_formula_structural   Sr2SnO4
_chemical_formula_sum   'Sr8 Sn4 O16'
_cell_volume   431.90410444
_cell_formula_units_Z   4
loop_
 _symmetry_equiv_pos_site_id
 _symmetry_equiv_pos_as_xyz
  1  'x, y, z'
loop_
 _atom_site_type_symbol
 _atom_site_label
 _atom_site_symmetry_multiplicity
 _atom_site_fract_x
 _atom_site_fract_y
 _atom_site_fract_z
 _atom_site_occupancy
  Sr  Sr0  1  0.00000000  0.85278400  0.48540400  1
  Sr  Sr1  1  0.50000000  0.64721600  0.51459600  1
  Sr  Sr2  1  0.00000000  0.64721600  0.98540400  1
  Sr  Sr3  1  0.50000000  0.85278400  0.01459600  1
  Sr  Sr4  1  0.50000000  0.35278400  0.48540400  1
  Sr  Sr5  1  0.00000000  0.14721600  0.51459600  1
  Sr  Sr6  1  0.50000000  0.14721600  0.98540400  1
  Sr  Sr7  1  0.00000000  0.35278400  0.01459600  1
  Sn  Sn8  1  0.50000000  0.00000000  0.50000000  1
  Sn  Sn9  1  0.00000000  0.00000000  0.00000000  1
  Sn  Sn10  1  0.00000000  0.50000000  0.50000000  1
  Sn  Sn11  1  0.50000000  0.50000000  0.00000000  1
  O  O12  1  0.00000000  0.66317900  0.55719700  1
  O  O13  1  0.50000000  0.83682100  0.44280300  1
  O  O14  1  0.00000000  0.83682100  0.05719700  1
  O  O15  1  0.50000000  0.66317900  0.94280300  1
  O  O16  1  0.75000000  0.52164800  0.25000000  1
  O  O17  1  0.25000000  0.97835200  0.75000000  1
  O  O18  1  0.25000000  0.52164800  0.25000000  1
  O  O19  1  0.75000000  0.97835200  0.75000000  1
  O  O20  1  0.50000000  0.16317900  0.55719700  1
  O  O21  1  0.00000000  0.33682100  0.44280300  1
  O  O22  1  0.50000000  0.33682100  0.05719700  1
  O  O23  1  0.00000000  0.16317900  0.94280300  1
  O  O24  1  0.25000000  0.02164800  0.25000000  1
  O  O25  1  0.75000000  0.47835200  0.75000000  1
  O  O26  1  0.75000000  0.02164800  0.25000000  1
  O  O27  1  0.25000000  0.47835200  0.75000000  1
