# generated using pymatgen
data_BaLa2TiCr2O9
_symmetry_space_group_name_H-M   'P 1'
_cell_length_a   5.62523400
_cell_length_b   50.23920800
_cell_length_c   3.96824900
_cell_angle_alpha   90.00000000
_cell_angle_beta   90.00000000
_cell_angle_gamma   90.00000000
_symmetry_Int_Tables_number   1
_chemical_formula_structural   BaLa2TiCr2O9
_chemical_formula_sum   'Ba6 La12 Ti6 Cr12 O54'
_cell_volume   1121.45613949
_cell_formula_units_Z   6
loop_
 _symmetry_equiv_pos_site_id
 _symmetry_equiv_pos_as_xyz
  1  'x, y, z'
loop_
 _atom_site_type_symbol
 _atom_site_label
 _atom_site_symmetry_multiplicity
 _atom_site_fract_x
 _atom_site_fract_y
 _atom_site_fract_z
 _atom_site_occupancy
  Ba  Ba0  1  0.50000000  0.44291800  0.50000000  1
  Ba  Ba1  1  0.50000000  0.00000000  0.50000000  1
  Ba  Ba2  1  0.00000000  0.05708200  0.50000000  1
  Ba  Ba3  1  0.00000000  0.94291800  0.50000000  1
  Ba  Ba4  1  0.00000000  0.50000000  0.50000000  1
  Ba  Ba5  1  0.50000000  0.55708200  0.50000000  1
  La  La6  1  0.50000000  0.11340900  0.50000000  1
  La  La7  1  0.00000000  0.16664900  0.50000000  1
  La  La8  1  0.50000000  0.22264200  0.50000000  1
  La  La9  1  0.00000000  0.27735800  0.50000000  1
  La  La10  1  0.50000000  0.33335100  0.50000000  1
  La  La11  1  0.00000000  0.38659100  0.50000000  1
  La  La12  1  0.00000000  0.61340900  0.50000000  1
  La  La13  1  0.50000000  0.66664900  0.50000000  1
  La  La14  1  0.00000000  0.72264200  0.50000000  1
  La  La15  1  0.50000000  0.77735800  0.50000000  1
  La  La16  1  0.00000000  0.83335100  0.50000000  1
  La  La17  1  0.50000000  0.88659100  0.50000000  1
  Ti  Ti18  1  0.00000000  0.44278000  0.00000000  1
  Ti  Ti19  1  0.00000000  0.00000000  0.00000000  1
  Ti  Ti20  1  0.50000000  0.05722000  0.00000000  1
  Ti  Ti21  1  0.50000000  0.94278000  0.00000000  1
  Ti  Ti22  1  0.50000000  0.50000000  0.00000000  1
  Ti  Ti23  1  0.00000000  0.55722000  0.00000000  1
  Cr  Cr24  1  0.00000000  0.11224600  0.00000000  1
  Cr  Cr25  1  0.50000000  0.16749300  0.00000000  1
  Cr  Cr26  1  0.00000000  0.22243600  0.00000000  1
  Cr  Cr27  1  0.50000000  0.27756400  0.00000000  1
  Cr  Cr28  1  0.00000000  0.33250700  0.00000000  1
  Cr  Cr29  1  0.50000000  0.38775400  0.00000000  1
  Cr  Cr30  1  0.50000000  0.61224600  0.00000000  1
  Cr  Cr31  1  0.00000000  0.66749300  0.00000000  1
  Cr  Cr32  1  0.50000000  0.72243600  0.00000000  1
  Cr  Cr33  1  0.00000000  0.77756400  0.00000000  1
  Cr  Cr34  1  0.50000000  0.83250700  0.00000000  1
  Cr  Cr35  1  0.00000000  0.88775400  0.00000000  1
  O  O36  1  0.50000000  0.38501100  0.50000000  1
  O  O37  1  0.74963150  0.47148450  0.00000000  1
  O  O38  1  0.75036850  0.02851550  0.00000000  1
  O  O39  1  0.26414900  0.08553600  0.00000000  1
  O  O40  1  0.25080300  0.19492600  0.00000000  1
  O  O41  1  0.74994750  0.13979850  0.00000000  1
  O  O42  1  0.75000000  0.25000000  0.00000000  1
  O  O43  1  0.24919700  0.30507400  0.00000000  1
  O  O44  1  0.75005250  0.36020150  0.00000000  1
  O  O45  1  0.23585100  0.41446400  0.00000000  1
  O  O46  1  0.25036850  0.47148450  0.00000000  1
  O  O47  1  0.24963150  0.02851550  0.00000000  1
  O  O48  1  0.73585100  0.08553600  0.00000000  1
  O  O49  1  0.25005250  0.13979850  0.00000000  1
  O  O50  1  0.74919700  0.19492600  0.00000000  1
  O  O51  1  0.75080300  0.30507400  0.00000000  1
  O  O52  1  0.25000000  0.25000000  0.00000000  1
  O  O53  1  0.76414900  0.41446400  0.00000000  1
  O  O54  1  0.24994750  0.36020150  0.00000000  1
  O  O55  1  0.00000000  0.44154800  0.50000000  1
  O  O56  1  0.00000000  0.00000000  0.50000000  1
  O  O57  1  0.50000000  0.05845200  0.50000000  1
  O  O58  1  0.00000000  0.11498900  0.50000000  1
  O  O59  1  0.50000000  0.16669100  0.50000000  1
  O  O60  1  0.00000000  0.22284000  0.50000000  1
  O  O61  1  0.50000000  0.27716000  0.50000000  1
  O  O62  1  0.00000000  0.33330900  0.50000000  1
  O  O63  1  0.00000000  0.88501100  0.50000000  1
  O  O64  1  0.24963150  0.97148450  0.00000000  1
  O  O65  1  0.25036850  0.52851550  0.00000000  1
  O  O66  1  0.76414900  0.58553600  0.00000000  1
  O  O67  1  0.75080300  0.69492600  0.00000000  1
  O  O68  1  0.24994750  0.63979850  0.00000000  1
  O  O69  1  0.25000000  0.75000000  0.00000000  1
  O  O70  1  0.74919700  0.80507400  0.00000000  1
  O  O71  1  0.25005250  0.86020150  0.00000000  1
  O  O72  1  0.73585100  0.91446400  0.00000000  1
  O  O73  1  0.75036850  0.97148450  0.00000000  1
  O  O74  1  0.74963150  0.52851550  0.00000000  1
  O  O75  1  0.23585100  0.58553600  0.00000000  1
  O  O76  1  0.75005250  0.63979850  0.00000000  1
  O  O77  1  0.24919700  0.69492600  0.00000000  1
  O  O78  1  0.25080300  0.80507400  0.00000000  1
  O  O79  1  0.75000000  0.75000000  0.00000000  1
  O  O80  1  0.26414900  0.91446400  0.00000000  1
  O  O81  1  0.74994750  0.86020150  0.00000000  1
  O  O82  1  0.50000000  0.94154800  0.50000000  1
  O  O83  1  0.50000000  0.50000000  0.50000000  1
  O  O84  1  0.00000000  0.55845200  0.50000000  1
  O  O85  1  0.50000000  0.61498900  0.50000000  1
  O  O86  1  0.00000000  0.66669100  0.50000000  1
  O  O87  1  0.50000000  0.72284000  0.50000000  1
  O  O88  1  0.00000000  0.77716000  0.50000000  1
  O  O89  1  0.50000000  0.83330900  0.50000000  1
