# generated using pymatgen
data_ErP5O14
_symmetry_space_group_name_H-M   'P 1'
_cell_length_a   13.02924200
_cell_length_b   12.93530400
_cell_length_c   12.55056132
_cell_angle_alpha   90.00000000
_cell_angle_beta   91.54900010
_cell_angle_gamma   90.00000000
_symmetry_Int_Tables_number   1
_chemical_formula_structural   ErP5O14
_chemical_formula_sum   'Er8 P40 O112'
_cell_volume   2114.46357505
_cell_formula_units_Z   8
loop_
 _symmetry_equiv_pos_site_id
 _symmetry_equiv_pos_as_xyz
  1  'x, y, z'
loop_
 _atom_site_type_symbol
 _atom_site_label
 _atom_site_symmetry_multiplicity
 _atom_site_fract_x
 _atom_site_fract_y
 _atom_site_fract_z
 _atom_site_occupancy
  Er  Er0  1  0.00000000  0.47983300  0.75000000  1
  Er  Er1  1  0.00000000  0.52016700  0.25000000  1
  Er  Er2  1  0.00000000  0.03385600  0.75000000  1
  Er  Er3  1  0.00000000  0.96614400  0.25000000  1
  Er  Er4  1  0.50000000  0.97983300  0.75000000  1
  Er  Er5  1  0.50000000  0.02016700  0.25000000  1
  Er  Er6  1  0.50000000  0.53385600  0.75000000  1
  Er  Er7  1  0.50000000  0.46614400  0.25000000  1
  P  P8  1  0.85455200  0.46994400  0.99884300  1
  P  P9  1  0.14544800  0.46994400  0.50115700  1
  P  P10  1  0.14544800  0.53005600  0.00115700  1
  P  P11  1  0.85455200  0.53005600  0.49884300  1
  P  P12  1  0.68312300  0.36655000  0.89009000  1
  P  P13  1  0.31687700  0.36655000  0.60991000  1
  P  P14  1  0.31687700  0.63345000  0.10991000  1
  P  P15  1  0.68312300  0.63345000  0.39009000  1
  P  P16  1  0.02295800  0.85115700  0.53432700  1
  P  P17  1  0.97704200  0.85115700  0.96567300  1
  P  P18  1  0.97704200  0.14884300  0.46567300  1
  P  P19  1  0.02295800  0.14884300  0.03432700  1
  P  P20  1  0.14791850  0.66993850  0.60710300  1
  P  P21  1  0.85208150  0.66993850  0.89289700  1
  P  P22  1  0.85208150  0.33006150  0.39289700  1
  P  P23  1  0.14791850  0.33006150  0.10710300  1
  P  P24  1  0.82393200  0.25291900  0.74177500  1
  P  P25  1  0.17606800  0.25291900  0.75822500  1
  P  P26  1  0.17606800  0.74708100  0.25822500  1
  P  P27  1  0.82393200  0.74708100  0.24177500  1
  P  P28  1  0.35455200  0.96994400  0.99884300  1
  P  P29  1  0.64544800  0.96994400  0.50115700  1
  P  P30  1  0.64544800  0.03005600  0.00115700  1
  P  P31  1  0.35455200  0.03005600  0.49884300  1
  P  P32  1  0.18312300  0.86655000  0.89009000  1
  P  P33  1  0.81687700  0.86655000  0.60991000  1
  P  P34  1  0.81687700  0.13345000  0.10991000  1
  P  P35  1  0.18312300  0.13345000  0.39009000  1
  P  P36  1  0.52295800  0.35115700  0.53432700  1
  P  P37  1  0.47704200  0.35115700  0.96567300  1
  P  P38  1  0.47704200  0.64884300  0.46567300  1
  P  P39  1  0.52295800  0.64884300  0.03432700  1
  P  P40  1  0.64791850  0.16993850  0.60710300  1
  P  P41  1  0.35208150  0.16993850  0.89289700  1
  P  P42  1  0.35208150  0.83006150  0.39289700  1
  P  P43  1  0.64791850  0.83006150  0.10710300  1
  P  P44  1  0.32393200  0.75291900  0.74177500  1
  P  P45  1  0.67606800  0.75291900  0.75822500  1
  P  P46  1  0.67606800  0.24708100  0.25822500  1
  P  P47  1  0.32393200  0.24708100  0.24177500  1
  O  O48  1  0.05769400  0.90832800  0.63219300  1
  O  O49  1  0.94230600  0.90832800  0.86780700  1
  O  O50  1  0.94230600  0.09167200  0.36780700  1
  O  O51  1  0.05769400  0.09167200  0.13219300  1
  O  O52  1  0.97492400  0.10339200  0.57383900  1
  O  O53  1  0.02507600  0.10339200  0.92616100  1
  O  O54  1  0.02507600  0.89660800  0.42616100  1
  O  O55  1  0.97492400  0.89660800  0.07383900  1
  O  O56  1  0.92186150  0.43726750  0.91062200  1
  O  O57  1  0.07813850  0.43726750  0.58937800  1
  O  O58  1  0.07813850  0.56273250  0.08937800  1
  O  O59  1  0.92186150  0.56273250  0.41062200  1
  O  O60  1  0.11154800  0.53385900  0.88787700  1
  O  O61  1  0.88845200  0.53385900  0.61212300  1
  O  O62  1  0.88845200  0.46614100  0.11212300  1
  O  O63  1  0.11154800  0.46614100  0.38787700  1
  O  O64  1  0.74880550  0.40260750  0.99167400  1
  O  O65  1  0.25119450  0.40260750  0.50832600  1
  O  O66  1  0.25119450  0.59739250  0.00832600  1
  O  O67  1  0.09321200  0.80499300  0.94380300  1
  O  O68  1  0.74880550  0.59739250  0.49167400  1
  O  O69  1  0.34763450  0.45236750  0.68131000  1
  O  O70  1  0.34763450  0.54763250  0.18131000  1
  O  O71  1  0.65236550  0.54763250  0.31869000  1
  O  O72  1  0.88610200  0.65468700  0.21648000  1
  O  O73  1  0.11389800  0.65468700  0.28352000  1
  O  O74  1  0.11389800  0.34531300  0.78352000  1
  O  O75  1  0.88610200  0.34531300  0.71648000  1
  O  O76  1  0.87226500  0.84801900  0.26899800  1
  O  O77  1  0.12773500  0.84801900  0.23100200  1
  O  O78  1  0.12773500  0.15198100  0.73100200  1
  O  O79  1  0.87226500  0.15198100  0.76899800  1
  O  O80  1  0.74515000  0.72423900  0.33831800  1
  O  O81  1  0.25485000  0.72423900  0.16168200  1
  O  O82  1  0.25485000  0.27576100  0.66168200  1
  O  O83  1  0.74515000  0.27576100  0.83831800  1
  O  O84  1  0.24309450  0.26063650  0.13992000  1
  O  O85  1  0.75690550  0.26063650  0.36008000  1
  O  O86  1  0.75690550  0.73936350  0.86008000  1
  O  O87  1  0.24309450  0.73936350  0.63992000  1
  O  O88  1  0.19251150  0.41380450  0.02888700  1
  O  O89  1  0.80748850  0.41380450  0.47111300  1
  O  O90  1  0.80748850  0.58619550  0.97111300  1
  O  O91  1  0.19251150  0.58619550  0.52888700  1
  O  O92  1  0.09022700  0.37221600  0.19669100  1
  O  O93  1  0.90977300  0.37221600  0.30330900  1
  O  O94  1  0.90977300  0.62778400  0.80330900  1
  O  O95  1  0.09022700  0.62778400  0.69669100  1
  O  O96  1  0.08390050  0.25853650  0.02761600  1
  O  O97  1  0.91609950  0.25853650  0.47238400  1
  O  O98  1  0.91609950  0.74146350  0.97238400  1
  O  O99  1  0.08390050  0.74146350  0.52761600  1
  O  O100  1  0.09321200  0.19500700  0.44380300  1
  O  O101  1  0.90678800  0.19500700  0.05619700  1
  O  O102  1  0.90678800  0.80499300  0.55619700  1
  O  O103  1  0.65236550  0.45236750  0.81869000  1
  O  O104  1  0.55769400  0.40832800  0.63219300  1
  O  O105  1  0.44230600  0.40832800  0.86780700  1
  O  O106  1  0.44230600  0.59167200  0.36780700  1
  O  O107  1  0.55769400  0.59167200  0.13219300  1
  O  O108  1  0.47492400  0.60339200  0.57383900  1
  O  O109  1  0.52507600  0.60339200  0.92616100  1
  O  O110  1  0.52507600  0.39660800  0.42616100  1
  O  O111  1  0.47492400  0.39660800  0.07383900  1
  O  O112  1  0.42186150  0.93726750  0.91062200  1
  O  O113  1  0.57813850  0.93726750  0.58937800  1
  O  O114  1  0.57813850  0.06273250  0.08937800  1
  O  O115  1  0.42186150  0.06273250  0.41062200  1
  O  O116  1  0.61154800  0.03385900  0.88787700  1
  O  O117  1  0.38845200  0.03385900  0.61212300  1
  O  O118  1  0.38845200  0.96614100  0.11212300  1
  O  O119  1  0.61154800  0.96614100  0.38787700  1
  O  O120  1  0.24880550  0.90260750  0.99167400  1
  O  O121  1  0.75119450  0.90260750  0.50832600  1
  O  O122  1  0.75119450  0.09739250  0.00832600  1
  O  O123  1  0.59321200  0.30499300  0.94380300  1
  O  O124  1  0.24880550  0.09739250  0.49167400  1
  O  O125  1  0.84763450  0.95236750  0.68131000  1
  O  O126  1  0.84763450  0.04763250  0.18131000  1
  O  O127  1  0.15236550  0.04763250  0.31869000  1
  O  O128  1  0.38610200  0.15468700  0.21648000  1
  O  O129  1  0.61389800  0.15468700  0.28352000  1
  O  O130  1  0.61389800  0.84531300  0.78352000  1
  O  O131  1  0.38610200  0.84531300  0.71648000  1
  O  O132  1  0.37226500  0.34801900  0.26899800  1
  O  O133  1  0.62773500  0.34801900  0.23100200  1
  O  O134  1  0.62773500  0.65198100  0.73100200  1
  O  O135  1  0.37226500  0.65198100  0.76899800  1
  O  O136  1  0.24515000  0.22423900  0.33831800  1
  O  O137  1  0.75485000  0.22423900  0.16168200  1
  O  O138  1  0.75485000  0.77576100  0.66168200  1
  O  O139  1  0.24515000  0.77576100  0.83831800  1
  O  O140  1  0.74309450  0.76063650  0.13992000  1
  O  O141  1  0.25690550  0.76063650  0.36008000  1
  O  O142  1  0.25690550  0.23936350  0.86008000  1
  O  O143  1  0.74309450  0.23936350  0.63992000  1
  O  O144  1  0.69251150  0.91380450  0.02888700  1
  O  O145  1  0.30748850  0.91380450  0.47111300  1
  O  O146  1  0.30748850  0.08619550  0.97111300  1
  O  O147  1  0.69251150  0.08619550  0.52888700  1
  O  O148  1  0.59022700  0.87221600  0.19669100  1
  O  O149  1  0.40977300  0.87221600  0.30330900  1
  O  O150  1  0.40977300  0.12778400  0.80330900  1
  O  O151  1  0.59022700  0.12778400  0.69669100  1
  O  O152  1  0.58390050  0.75853650  0.02761600  1
  O  O153  1  0.41609950  0.75853650  0.47238400  1
  O  O154  1  0.41609950  0.24146350  0.97238400  1
  O  O155  1  0.58390050  0.24146350  0.52761600  1
  O  O156  1  0.59321200  0.69500700  0.44380300  1
  O  O157  1  0.40678800  0.69500700  0.05619700  1
  O  O158  1  0.40678800  0.30499300  0.55619700  1
  O  O159  1  0.15236550  0.95236750  0.81869000  1
