# generated using pymatgen
data_Ag3SbS3
_symmetry_space_group_name_H-M   'P 1'
_cell_length_a   10.95056191
_cell_length_b   10.95056191
_cell_length_c   9.63862821
_cell_angle_alpha   90.00000000
_cell_angle_beta   90.00000000
_cell_angle_gamma   120.00000000
_symmetry_Int_Tables_number   1
_chemical_formula_structural   Ag3SbS3
_chemical_formula_sum   'Ag18 Sb6 S18'
_cell_volume   1000.96448833
_cell_formula_units_Z   6
loop_
 _symmetry_equiv_pos_site_id
 _symmetry_equiv_pos_as_xyz
  1  'x, y, z'
loop_
 _atom_site_type_symbol
 _atom_site_label
 _atom_site_symmetry_multiplicity
 _atom_site_fract_x
 _atom_site_fract_y
 _atom_site_fract_z
 _atom_site_occupancy
  Ag  Ag0  1  0.74722467  0.03821133  0.29587833  1
  Ag  Ag1  1  0.96178867  0.70901333  0.29587833  1
  Ag  Ag2  1  0.29512200  0.91944200  0.46254500  1
  Ag  Ag3  1  0.62432000  0.70487800  0.46254500  1
  Ag  Ag4  1  0.29098667  0.25277533  0.29587833  1
  Ag  Ag5  1  0.08055800  0.37568000  0.46254500  1
  Ag  Ag6  1  0.41389133  0.37154467  0.62921167  1
  Ag  Ag7  1  0.62845533  0.04234667  0.62921167  1
  Ag  Ag8  1  0.96178867  0.25277533  0.79587833  1
  Ag  Ag9  1  0.29098667  0.03821133  0.79587833  1
  Ag  Ag10  1  0.95765333  0.58610867  0.62921167  1
  Ag  Ag11  1  0.74722467  0.70901333  0.79587833  1
  Ag  Ag12  1  0.08055800  0.70487800  0.96254500  1
  Ag  Ag13  1  0.29512200  0.37568000  0.96254500  1
  Ag  Ag14  1  0.62845533  0.58610867  0.12921167  1
  Ag  Ag15  1  0.95765333  0.37154467  0.12921167  1
  Ag  Ag16  1  0.62432000  0.91944200  0.96254500  1
  Ag  Ag17  1  0.41389133  0.04234667  0.12921167  1
  Sb  Sb18  1  0.00000000  0.00000000  0.49886500  1
  Sb  Sb19  1  0.00000000  0.00000000  0.99886500  1
  Sb  Sb20  1  0.66666667  0.33333333  0.83219833  1
  Sb  Sb21  1  0.66666667  0.33333333  0.33219833  1
  Sb  Sb22  1  0.33333333  0.66666667  0.16553167  1
  Sb  Sb23  1  0.33333333  0.66666667  0.66553167  1
  S  S24  1  0.78386133  0.22276467  0.46253367  1
  S  S25  1  0.43890333  0.21613867  0.46253367  1
  S  S26  1  0.11719467  0.22776333  0.62920033  1
  S  S27  1  0.11056867  0.88280533  0.62920033  1
  S  S28  1  0.77723533  0.56109667  0.46253367  1
  S  S29  1  0.77223667  0.88943133  0.62920033  1
  S  S30  1  0.45052800  0.55609800  0.79586700  1
  S  S31  1  0.10557000  0.54947200  0.79586700  1
  S  S32  1  0.78386133  0.56109667  0.96253367  1
  S  S33  1  0.77723533  0.21613867  0.96253367  1
  S  S34  1  0.44390200  0.89443000  0.79586700  1
  S  S35  1  0.43890333  0.22276467  0.96253367  1
  S  S36  1  0.11719467  0.88943133  0.12920033  1
  S  S37  1  0.77223667  0.88280533  0.12920033  1
  S  S38  1  0.45052800  0.89443000  0.29586700  1
  S  S39  1  0.44390200  0.54947200  0.29586700  1
  S  S40  1  0.11056867  0.22776333  0.12920033  1
  S  S41  1  0.10557000  0.55609800  0.29586700  1
