# generated using pymatgen
data_SrAl3P2(HO2)7
_symmetry_space_group_name_H-M   'P 1'
_cell_length_a   7.17633564
_cell_length_b   7.17633564
_cell_length_c   16.33153076
_cell_angle_alpha   90.00000000
_cell_angle_beta   90.00000000
_cell_angle_gamma   120.00000000
_symmetry_Int_Tables_number   1
_chemical_formula_structural   SrAl3P2(HO2)7
_chemical_formula_sum   'Sr3 Al9 P6 H21 O42'
_cell_volume   728.38838305
_cell_formula_units_Z   3
loop_
 _symmetry_equiv_pos_site_id
 _symmetry_equiv_pos_as_xyz
  1  'x, y, z'
loop_
 _atom_site_type_symbol
 _atom_site_label
 _atom_site_symmetry_multiplicity
 _atom_site_fract_x
 _atom_site_fract_y
 _atom_site_fract_z
 _atom_site_occupancy
  Sr  Sr0  1  0.33333333  0.66666667  0.66697267  1
  Sr  Sr1  1  0.00000000  0.00000000  0.00030600  1
  Sr  Sr2  1  0.66666667  0.33333333  0.33363933  1
  Al  Al3  1  0.49797400  0.99594800  0.49996900  1
  Al  Al4  1  0.00405200  0.50202600  0.49996900  1
  Al  Al5  1  0.49797400  0.50202600  0.49996900  1
  Al  Al6  1  0.16464067  0.32928133  0.83330233  1
  Al  Al7  1  0.67071867  0.83535933  0.83330233  1
  Al  Al8  1  0.16464067  0.83535933  0.83330233  1
  Al  Al9  1  0.83130733  0.66261467  0.16663567  1
  Al  Al10  1  0.33738533  0.16869267  0.16663567  1
  Al  Al11  1  0.83130733  0.16869267  0.16663567  1
  P  P12  1  0.33333333  0.66666667  0.35675667  1
  P  P13  1  0.33333333  0.66666667  0.97206367  1
  P  P14  1  0.00000000  0.00000000  0.69009000  1
  P  P15  1  0.00000000  0.00000000  0.30539700  1
  P  P16  1  0.66666667  0.33333333  0.02342333  1
  P  P17  1  0.66666667  0.33333333  0.63873033  1
  H  H18  1  0.46953367  0.93906733  0.22557733  1
  H  H19  1  0.06093267  0.53046633  0.22557733  1
  H  H20  1  0.18787167  0.81212833  0.10505133  1
  H  H21  1  0.46953367  0.53046633  0.22557733  1
  H  H22  1  0.33333333  0.66666667  0.12930367  1
  H  H23  1  0.18787167  0.37574333  0.10505133  1
  H  H24  1  0.62425667  0.81212833  0.10505133  1
  H  H25  1  0.13620033  0.27240067  0.55891067  1
  H  H26  1  0.72759933  0.86379967  0.55891067  1
  H  H27  1  0.85453833  0.14546167  0.43838467  1
  H  H28  1  0.13620033  0.86379967  0.55891067  1
  H  H29  1  0.00000000  0.00000000  0.46263700  1
  H  H30  1  0.85453833  0.70907667  0.43838467  1
  H  H31  1  0.29092333  0.14546167  0.43838467  1
  H  H32  1  0.80286700  0.60573400  0.89224400  1
  H  H33  1  0.39426600  0.19713300  0.89224400  1
  H  H34  1  0.52120500  0.47879500  0.77171800  1
  H  H35  1  0.80286700  0.19713300  0.89224400  1
  H  H36  1  0.66666667  0.33333333  0.79597033  1
  H  H37  1  0.52120500  0.04241000  0.77171800  1
  H  H38  1  0.95759000  0.47879500  0.77171800  1
  O  O39  1  0.45120533  0.90241067  0.38980967  1
  O  O40  1  0.09758933  0.54879467  0.38980967  1
  O  O41  1  0.45120533  0.54879467  0.38980967  1
  O  O42  1  0.33333333  0.66666667  0.26220067  1
  O  O43  1  0.91682200  0.45841100  0.19882300  1
  O  O44  1  0.54158900  0.08317800  0.19882300  1
  O  O45  1  0.12185267  0.87814733  0.13719433  1
  O  O46  1  0.54158900  0.45841100  0.19882300  1
  O  O47  1  0.12185267  0.24370533  0.13719433  1
  O  O48  1  0.75629467  0.87814733  0.13719433  1
  O  O49  1  0.33333333  0.66666667  0.06953067  1
  O  O50  1  0.21518367  0.78481633  0.94563433  1
  O  O51  1  0.21518367  0.43036733  0.94563433  1
  O  O52  1  0.56963267  0.78481633  0.94563433  1
  O  O53  1  0.11787200  0.23574400  0.72314300  1
  O  O54  1  0.76425600  0.88212800  0.72314300  1
  O  O55  1  0.11787200  0.88212800  0.72314300  1
  O  O56  1  0.00000000  0.00000000  0.59553400  1
  O  O57  1  0.58348867  0.79174433  0.53215633  1
  O  O58  1  0.20825567  0.41651133  0.53215633  1
  O  O59  1  0.78851933  0.21148067  0.47052767  1
  O  O60  1  0.20825567  0.79174433  0.53215633  1
  O  O61  1  0.78851933  0.57703867  0.47052767  1
  O  O62  1  0.42296133  0.21148067  0.47052767  1
  O  O63  1  0.00000000  0.00000000  0.40286400  1
  O  O64  1  0.88185033  0.11814967  0.27896767  1
  O  O65  1  0.88185033  0.76370067  0.27896767  1
  O  O66  1  0.23629933  0.11814967  0.27896767  1
  O  O67  1  0.78453867  0.56907733  0.05647633  1
  O  O68  1  0.43092267  0.21546133  0.05647633  1
  O  O69  1  0.78453867  0.21546133  0.05647633  1
  O  O70  1  0.66666667  0.33333333  0.92886733  1
  O  O71  1  0.25015533  0.12507767  0.86548967  1
  O  O72  1  0.87492233  0.74984467  0.86548967  1
  O  O73  1  0.45518600  0.54481400  0.80386100  1
  O  O74  1  0.87492233  0.12507767  0.86548967  1
  O  O75  1  0.45518600  0.91037200  0.80386100  1
  O  O76  1  0.08962800  0.54481400  0.80386100  1
  O  O77  1  0.66666667  0.33333333  0.73619733  1
  O  O78  1  0.54851700  0.45148300  0.61230100  1
  O  O79  1  0.54851700  0.09703400  0.61230100  1
  O  O80  1  0.90296600  0.45148300  0.61230100  1
