# generated using pymatgen
data_Na4BeAlSi4ClO12
_symmetry_space_group_name_H-M   'P 1'
_cell_length_a   8.86219400
_cell_length_b   12.62857000
_cell_length_c   12.61334228
_cell_angle_alpha   90.00000000
_cell_angle_beta   90.08622982
_cell_angle_gamma   90.00000000
_symmetry_Int_Tables_number   1
_chemical_formula_structural   Na4BeAlSi4ClO12
_chemical_formula_sum   'Na16 Be4 Al4 Si16 Cl4 O48'
_cell_volume   1411.64377737
_cell_formula_units_Z   4
loop_
 _symmetry_equiv_pos_site_id
 _symmetry_equiv_pos_as_xyz
  1  'x, y, z'
loop_
 _atom_site_type_symbol
 _atom_site_label
 _atom_site_symmetry_multiplicity
 _atom_site_fract_x
 _atom_site_fract_y
 _atom_site_fract_z
 _atom_site_occupancy
  Na  Na0  1  0.55185900  0.25912400  0.82156700  1
  Na  Na1  1  0.92001800  0.94360100  0.48948600  1
  Na  Na2  1  0.57926100  0.75808900  0.69052000  1
  Na  Na3  1  0.55185900  0.74087600  0.32156700  1
  Na  Na4  1  0.57926100  0.24191100  0.19052000  1
  Na  Na5  1  0.44623600  0.07082000  0.49675000  1
  Na  Na6  1  0.92001800  0.05639900  0.98948600  1
  Na  Na7  1  0.44623600  0.92918000  0.99675000  1
  Na  Na8  1  0.05185900  0.75912400  0.82156700  1
  Na  Na9  1  0.42001800  0.44360100  0.48948600  1
  Na  Na10  1  0.07926100  0.25808900  0.69052000  1
  Na  Na11  1  0.05185900  0.24087600  0.32156700  1
  Na  Na12  1  0.07926100  0.74191100  0.19052000  1
  Na  Na13  1  0.94623600  0.57082000  0.49675000  1
  Na  Na14  1  0.42001800  0.55639900  0.98948600  1
  Na  Na15  1  0.94623600  0.42918000  0.99675000  1
  Be  Be16  1  0.75220950  0.87660550  0.87882600  1
  Be  Be17  1  0.75220950  0.12339450  0.37882600  1
  Be  Be18  1  0.25220950  0.37660550  0.87882600  1
  Be  Be19  1  0.25220950  0.62339450  0.37882600  1
  Al  Al20  1  0.24548900  0.87702700  0.62233300  1
  Al  Al21  1  0.24548900  0.12297300  0.12233300  1
  Al  Al22  1  0.74548900  0.37702700  0.62233300  1
  Al  Al23  1  0.74548900  0.62297300  0.12233300  1
  Si  Si24  1  0.99328550  0.00181050  0.74924900  1
  Si  Si25  1  0.25440200  0.13015000  0.87059000  1
  Si  Si26  1  0.50691150  0.00366350  0.25483000  1
  Si  Si27  1  0.74785050  0.12710850  0.62463800  1
  Si  Si28  1  0.25440200  0.86985000  0.37059000  1
  Si  Si29  1  0.50691150  0.99633650  0.75483000  1
  Si  Si30  1  0.99328550  0.99818950  0.24924900  1
  Si  Si31  1  0.74785050  0.87289150  0.12463800  1
  Si  Si32  1  0.49328550  0.50181050  0.74924900  1
  Si  Si33  1  0.75440200  0.63015000  0.87059000  1
  Si  Si34  1  0.00691150  0.50366350  0.25483000  1
  Si  Si35  1  0.24785050  0.62710850  0.62463800  1
  Si  Si36  1  0.75440200  0.36985000  0.37059000  1
  Si  Si37  1  0.00691150  0.49633650  0.75483000  1
  Si  Si38  1  0.49328550  0.49818950  0.24924900  1
  Si  Si39  1  0.24785050  0.37289150  0.12463800  1
  Cl  Cl40  1  0.25044200  0.25022200  0.50025500  1
  Cl  Cl41  1  0.25044200  0.74977800  0.00025500  1
  Cl  Cl42  1  0.75044200  0.75022200  0.50025500  1
  Cl  Cl43  1  0.75044200  0.24977800  0.00025500  1
  O  O44  1  0.40063300  0.09668800  0.79547200  1
  O  O45  1  0.10657200  0.05722300  0.83800000  1
  O  O46  1  0.71762900  0.75218600  0.84908800  1
  O  O47  1  0.89278200  0.10324200  0.70470300  1
  O  O48  1  0.90029750  0.08785650  0.30974000  1
  O  O49  1  0.90029750  0.91214350  0.80974000  1
  O  O50  1  0.79222600  0.10383900  0.50429600  1
  O  O51  1  0.60372900  0.05069100  0.35078400  1
  O  O52  1  0.71762900  0.24781400  0.34908800  1
  O  O53  1  0.60372900  0.94930900  0.85078400  1
  O  O54  1  0.40397750  0.09553850  0.20047900  1
  O  O55  1  0.69258700  0.24678500  0.65257500  1
  O  O56  1  0.40063300  0.90331200  0.29547200  1
  O  O57  1  0.29842300  0.09645900  0.99121500  1
  O  O58  1  0.40397750  0.90446150  0.70047900  1
  O  O59  1  0.60612450  0.04750950  0.65629700  1
  O  O60  1  0.29842300  0.90354100  0.49121500  1
  O  O61  1  0.08705550  0.04386950  0.14830600  1
  O  O62  1  0.08705550  0.95613050  0.64830600  1
  O  O63  1  0.69258700  0.75321500  0.15257500  1
  O  O64  1  0.10657200  0.94277700  0.33800000  1
  O  O65  1  0.89278200  0.89675800  0.20470300  1
  O  O66  1  0.79222600  0.89616100  0.00429600  1
  O  O67  1  0.60612450  0.95249050  0.15629700  1
  O  O68  1  0.90063300  0.59668800  0.79547200  1
  O  O69  1  0.60657200  0.55722300  0.83800000  1
  O  O70  1  0.21762900  0.25218600  0.84908800  1
  O  O71  1  0.39278200  0.60324200  0.70470300  1
  O  O72  1  0.40029750  0.58785650  0.30974000  1
  O  O73  1  0.40029750  0.41214350  0.80974000  1
  O  O74  1  0.29222600  0.60383900  0.50429600  1
  O  O75  1  0.10372900  0.55069100  0.35078400  1
  O  O76  1  0.21762900  0.74781400  0.34908800  1
  O  O77  1  0.10372900  0.44930900  0.85078400  1
  O  O78  1  0.90397750  0.59553850  0.20047900  1
  O  O79  1  0.19258700  0.74678500  0.65257500  1
  O  O80  1  0.90063300  0.40331200  0.29547200  1
  O  O81  1  0.79842300  0.59645900  0.99121500  1
  O  O82  1  0.90397750  0.40446150  0.70047900  1
  O  O83  1  0.10612450  0.54750950  0.65629700  1
  O  O84  1  0.79842300  0.40354100  0.49121500  1
  O  O85  1  0.58705550  0.54386950  0.14830600  1
  O  O86  1  0.58705550  0.45613050  0.64830600  1
  O  O87  1  0.19258700  0.25321500  0.15257500  1
  O  O88  1  0.60657200  0.44277700  0.33800000  1
  O  O89  1  0.39278200  0.39675800  0.20470300  1
  O  O90  1  0.29222600  0.39616100  0.00429600  1
  O  O91  1  0.10612450  0.45249050  0.15629700  1
