# generated using pymatgen
data_TiO2
_symmetry_space_group_name_H-M   'P 1'
_cell_length_a   4.85460200
_cell_length_b   4.91444000
_cell_length_c   5.09281305
_cell_angle_alpha   90.00000000
_cell_angle_beta   100.11734783
_cell_angle_gamma   90.00000000
_symmetry_Int_Tables_number   1
_chemical_formula_structural   TiO2
_chemical_formula_sum   'Ti4 O8'
_cell_volume   119.61319246
_cell_formula_units_Z   4
loop_
 _symmetry_equiv_pos_site_id
 _symmetry_equiv_pos_as_xyz
  1  'x, y, z'
loop_
 _atom_site_type_symbol
 _atom_site_label
 _atom_site_symmetry_multiplicity
 _atom_site_fract_x
 _atom_site_fract_y
 _atom_site_fract_z
 _atom_site_occupancy
  Ti  Ti0  1  0.72314400  0.44363800  0.28428100  1
  Ti  Ti1  1  0.27685600  0.94363800  0.21571900  1
  Ti  Ti2  1  0.27685600  0.55636200  0.71571900  1
  Ti  Ti3  1  0.72314400  0.05636200  0.78428100  1
  O  O4  1  0.55234700  0.74151300  0.03817100  1
  O  O5  1  0.44765300  0.24151300  0.46182900  1
  O  O6  1  0.44765300  0.25848700  0.96182900  1
  O  O7  1  0.55234700  0.75848700  0.53817100  1
  O  O8  1  0.93707200  0.32256600  0.64749700  1
  O  O9  1  0.06292800  0.82256600  0.85250300  1
  O  O10  1  0.06292800  0.67743400  0.35250300  1
  O  O11  1  0.93707200  0.17743400  0.14749700  1
