# generated using pymatgen
data_Na6TiMn(SiO3)6
_symmetry_space_group_name_H-M   'P 1'
_cell_length_a   10.21852774
_cell_length_b   10.21852774
_cell_length_c   13.14465199
_cell_angle_alpha   90.00000000
_cell_angle_beta   90.00000000
_cell_angle_gamma   120.00000000
_symmetry_Int_Tables_number   1
_chemical_formula_structural   Na6TiMn(SiO3)6
_chemical_formula_sum   'Na18 Ti3 Mn3 Si18 O54'
_cell_volume   1188.65653177
_cell_formula_units_Z   3
loop_
 _symmetry_equiv_pos_site_id
 _symmetry_equiv_pos_as_xyz
  1  'x, y, z'
loop_
 _atom_site_type_symbol
 _atom_site_label
 _atom_site_symmetry_multiplicity
 _atom_site_fract_x
 _atom_site_fract_y
 _atom_site_fract_z
 _atom_site_occupancy
  Na  Na0  1  0.17617100  0.82382900  0.83419700  1
  Na  Na1  1  0.64765800  0.82382900  0.83419700  1
  Na  Na2  1  0.47867450  0.95734900  0.98983600  1
  Na  Na3  1  0.47867450  0.52132550  0.98983600  1
  Na  Na4  1  0.17617100  0.35234200  0.83419700  1
  Na  Na5  1  0.04265100  0.52132550  0.98983600  1
  Na  Na6  1  0.84283767  0.15716233  0.16753033  1
  Na  Na7  1  0.31432467  0.15716233  0.16753033  1
  Na  Na8  1  0.14534117  0.29068233  0.32316933  1
  Na  Na9  1  0.14534117  0.85465883  0.32316933  1
  Na  Na10  1  0.84283767  0.68567533  0.16753033  1
  Na  Na11  1  0.70931767  0.85465883  0.32316933  1
  Na  Na12  1  0.50950433  0.49049567  0.50086367  1
  Na  Na13  1  0.98099133  0.49049567  0.50086367  1
  Na  Na14  1  0.81200783  0.62401567  0.65650267  1
  Na  Na15  1  0.81200783  0.18799217  0.65650267  1
  Na  Na16  1  0.50950433  0.01900867  0.50086367  1
  Na  Na17  1  0.37598433  0.18799217  0.65650267  1
  Ti  Ti18  1  0.33333333  0.66666667  0.67503367  1
  Ti  Ti19  1  0.00000000  0.00000000  0.00836700  1
  Ti  Ti20  1  0.66666667  0.33333333  0.34170033  1
  Mn  Mn21  1  0.33333333  0.66666667  0.41990467  1
  Mn  Mn22  1  0.00000000  0.00000000  0.75323800  1
  Mn  Mn23  1  0.66666667  0.33333333  0.08657133  1
  Si  Si24  1  0.18210267  0.81789733  0.09702833  1
  Si  Si25  1  0.18210267  0.36420533  0.09702833  1
  Si  Si26  1  0.02868000  0.51434000  0.23825600  1
  Si  Si27  1  0.63579467  0.81789733  0.09702833  1
  Si  Si28  1  0.48566000  0.97132000  0.23825600  1
  Si  Si29  1  0.48566000  0.51434000  0.23825600  1
  Si  Si30  1  0.84876933  0.15123067  0.43036167  1
  Si  Si31  1  0.84876933  0.69753867  0.43036167  1
  Si  Si32  1  0.69534667  0.84767333  0.57158933  1
  Si  Si33  1  0.30246133  0.15123067  0.43036167  1
  Si  Si34  1  0.15232667  0.30465333  0.57158933  1
  Si  Si35  1  0.15232667  0.84767333  0.57158933  1
  Si  Si36  1  0.51543600  0.48456400  0.76369500  1
  Si  Si37  1  0.51543600  0.03087200  0.76369500  1
  Si  Si38  1  0.36201333  0.18100667  0.90492267  1
  Si  Si39  1  0.96912800  0.48456400  0.76369500  1
  Si  Si40  1  0.81899333  0.63798667  0.90492267  1
  Si  Si41  1  0.81899333  0.18100667  0.90492267  1
  O  O42  1  0.84380933  0.42190467  0.23981467  1
  O  O43  1  0.08975967  0.17951933  0.08958933  1
  O  O44  1  0.08975967  0.91024033  0.08958933  1
  O  O45  1  0.22498467  0.44996933  0.99177233  1
  O  O46  1  0.22498467  0.77501533  0.99177233  1
  O  O47  1  0.07370367  0.66793933  0.16946733  1
  O  O48  1  0.07370367  0.40576433  0.16946733  1
  O  O49  1  0.11867400  0.55933700  0.34543600  1
  O  O50  1  0.33206067  0.92629633  0.16946733  1
  O  O51  1  0.33206067  0.40576433  0.16946733  1
  O  O52  1  0.55003067  0.77501533  0.99177233  1
  O  O53  1  0.59423567  0.92629633  0.16946733  1
  O  O54  1  0.59423567  0.66793933  0.16946733  1
  O  O55  1  0.44066300  0.55933700  0.34543600  1
  O  O56  1  0.44066300  0.88132600  0.34543600  1
  O  O57  1  0.57809533  0.15619067  0.23981467  1
  O  O58  1  0.57809533  0.42190467  0.23981467  1
  O  O59  1  0.82048067  0.91024033  0.08958933  1
  O  O60  1  0.51047600  0.75523800  0.57314800  1
  O  O61  1  0.75642633  0.51285267  0.42292267  1
  O  O62  1  0.75642633  0.24357367  0.42292267  1
  O  O63  1  0.89165133  0.78330267  0.32510567  1
  O  O64  1  0.89165133  0.10834867  0.32510567  1
  O  O65  1  0.74037033  0.00127267  0.50280067  1
  O  O66  1  0.74037033  0.73909767  0.50280067  1
  O  O67  1  0.78534067  0.89267033  0.67876933  1
  O  O68  1  0.99872733  0.25962967  0.50280067  1
  O  O69  1  0.99872733  0.73909767  0.50280067  1
  O  O70  1  0.21669733  0.10834867  0.32510567  1
  O  O71  1  0.26090233  0.25962967  0.50280067  1
  O  O72  1  0.26090233  0.00127267  0.50280067  1
  O  O73  1  0.10732967  0.89267033  0.67876933  1
  O  O74  1  0.10732967  0.21465933  0.67876933  1
  O  O75  1  0.24476200  0.48952400  0.57314800  1
  O  O76  1  0.24476200  0.75523800  0.57314800  1
  O  O77  1  0.48714733  0.24357367  0.42292267  1
  O  O78  1  0.17714267  0.08857133  0.90648133  1
  O  O79  1  0.42309300  0.84618600  0.75625600  1
  O  O80  1  0.42309300  0.57690700  0.75625600  1
  O  O81  1  0.55831800  0.11663600  0.65843900  1
  O  O82  1  0.55831800  0.44168200  0.65843900  1
  O  O83  1  0.40703700  0.33460600  0.83613400  1
  O  O84  1  0.40703700  0.07243100  0.83613400  1
  O  O85  1  0.45200733  0.22600367  0.01210267  1
  O  O86  1  0.66539400  0.59296300  0.83613400  1
  O  O87  1  0.66539400  0.07243100  0.83613400  1
  O  O88  1  0.88336400  0.44168200  0.65843900  1
  O  O89  1  0.92756900  0.59296300  0.83613400  1
  O  O90  1  0.92756900  0.33460600  0.83613400  1
  O  O91  1  0.77399633  0.22600367  0.01210267  1
  O  O92  1  0.77399633  0.54799267  0.01210267  1
  O  O93  1  0.91142867  0.82285733  0.90648133  1
  O  O94  1  0.91142867  0.08857133  0.90648133  1
  O  O95  1  0.15381400  0.57690700  0.75625600  1
