# generated using pymatgen
data_RbReO4
_symmetry_space_group_name_H-M   'P 1'
_cell_length_a   6.00964800
_cell_length_b   6.00964800
_cell_length_c   13.48976200
_cell_angle_alpha   90.00000000
_cell_angle_beta   90.00000000
_cell_angle_gamma   90.00000000
_symmetry_Int_Tables_number   1
_chemical_formula_structural   RbReO4
_chemical_formula_sum   'Rb4 Re4 O16'
_cell_volume   487.19447837
_cell_formula_units_Z   4
loop_
 _symmetry_equiv_pos_site_id
 _symmetry_equiv_pos_as_xyz
  1  'x, y, z'
loop_
 _atom_site_type_symbol
 _atom_site_label
 _atom_site_symmetry_multiplicity
 _atom_site_fract_x
 _atom_site_fract_y
 _atom_site_fract_z
 _atom_site_occupancy
  Rb  Rb0  1  0.00000000  0.50000000  0.25000000  1
  Rb  Rb1  1  0.00000000  0.00000000  0.00000000  1
  Rb  Rb2  1  0.50000000  0.00000000  0.75000000  1
  Rb  Rb3  1  0.50000000  0.50000000  0.50000000  1
  Re  Re4  1  0.50000000  0.00000000  0.25000000  1
  Re  Re5  1  0.50000000  0.50000000  0.00000000  1
  Re  Re6  1  0.00000000  0.50000000  0.75000000  1
  Re  Re7  1  0.00000000  0.00000000  0.50000000  1
  O  O8  1  0.10922650  0.78635050  0.42565750  1
  O  O9  1  0.71364950  0.10922650  0.17565750  1
  O  O10  1  0.28635050  0.89077350  0.17565750  1
  O  O11  1  0.89077350  0.21364950  0.42565750  1
  O  O12  1  0.60922650  0.78635050  0.32434250  1
  O  O13  1  0.71364950  0.60922650  0.07434250  1
  O  O14  1  0.28635050  0.39077350  0.07434250  1
  O  O15  1  0.39077350  0.21364950  0.32434250  1
  O  O16  1  0.60922650  0.28635050  0.92565750  1
  O  O17  1  0.21364950  0.60922650  0.67565750  1
  O  O18  1  0.78635050  0.39077350  0.67565750  1
  O  O19  1  0.39077350  0.71364950  0.92565750  1
  O  O20  1  0.10922650  0.28635050  0.82434250  1
  O  O21  1  0.21364950  0.10922650  0.57434250  1
  O  O22  1  0.78635050  0.89077350  0.57434250  1
  O  O23  1  0.89077350  0.71364950  0.82434250  1
