# generated using pymatgen
data_CsTiCoOF5
_symmetry_space_group_name_H-M   'P 1'
_cell_length_a   7.30453006
_cell_length_b   7.48562002
_cell_length_c   10.70377400
_cell_angle_alpha   90.00000000
_cell_angle_beta   90.00000000
_cell_angle_gamma   90.00000000
_symmetry_Int_Tables_number   1
_chemical_formula_structural   CsTiCoOF5
_chemical_formula_sum   'Cs4 Ti4 Co4 O4 F20'
_cell_volume   585.27097818
_cell_formula_units_Z   4
loop_
 _symmetry_equiv_pos_site_id
 _symmetry_equiv_pos_as_xyz
  1  'x, y, z'
loop_
 _atom_site_type_symbol
 _atom_site_label
 _atom_site_symmetry_multiplicity
 _atom_site_fract_x
 _atom_site_fract_y
 _atom_site_fract_z
 _atom_site_occupancy
  Cs  Cs0  1  0.50000000  0.25000000  0.37861950  1
  Cs  Cs1  1  0.50000000  0.75000000  0.62138050  1
  Cs  Cs2  1  0.00000000  0.75000000  0.87861950  1
  Cs  Cs3  1  0.00000000  0.25000000  0.12138050  1
  Ti  Ti4  1  0.25000000  0.25000000  0.75000000  1
  Ti  Ti5  1  0.75000000  0.25000000  0.75000000  1
  Ti  Ti6  1  0.75000000  0.75000000  0.25000000  1
  Ti  Ti7  1  0.25000000  0.75000000  0.25000000  1
  Co  Co8  1  0.00000000  0.00000000  0.50000000  1
  Co  Co9  1  0.00000000  0.50000000  0.50000000  1
  Co  Co10  1  0.50000000  0.50000000  0.00000000  1
  Co  Co11  1  0.50000000  0.00000000  0.00000000  1
  O  O12  1  0.50000000  0.75000000  0.28867250  1
  O  O13  1  0.50000000  0.25000000  0.71132750  1
  O  O14  1  0.00000000  0.25000000  0.78867250  1
  O  O15  1  0.00000000  0.75000000  0.21132750  1
  F  F16  1  0.00000000  0.75000000  0.57158050  1
  F  F17  1  0.00000000  0.25000000  0.42841950  1
  F  F18  1  0.29000350  0.43658600  0.87579850  1
  F  F19  1  0.70999650  0.43658600  0.87579850  1
  F  F20  1  0.79000350  0.56341400  0.37579850  1
  F  F21  1  0.79000350  0.43658600  0.62420150  1
  F  F22  1  0.20999650  0.56341400  0.37579850  1
  F  F23  1  0.20999650  0.43658600  0.62420150  1
  F  F24  1  0.29000350  0.56341400  0.12420150  1
  F  F25  1  0.70999650  0.56341400  0.12420150  1
  F  F26  1  0.50000000  0.25000000  0.07158050  1
  F  F27  1  0.50000000  0.75000000  0.92841950  1
  F  F28  1  0.79000350  0.93658600  0.37579850  1
  F  F29  1  0.20999650  0.93658600  0.37579850  1
  F  F30  1  0.29000350  0.06341400  0.87579850  1
  F  F31  1  0.29000350  0.93658600  0.12420150  1
  F  F32  1  0.70999650  0.06341400  0.87579850  1
  F  F33  1  0.70999650  0.93658600  0.12420150  1
  F  F34  1  0.79000350  0.06341400  0.62420150  1
  F  F35  1  0.20999650  0.06341400  0.62420150  1
