# generated using pymatgen
data_K3TaO8
_symmetry_space_group_name_H-M   'P 1'
_cell_length_a   6.90295400
_cell_length_b   6.90295400
_cell_length_c   8.07626200
_cell_angle_alpha   90.00000000
_cell_angle_beta   90.00000000
_cell_angle_gamma   90.00000000
_symmetry_Int_Tables_number   1
_chemical_formula_structural   K3TaO8
_chemical_formula_sum   'K6 Ta2 O16'
_cell_volume   384.84013473
_cell_formula_units_Z   2
loop_
 _symmetry_equiv_pos_site_id
 _symmetry_equiv_pos_as_xyz
  1  'x, y, z'
loop_
 _atom_site_type_symbol
 _atom_site_label
 _atom_site_symmetry_multiplicity
 _atom_site_fract_x
 _atom_site_fract_y
 _atom_site_fract_z
 _atom_site_occupancy
  K  K0  1  0.50000000  0.00000000  0.25000000  1
  K  K1  1  0.00000000  0.50000000  0.25000000  1
  K  K2  1  0.00000000  0.00000000  0.50000000  1
  K  K3  1  0.00000000  0.50000000  0.75000000  1
  K  K4  1  0.50000000  0.00000000  0.75000000  1
  K  K5  1  0.50000000  0.50000000  0.00000000  1
  Ta  Ta6  1  0.00000000  0.00000000  0.00000000  1
  Ta  Ta7  1  0.50000000  0.50000000  0.50000000  1
  O  O8  1  0.13977800  0.13977800  0.18527000  1
  O  O9  1  0.13977800  0.86022200  0.81473000  1
  O  O10  1  0.86022200  0.13977800  0.81473000  1
  O  O11  1  0.36022200  0.36022200  0.68527000  1
  O  O12  1  0.21202800  0.21202800  0.01926000  1
  O  O13  1  0.71202800  0.28797200  0.48074000  1
  O  O14  1  0.28797200  0.71202800  0.48074000  1
  O  O15  1  0.28797200  0.28797200  0.51926000  1
  O  O16  1  0.63977800  0.63977800  0.68527000  1
  O  O17  1  0.63977800  0.36022200  0.31473000  1
  O  O18  1  0.36022200  0.63977800  0.31473000  1
  O  O19  1  0.86022200  0.86022200  0.18527000  1
  O  O20  1  0.71202800  0.71202800  0.51926000  1
  O  O21  1  0.21202800  0.78797200  0.98074000  1
  O  O22  1  0.78797200  0.21202800  0.98074000  1
  O  O23  1  0.78797200  0.78797200  0.01926000  1
