# generated using pymatgen
data_AlPO4
_symmetry_space_group_name_H-M   'P 1'
_cell_length_a   7.24223200
_cell_length_b   7.25406200
_cell_length_c   7.16700400
_cell_angle_alpha   90.00000000
_cell_angle_beta   90.00000000
_cell_angle_gamma   90.00000000
_symmetry_Int_Tables_number   1
_chemical_formula_structural   AlPO4
_chemical_formula_sum   'Al4 P4 O16'
_cell_volume   376.52285496
_cell_formula_units_Z   4
loop_
 _symmetry_equiv_pos_site_id
 _symmetry_equiv_pos_as_xyz
  1  'x, y, z'
loop_
 _atom_site_type_symbol
 _atom_site_label
 _atom_site_symmetry_multiplicity
 _atom_site_fract_x
 _atom_site_fract_y
 _atom_site_fract_z
 _atom_site_occupancy
  Al  Al0  1  0.20503900  0.00000000  0.50000000  1
  Al  Al1  1  0.79496100  0.00000000  0.00000000  1
  Al  Al2  1  0.70503900  0.50000000  0.50000000  1
  Al  Al3  1  0.29496100  0.50000000  0.00000000  1
  P  P4  1  0.50000000  0.20387600  0.25000000  1
  P  P5  1  0.50000000  0.79612400  0.75000000  1
  P  P6  1  0.00000000  0.70387600  0.25000000  1
  P  P7  1  0.00000000  0.29612400  0.75000000  1
  O  O8  1  0.33942950  0.08081650  0.31434400  1
  O  O9  1  0.66057050  0.91918350  0.81434400  1
  O  O10  1  0.33942950  0.91918350  0.68565600  1
  O  O11  1  0.66057050  0.08081650  0.18565600  1
  O  O12  1  0.56289450  0.32370450  0.41521800  1
  O  O13  1  0.43710550  0.67629550  0.91521800  1
  O  O14  1  0.56289450  0.67629550  0.58478200  1
  O  O15  1  0.43710550  0.32370450  0.08478200  1
  O  O16  1  0.83942950  0.58081650  0.31434400  1
  O  O17  1  0.16057050  0.41918350  0.81434400  1
  O  O18  1  0.83942950  0.41918350  0.68565600  1
  O  O19  1  0.16057050  0.58081650  0.18565600  1
  O  O20  1  0.06289450  0.82370450  0.41521800  1
  O  O21  1  0.93710550  0.17629550  0.91521800  1
  O  O22  1  0.06289450  0.17629550  0.58478200  1
  O  O23  1  0.93710550  0.82370450  0.08478200  1
