# generated using pymatgen
data_NaTaO3
_symmetry_space_group_name_H-M   'P 1'
_cell_length_a   7.82352200
_cell_length_b   7.89412000
_cell_length_c   7.90282600
_cell_angle_alpha   90.00000000
_cell_angle_beta   90.00000000
_cell_angle_gamma   90.00000000
_symmetry_Int_Tables_number   1
_chemical_formula_structural   NaTaO3
_chemical_formula_sum   'Na8 Ta8 O24'
_cell_volume   488.07712303
_cell_formula_units_Z   8
loop_
 _symmetry_equiv_pos_site_id
 _symmetry_equiv_pos_as_xyz
  1  'x, y, z'
loop_
 _atom_site_type_symbol
 _atom_site_label
 _atom_site_symmetry_multiplicity
 _atom_site_fract_x
 _atom_site_fract_y
 _atom_site_fract_z
 _atom_site_occupancy
  Na  Na0  1  0.50000000  0.50969800  0.75000000  1
  Na  Na1  1  0.50000000  0.49030200  0.25000000  1
  Na  Na2  1  0.50000000  0.00275400  0.75000000  1
  Na  Na3  1  0.50000000  0.99724600  0.25000000  1
  Na  Na4  1  0.00000000  0.00969800  0.75000000  1
  Na  Na5  1  0.00000000  0.99030200  0.25000000  1
  Na  Na6  1  0.00000000  0.50275400  0.75000000  1
  Na  Na7  1  0.00000000  0.49724600  0.25000000  1
  Ta  Ta8  1  0.25000000  0.75000000  0.00000000  1
  Ta  Ta9  1  0.25000000  0.75000000  0.50000000  1
  Ta  Ta10  1  0.25000000  0.25000000  0.00000000  1
  Ta  Ta11  1  0.25000000  0.25000000  0.50000000  1
  Ta  Ta12  1  0.75000000  0.25000000  0.00000000  1
  Ta  Ta13  1  0.75000000  0.25000000  0.50000000  1
  Ta  Ta14  1  0.75000000  0.75000000  0.00000000  1
  Ta  Ta15  1  0.75000000  0.75000000  0.50000000  1
  O  O16  1  0.71301000  0.74435100  0.75000000  1
  O  O17  1  0.28699000  0.25564900  0.25000000  1
  O  O18  1  0.71301000  0.25564900  0.25000000  1
  O  O19  1  0.28699000  0.74435100  0.75000000  1
  O  O20  1  0.50000000  0.28798600  0.53619600  1
  O  O21  1  0.50000000  0.71201400  0.03619600  1
  O  O22  1  0.50000000  0.71201400  0.46380400  1
  O  O23  1  0.50000000  0.28798600  0.96380400  1
  O  O24  1  0.28944000  0.00000000  0.00000000  1
  O  O25  1  0.71056000  0.00000000  0.50000000  1
  O  O26  1  0.71056000  0.00000000  0.00000000  1
  O  O27  1  0.28944000  0.00000000  0.50000000  1
  O  O28  1  0.21301000  0.24435100  0.75000000  1
  O  O29  1  0.78699000  0.75564900  0.25000000  1
  O  O30  1  0.21301000  0.75564900  0.25000000  1
  O  O31  1  0.78699000  0.24435100  0.75000000  1
  O  O32  1  0.00000000  0.78798600  0.53619600  1
  O  O33  1  0.00000000  0.21201400  0.03619600  1
  O  O34  1  0.00000000  0.21201400  0.46380400  1
  O  O35  1  0.00000000  0.78798600  0.96380400  1
  O  O36  1  0.78944000  0.50000000  0.00000000  1
  O  O37  1  0.21056000  0.50000000  0.50000000  1
  O  O38  1  0.21056000  0.50000000  0.00000000  1
  O  O39  1  0.78944000  0.50000000  0.50000000  1
