# generated using pymatgen
data_MgSO4
_symmetry_space_group_name_H-M   'P 1'
_cell_length_a   4.82021100
_cell_length_b   6.79286600
_cell_length_c   8.67777400
_cell_angle_alpha   90.00000000
_cell_angle_beta   90.00000000
_cell_angle_gamma   90.00000000
_symmetry_Int_Tables_number   1
_chemical_formula_structural   MgSO4
_chemical_formula_sum   'Mg4 S4 O16'
_cell_volume   284.13676554
_cell_formula_units_Z   4
loop_
 _symmetry_equiv_pos_site_id
 _symmetry_equiv_pos_as_xyz
  1  'x, y, z'
loop_
 _atom_site_type_symbol
 _atom_site_label
 _atom_site_symmetry_multiplicity
 _atom_site_fract_x
 _atom_site_fract_y
 _atom_site_fract_z
 _atom_site_occupancy
  Mg  Mg0  1  0.00000000  0.00000000  0.00000000  1
  Mg  Mg1  1  0.50000000  0.00000000  0.50000000  1
  Mg  Mg2  1  0.00000000  0.50000000  0.00000000  1
  Mg  Mg3  1  0.50000000  0.50000000  0.50000000  1
  S  S4  1  0.97362500  0.75000000  0.67812000  1
  S  S5  1  0.47362500  0.25000000  0.82188000  1
  S  S6  1  0.02637500  0.25000000  0.32188000  1
  S  S7  1  0.52637500  0.75000000  0.17812000  1
  O  O8  1  0.23232600  0.75000000  0.12268100  1
  O  O9  1  0.73232600  0.25000000  0.37731900  1
  O  O10  1  0.76767400  0.25000000  0.87731900  1
  O  O11  1  0.26767400  0.75000000  0.62268100  1
  O  O12  1  0.53720100  0.75000000  0.35233500  1
  O  O13  1  0.03720100  0.25000000  0.14766500  1
  O  O14  1  0.46279900  0.25000000  0.64766500  1
  O  O15  1  0.96279900  0.75000000  0.85233500  1
  O  O16  1  0.83428800  0.93023100  0.62509800  1
  O  O17  1  0.33428800  0.06976900  0.87490200  1
  O  O18  1  0.16571200  0.43023100  0.37490200  1
  O  O19  1  0.66571200  0.56976900  0.12509800  1
  O  O20  1  0.16571200  0.06976900  0.37490200  1
  O  O21  1  0.66571200  0.93023100  0.12509800  1
  O  O22  1  0.83428800  0.56976900  0.62509800  1
  O  O23  1  0.33428800  0.43023100  0.87490200  1
