# generated using pymatgen
data_Ca2AlH10ClO8
_symmetry_space_group_name_H-M   'P 1'
_cell_length_a   10.15761600
_cell_length_b   5.68874200
_cell_length_c   16.16035152
_cell_angle_alpha   90.00000000
_cell_angle_beta   100.71002454
_cell_angle_gamma   90.00000000
_symmetry_Int_Tables_number   1
_chemical_formula_structural   Ca2AlH10ClO8
_chemical_formula_sum   'Ca8 Al4 H40 Cl4 O32'
_cell_volume   917.54396518
_cell_formula_units_Z   4
loop_
 _symmetry_equiv_pos_site_id
 _symmetry_equiv_pos_as_xyz
  1  'x, y, z'
loop_
 _atom_site_type_symbol
 _atom_site_label
 _atom_site_symmetry_multiplicity
 _atom_site_fract_x
 _atom_site_fract_y
 _atom_site_fract_z
 _atom_site_occupancy
  Ca  Ca0  1  0.90577350  0.74827050  0.46174000  1
  Ca  Ca1  1  0.59422650  0.24827050  0.03826000  1
  Ca  Ca2  1  0.90577350  0.25172950  0.96174000  1
  Ca  Ca3  1  0.59422650  0.75172950  0.53826000  1
  Ca  Ca4  1  0.40577350  0.24827050  0.46174000  1
  Ca  Ca5  1  0.09422650  0.74827050  0.03826000  1
  Ca  Ca6  1  0.40577350  0.75172950  0.96174000  1
  Ca  Ca7  1  0.09422650  0.25172950  0.53826000  1
  Al  Al8  1  0.75000000  0.75000000  0.00000000  1
  Al  Al9  1  0.75000000  0.25000000  0.50000000  1
  Al  Al10  1  0.25000000  0.25000000  0.00000000  1
  Al  Al11  1  0.25000000  0.75000000  0.50000000  1
  H  H12  1  0.88222100  0.78485300  0.87968300  1
  H  H13  1  0.64860950  0.46583450  0.88100000  1
  H  H14  1  0.61166000  0.99953600  0.88231000  1
  H  H15  1  0.60860050  0.39214650  0.22255200  1
  H  H16  1  0.60742600  0.11387200  0.22344300  1
  H  H17  1  0.89257400  0.61387200  0.27655700  1
  H  H18  1  0.89139950  0.89214650  0.27744800  1
  H  H19  1  0.64860950  0.53416550  0.38100000  1
  H  H20  1  0.61166000  0.00046400  0.38231000  1
  H  H21  1  0.88222100  0.21514700  0.37968300  1
  H  H22  1  0.61777900  0.28485300  0.62031700  1
  H  H23  1  0.88834000  0.49953600  0.61769000  1
  H  H24  1  0.85139050  0.96583450  0.61900000  1
  H  H25  1  0.60860050  0.60785350  0.72255200  1
  H  H26  1  0.60742600  0.88612800  0.72344300  1
  H  H27  1  0.89257400  0.38612800  0.77655700  1
  H  H28  1  0.89139950  0.10785350  0.77744800  1
  H  H29  1  0.88834000  0.50046400  0.11769000  1
  H  H30  1  0.85139050  0.03416550  0.11900000  1
  H  H31  1  0.61777900  0.71514700  0.12031700  1
  H  H32  1  0.38222100  0.28485300  0.87968300  1
  H  H33  1  0.14860950  0.96583450  0.88100000  1
  H  H34  1  0.11166000  0.49953600  0.88231000  1
  H  H35  1  0.10860050  0.89214650  0.22255200  1
  H  H36  1  0.10742600  0.61387200  0.22344300  1
  H  H37  1  0.39257400  0.11387200  0.27655700  1
  H  H38  1  0.39139950  0.39214650  0.27744800  1
  H  H39  1  0.14860950  0.03416550  0.38100000  1
  H  H40  1  0.11166000  0.50046400  0.38231000  1
  H  H41  1  0.38222100  0.71514700  0.37968300  1
  H  H42  1  0.11777900  0.78485300  0.62031700  1
  H  H43  1  0.38834000  0.99953600  0.61769000  1
  H  H44  1  0.35139050  0.46583450  0.61900000  1
  H  H45  1  0.10860050  0.10785350  0.72255200  1
  H  H46  1  0.10742600  0.38612800  0.72344300  1
  H  H47  1  0.39257400  0.88612800  0.77655700  1
  H  H48  1  0.39139950  0.60785350  0.77744800  1
  H  H49  1  0.38834000  0.00046400  0.11769000  1
  H  H50  1  0.35139050  0.53416550  0.11900000  1
  H  H51  1  0.11777900  0.21514700  0.12031700  1
  Cl  Cl52  1  0.00000000  0.74840200  0.75000000  1
  Cl  Cl53  1  0.00000000  0.25159800  0.25000000  1
  Cl  Cl54  1  0.50000000  0.24840200  0.75000000  1
  Cl  Cl55  1  0.50000000  0.75159800  0.25000000  1
  O  O56  1  0.86108200  0.75169500  0.30392900  1
  O  O57  1  0.88333700  0.84625500  0.93603700  1
  O  O58  1  0.70305400  0.46512500  0.93726100  1
  O  O59  1  0.60532700  0.93190900  0.93674700  1
  O  O60  1  0.63891800  0.25169500  0.19607100  1
  O  O61  1  0.70305400  0.53487500  0.43726100  1
  O  O62  1  0.60532700  0.06809100  0.43674700  1
  O  O63  1  0.88333700  0.15374500  0.43603700  1
  O  O64  1  0.61666300  0.34625500  0.56396300  1
  O  O65  1  0.89467300  0.43190900  0.56325300  1
  O  O66  1  0.79694600  0.96512500  0.56273900  1
  O  O67  1  0.86108200  0.24830500  0.80392900  1
  O  O68  1  0.89467300  0.56809100  0.06325300  1
  O  O69  1  0.79694600  0.03487500  0.06273900  1
  O  O70  1  0.61666300  0.65374500  0.06396300  1
  O  O71  1  0.63891800  0.74830500  0.69607100  1
  O  O72  1  0.36108200  0.25169500  0.30392900  1
  O  O73  1  0.38333700  0.34625500  0.93603700  1
  O  O74  1  0.20305400  0.96512500  0.93726100  1
  O  O75  1  0.10532700  0.43190900  0.93674700  1
  O  O76  1  0.13891800  0.75169500  0.19607100  1
  O  O77  1  0.20305400  0.03487500  0.43726100  1
  O  O78  1  0.10532700  0.56809100  0.43674700  1
  O  O79  1  0.38333700  0.65374500  0.43603700  1
  O  O80  1  0.11666300  0.84625500  0.56396300  1
  O  O81  1  0.39467300  0.93190900  0.56325300  1
  O  O82  1  0.29694600  0.46512500  0.56273900  1
  O  O83  1  0.36108200  0.74830500  0.80392900  1
  O  O84  1  0.39467300  0.06809100  0.06325300  1
  O  O85  1  0.29694600  0.53487500  0.06273900  1
  O  O86  1  0.11666300  0.15374500  0.06396300  1
  O  O87  1  0.13891800  0.24830500  0.69607100  1
