# generated using pymatgen
data_Hg3(BO3)2
_symmetry_space_group_name_H-M   'P 1'
_cell_length_a   9.04667028
_cell_length_b   9.04667028
_cell_length_c   14.41515657
_cell_angle_alpha   90.00000000
_cell_angle_beta   90.00000000
_cell_angle_gamma   120.00000000
_symmetry_Int_Tables_number   1
_chemical_formula_structural   Hg3(BO3)2
_chemical_formula_sum   'Hg18 B12 O36'
_cell_volume   1021.70970650
_cell_formula_units_Z   6
loop_
 _symmetry_equiv_pos_site_id
 _symmetry_equiv_pos_as_xyz
  1  'x, y, z'
loop_
 _atom_site_type_symbol
 _atom_site_label
 _atom_site_symmetry_multiplicity
 _atom_site_fract_x
 _atom_site_fract_y
 _atom_site_fract_z
 _atom_site_occupancy
  Hg  Hg0  1  0.66666667  0.69167933  0.08333333  1
  Hg  Hg1  1  0.30832067  0.97498733  0.08333333  1
  Hg  Hg2  1  0.02501267  0.33333333  0.08333333  1
  Hg  Hg3  1  0.00000000  0.64165400  0.25000000  1
  Hg  Hg4  1  0.35834600  0.35834600  0.25000000  1
  Hg  Hg5  1  0.64165400  0.00000000  0.25000000  1
  Hg  Hg6  1  0.33333333  0.02501267  0.41666667  1
  Hg  Hg7  1  0.97498733  0.30832067  0.41666667  1
  Hg  Hg8  1  0.69167933  0.66666667  0.41666667  1
  Hg  Hg9  1  0.66666667  0.97498733  0.58333333  1
  Hg  Hg10  1  0.02501267  0.69167933  0.58333333  1
  Hg  Hg11  1  0.30832067  0.33333333  0.58333333  1
  Hg  Hg12  1  0.00000000  0.35834600  0.75000000  1
  Hg  Hg13  1  0.64165400  0.64165400  0.75000000  1
  Hg  Hg14  1  0.35834600  0.00000000  0.75000000  1
  Hg  Hg15  1  0.33333333  0.30832067  0.91666667  1
  Hg  Hg16  1  0.69167933  0.02501267  0.91666667  1
  Hg  Hg17  1  0.97498733  0.66666667  0.91666667  1
  B  B18  1  0.33333333  0.66666667  0.77431867  1
  B  B19  1  0.33333333  0.66666667  0.55901467  1
  B  B20  1  0.33333333  0.66666667  0.27431867  1
  B  B21  1  0.33333333  0.66666667  0.05901467  1
  B  B22  1  0.00000000  0.00000000  0.10765200  1
  B  B23  1  0.00000000  0.00000000  0.89234800  1
  B  B24  1  0.00000000  0.00000000  0.60765200  1
  B  B25  1  1.00000000  0.00000000  0.39234800  1
  B  B26  1  0.66666667  0.33333333  0.44098533  1
  B  B27  1  0.66666667  0.33333333  0.22568133  1
  B  B28  1  0.66666667  0.33333333  0.94098533  1
  B  B29  1  0.66666667  0.33333333  0.72568133  1
  O  O30  1  0.15703667  0.56529233  0.55874033  1
  O  O31  1  0.43470767  0.59174433  0.55874033  1
  O  O32  1  0.40825567  0.84296333  0.55874033  1
  O  O33  1  0.25841100  0.76804100  0.27459300  1
  O  O34  1  0.50963000  0.74158900  0.27459300  1
  O  O35  1  0.23195900  0.49037000  0.27459300  1
  O  O36  1  0.23195900  0.74158900  0.77459300  1
  O  O37  1  0.50963000  0.76804100  0.77459300  1
  O  O38  1  0.25841100  0.49037000  0.77459300  1
  O  O39  1  0.15703667  0.59174433  0.05874033  1
  O  O40  1  0.43470767  0.84296333  0.05874033  1
  O  O41  1  0.40825567  0.56529233  0.05874033  1
  O  O42  1  0.82370333  0.89862567  0.89207367  1
  O  O43  1  0.10137433  0.92507767  0.89207367  1
  O  O44  1  0.07492233  0.17629667  0.89207367  1
  O  O45  1  0.92507767  0.10137433  0.60792633  1
  O  O46  1  0.17629667  0.07492233  0.60792633  1
  O  O47  1  0.89862567  0.82370333  0.60792633  1
  O  O48  1  0.89862567  0.07492233  0.10792633  1
  O  O49  1  0.17629667  0.10137433  0.10792633  1
  O  O50  1  0.92507767  0.82370333  0.10792633  1
  O  O51  1  0.82370333  0.92507767  0.39207367  1
  O  O52  1  0.10137433  0.17629667  0.39207367  1
  O  O53  1  0.07492233  0.89862567  0.39207367  1
  O  O54  1  0.49037000  0.23195900  0.22540700  1
  O  O55  1  0.76804100  0.25841100  0.22540700  1
  O  O56  1  0.74158900  0.50963000  0.22540700  1
  O  O57  1  0.59174433  0.43470767  0.94125967  1
  O  O58  1  0.84296333  0.40825567  0.94125967  1
  O  O59  1  0.56529233  0.15703667  0.94125967  1
  O  O60  1  0.56529233  0.40825567  0.44125967  1
  O  O61  1  0.84296333  0.43470767  0.44125967  1
  O  O62  1  0.59174433  0.15703667  0.44125967  1
  O  O63  1  0.49037000  0.25841100  0.72540700  1
  O  O64  1  0.76804100  0.50963000  0.72540700  1
  O  O65  1  0.74158900  0.23195900  0.72540700  1
