# generated using pymatgen
data_NaSr3LaTi5O15
_symmetry_space_group_name_H-M   'P 1'
_cell_length_a   5.53594600
_cell_length_b   5.53594600
_cell_length_c   39.44280000
_cell_angle_alpha   90.00000000
_cell_angle_beta   90.00000000
_cell_angle_gamma   90.00000000
_symmetry_Int_Tables_number   1
_chemical_formula_structural   NaSr3LaTi5O15
_chemical_formula_sum   'Na4 Sr12 La4 Ti20 O60'
_cell_volume   1208.79158441
_cell_formula_units_Z   4
loop_
 _symmetry_equiv_pos_site_id
 _symmetry_equiv_pos_as_xyz
  1  'x, y, z'
loop_
 _atom_site_type_symbol
 _atom_site_label
 _atom_site_symmetry_multiplicity
 _atom_site_fract_x
 _atom_site_fract_y
 _atom_site_fract_z
 _atom_site_occupancy
  Na  Na0  1  0.50000000  0.50000000  0.29964500  1
  Na  Na1  1  0.00000000  0.00000000  0.20035500  1
  Na  Na2  1  0.00000000  0.00000000  0.79964500  1
  Na  Na3  1  0.50000000  0.50000000  0.70035500  1
  Sr  Sr4  1  0.50000000  0.50000000  0.10029300  1
  Sr  Sr5  1  0.00000000  0.00000000  0.00000000  1
  Sr  Sr6  1  0.00000000  0.00000000  0.10077000  1
  Sr  Sr7  1  0.00000000  0.00000000  0.39970700  1
  Sr  Sr8  1  0.50000000  0.50000000  0.00000000  1
  Sr  Sr9  1  0.50000000  0.50000000  0.39923000  1
  Sr  Sr10  1  0.00000000  0.00000000  0.60029300  1
  Sr  Sr11  1  0.50000000  0.50000000  0.50000000  1
  Sr  Sr12  1  0.50000000  0.50000000  0.60077000  1
  Sr  Sr13  1  0.50000000  0.50000000  0.89970700  1
  Sr  Sr14  1  0.00000000  0.00000000  0.50000000  1
  Sr  Sr15  1  0.00000000  0.00000000  0.89923000  1
  La  La16  1  0.00000000  0.00000000  0.29961000  1
  La  La17  1  0.50000000  0.50000000  0.20039000  1
  La  La18  1  0.50000000  0.50000000  0.79961000  1
  La  La19  1  0.00000000  0.00000000  0.70039000  1
  Ti  Ti20  1  0.50000000  0.00000000  0.25000000  1
  Ti  Ti21  1  0.00000000  0.50000000  0.25000000  1
  Ti  Ti22  1  0.50000000  0.00000000  0.05034400  1
  Ti  Ti23  1  0.50000000  0.00000000  0.15108600  1
  Ti  Ti24  1  0.50000000  0.00000000  0.44965600  1
  Ti  Ti25  1  0.00000000  0.50000000  0.05034400  1
  Ti  Ti26  1  0.00000000  0.50000000  0.15108600  1
  Ti  Ti27  1  0.00000000  0.50000000  0.34891400  1
  Ti  Ti28  1  0.00000000  0.50000000  0.44965600  1
  Ti  Ti29  1  0.50000000  0.00000000  0.34891400  1
  Ti  Ti30  1  0.00000000  0.50000000  0.75000000  1
  Ti  Ti31  1  0.50000000  0.00000000  0.75000000  1
  Ti  Ti32  1  0.00000000  0.50000000  0.55034400  1
  Ti  Ti33  1  0.00000000  0.50000000  0.65108600  1
  Ti  Ti34  1  0.00000000  0.50000000  0.94965600  1
  Ti  Ti35  1  0.50000000  0.00000000  0.55034400  1
  Ti  Ti36  1  0.50000000  0.00000000  0.65108600  1
  Ti  Ti37  1  0.50000000  0.00000000  0.84891400  1
  Ti  Ti38  1  0.50000000  0.00000000  0.94965600  1
  Ti  Ti39  1  0.00000000  0.50000000  0.84891400  1
  O  O40  1  0.50000000  0.00000000  0.29941300  1
  O  O41  1  0.70373200  0.70373200  0.24904500  1
  O  O42  1  0.79626800  0.20373200  0.25095500  1
  O  O43  1  0.00000000  0.50000000  0.20058700  1
  O  O44  1  0.00000000  0.50000000  0.29941300  1
  O  O45  1  0.22379000  0.22379000  0.15074700  1
  O  O46  1  0.20373200  0.79626800  0.25095500  1
  O  O47  1  0.28722350  0.71277650  0.15180650  1
  O  O48  1  0.29626800  0.29626800  0.24904500  1
  O  O49  1  0.50000000  0.00000000  0.10075200  1
  O  O50  1  0.50000000  0.00000000  0.20058700  1
  O  O51  1  0.73012550  0.73012550  0.05021950  1
  O  O52  1  0.71277650  0.28722350  0.15180650  1
  O  O53  1  0.77007900  0.22992100  0.05052500  1
  O  O54  1  0.77621000  0.77621000  0.15074700  1
  O  O55  1  0.00000000  0.50000000  0.00000000  1
  O  O56  1  0.00000000  0.50000000  0.10075200  1
  O  O57  1  0.72992100  0.72992100  0.44947500  1
  O  O58  1  0.22992100  0.77007900  0.05052500  1
  O  O59  1  0.76987450  0.23012550  0.44978050  1
  O  O60  1  0.26987450  0.26987450  0.05021950  1
  O  O61  1  0.00000000  0.50000000  0.39924800  1
  O  O62  1  0.50000000  0.00000000  0.00000000  1
  O  O63  1  0.21277650  0.21277650  0.34819350  1
  O  O64  1  0.23012550  0.76987450  0.44978050  1
  O  O65  1  0.27621000  0.72379000  0.34925300  1
  O  O66  1  0.27007900  0.27007900  0.44947500  1
  O  O67  1  0.50000000  0.00000000  0.39924800  1
  O  O68  1  0.72379000  0.27621000  0.34925300  1
  O  O69  1  0.78722350  0.78722350  0.34819350  1
  O  O70  1  0.00000000  0.50000000  0.79941300  1
  O  O71  1  0.20373200  0.20373200  0.74904500  1
  O  O72  1  0.29626800  0.70373200  0.75095500  1
  O  O73  1  0.50000000  0.00000000  0.70058700  1
  O  O74  1  0.50000000  0.00000000  0.79941300  1
  O  O75  1  0.72379000  0.72379000  0.65074700  1
  O  O76  1  0.70373200  0.29626800  0.75095500  1
  O  O77  1  0.78722350  0.21277650  0.65180650  1
  O  O78  1  0.79626800  0.79626800  0.74904500  1
  O  O79  1  0.00000000  0.50000000  0.60075200  1
  O  O80  1  0.00000000  0.50000000  0.70058700  1
  O  O81  1  0.23012550  0.23012550  0.55021950  1
  O  O82  1  0.21277650  0.78722350  0.65180650  1
  O  O83  1  0.27007900  0.72992100  0.55052500  1
  O  O84  1  0.27621000  0.27621000  0.65074700  1
  O  O85  1  0.50000000  0.00000000  0.50000000  1
  O  O86  1  0.50000000  0.00000000  0.60075200  1
  O  O87  1  0.22992100  0.22992100  0.94947500  1
  O  O88  1  0.72992100  0.27007900  0.55052500  1
  O  O89  1  0.26987450  0.73012550  0.94978050  1
  O  O90  1  0.76987450  0.76987450  0.55021950  1
  O  O91  1  0.50000000  0.00000000  0.89924800  1
  O  O92  1  0.00000000  0.50000000  0.50000000  1
  O  O93  1  0.71277650  0.71277650  0.84819350  1
  O  O94  1  0.73012550  0.26987450  0.94978050  1
  O  O95  1  0.77621000  0.22379000  0.84925300  1
  O  O96  1  0.77007900  0.77007900  0.94947500  1
  O  O97  1  0.00000000  0.50000000  0.89924800  1
  O  O98  1  0.22379000  0.77621000  0.84925300  1
  O  O99  1  0.28722350  0.28722350  0.84819350  1
