# generated using pymatgen
data_SiNiH12(OF)6
_symmetry_space_group_name_H-M   'P 1'
_cell_length_a   9.52770130
_cell_length_b   9.52770130
_cell_length_c   9.77966904
_cell_angle_alpha   90.00000000
_cell_angle_beta   90.00000000
_cell_angle_gamma   120.00000000
_symmetry_Int_Tables_number   1
_chemical_formula_structural   SiNiH12(OF)6
_chemical_formula_sum   'Si3 Ni3 H36 O18 F18'
_cell_volume   768.83129997
_cell_formula_units_Z   3
loop_
 _symmetry_equiv_pos_site_id
 _symmetry_equiv_pos_as_xyz
  1  'x, y, z'
loop_
 _atom_site_type_symbol
 _atom_site_label
 _atom_site_symmetry_multiplicity
 _atom_site_fract_x
 _atom_site_fract_y
 _atom_site_fract_z
 _atom_site_occupancy
  Si  Si0  1  0.00000000  0.00000000  0.50000000  1
  Si  Si1  1  0.66666667  0.33333333  0.83333333  1
  Si  Si2  1  0.33333333  0.66666667  0.16666667  1
  Ni  Ni3  1  0.66666667  0.33333333  0.33333333  1
  Ni  Ni4  1  0.33333333  0.66666667  0.66666667  1
  Ni  Ni5  1  0.00000000  1.00000000  0.00000000  1
  H  H6  1  0.16160533  0.17919042  0.78084442  1
  H  H7  1  0.01758508  0.83839467  0.78084442  1
  H  H8  1  0.82080958  0.98241492  0.78084442  1
  H  H9  1  0.17919042  0.01758508  0.21915558  1
  H  H10  1  0.98241492  0.16160533  0.21915558  1
  H  H11  1  0.83839467  0.82080958  0.21915558  1
  H  H12  1  0.37341625  0.12781850  0.44050125  1
  H  H13  1  0.24559775  0.37341625  0.55949875  1
  H  H14  1  0.12781850  0.75440225  0.55949875  1
  H  H15  1  0.87218150  0.24559775  0.44050125  1
  H  H16  1  0.75440225  0.62658375  0.44050125  1
  H  H17  1  0.62658375  0.87218150  0.55949875  1
  H  H18  1  0.82827200  0.51252375  0.11417775  1
  H  H19  1  0.68425175  0.17172800  0.11417775  1
  H  H20  1  0.48747625  0.31574825  0.11417775  1
  H  H21  1  0.84585708  0.35091842  0.55248892  1
  H  H22  1  0.64908158  0.49493867  0.55248892  1
  H  H23  1  0.50506133  0.15414292  0.55248892  1
  H  H24  1  0.04008292  0.46115183  0.77383458  1
  H  H25  1  0.91226442  0.70674958  0.89283208  1
  H  H26  1  0.79448517  0.08773558  0.89283208  1
  H  H27  1  0.53884817  0.57893108  0.77383458  1
  H  H28  1  0.42106892  0.95991708  0.77383458  1
  H  H29  1  0.29325042  0.20551483  0.89283208  1
  H  H30  1  0.49493867  0.84585708  0.44751108  1
  H  H31  1  0.35091842  0.50506133  0.44751108  1
  H  H32  1  0.15414292  0.64908158  0.44751108  1
  H  H33  1  0.51252375  0.68425175  0.88582225  1
  H  H34  1  0.31574825  0.82827200  0.88582225  1
  H  H35  1  0.17172800  0.48747625  0.88582225  1
  H  H36  1  0.70674958  0.79448517  0.10716792  1
  H  H37  1  0.57893108  0.04008292  0.22616542  1
  H  H38  1  0.46115183  0.42106892  0.22616542  1
  H  H39  1  0.20551483  0.91226442  0.10716792  1
  H  H40  1  0.08773558  0.29325042  0.10716792  1
  H  H41  1  0.95991708  0.53884817  0.22616542  1
  O  O42  1  0.48660525  0.15547450  0.45382125  1
  O  O43  1  0.33113075  0.48660525  0.54617875  1
  O  O44  1  0.15547450  0.66886925  0.54617875  1
  O  O45  1  0.84452550  0.33113075  0.45382125  1
  O  O46  1  0.66886925  0.51339475  0.45382125  1
  O  O47  1  0.51339475  0.84452550  0.54617875  1
  O  O48  1  0.15327192  0.48880783  0.78715458  1
  O  O49  1  0.99779742  0.81993858  0.87951208  1
  O  O50  1  0.82214117  0.00220258  0.87951208  1
  O  O51  1  0.51119217  0.66446408  0.78715458  1
  O  O52  1  0.33553592  0.84672808  0.78715458  1
  O  O53  1  0.18006142  0.17785883  0.87951208  1
  O  O54  1  0.81993858  0.82214117  0.12048792  1
  O  O55  1  0.66446408  0.15327192  0.21284542  1
  O  O56  1  0.48880783  0.33553592  0.21284542  1
  O  O57  1  0.17785883  0.99779742  0.12048792  1
  O  O58  1  0.00220258  0.18006142  0.12048792  1
  O  O59  1  0.84672808  0.51119217  0.21284542  1
  F  F60  1  0.11972692  0.16454633  0.60157108  1
  F  F61  1  0.04481942  0.88027308  0.60157108  1
  F  F62  1  0.16454633  0.04481942  0.39842892  1
  F  F63  1  0.83545367  0.95518058  0.60157108  1
  F  F64  1  0.95518058  0.11972692  0.39842892  1
  F  F65  1  0.88027308  0.83545367  0.39842892  1
  F  F66  1  0.78639358  0.49787967  0.93490442  1
  F  F67  1  0.71148608  0.21360642  0.93490442  1
  F  F68  1  0.83121300  0.37815275  0.73176225  1
  F  F69  1  0.50212033  0.28851392  0.93490442  1
  F  F70  1  0.62184725  0.45306025  0.73176225  1
  F  F71  1  0.54693975  0.16878700  0.73176225  1
  F  F72  1  0.45306025  0.83121300  0.26823775  1
  F  F73  1  0.37815275  0.54693975  0.26823775  1
  F  F74  1  0.49787967  0.71148608  0.06509558  1
  F  F75  1  0.16878700  0.62184725  0.26823775  1
  F  F76  1  0.28851392  0.78639358  0.06509558  1
  F  F77  1  0.21360642  0.50212033  0.06509558  1
