# generated using pymatgen
data_Al2SiO5
_symmetry_space_group_name_H-M   'P 1'
_cell_length_a   5.81749400
_cell_length_b   7.57317100
_cell_length_c   7.77819300
_cell_angle_alpha   90.00000000
_cell_angle_beta   90.00000000
_cell_angle_gamma   90.00000000
_symmetry_Int_Tables_number   1
_chemical_formula_structural   Al2SiO5
_chemical_formula_sum   'Al8 Si4 O20'
_cell_volume   342.68289114
_cell_formula_units_Z   4
loop_
 _symmetry_equiv_pos_site_id
 _symmetry_equiv_pos_as_xyz
  1  'x, y, z'
loop_
 _atom_site_type_symbol
 _atom_site_label
 _atom_site_symmetry_multiplicity
 _atom_site_fract_x
 _atom_site_fract_y
 _atom_site_fract_z
 _atom_site_occupancy
  Al  Al0  1  0.00000000  0.00000000  0.00000000  1
  Al  Al1  1  0.50000000  0.00000000  0.00000000  1
  Al  Al2  1  0.00000000  0.50000000  0.50000000  1
  Al  Al3  1  0.50000000  0.50000000  0.50000000  1
  Al  Al4  1  0.25000000  0.35695100  0.84619600  1
  Al  Al5  1  0.75000000  0.64304900  0.15380400  1
  Al  Al6  1  0.75000000  0.85695100  0.65380400  1
  Al  Al7  1  0.25000000  0.14304900  0.34619600  1
  Si  Si8  1  0.75000000  0.15266800  0.34105200  1
  Si  Si9  1  0.25000000  0.84733200  0.65894800  1
  Si  Si10  1  0.25000000  0.65266800  0.15894800  1
  Si  Si11  1  0.75000000  0.34733200  0.84105200  1
  O  O12  1  0.01379100  0.62546500  0.27631800  1
  O  O13  1  0.51379100  0.37453500  0.72368200  1
  O  O14  1  0.98620900  0.12546500  0.22368200  1
  O  O15  1  0.48620900  0.87453500  0.77631800  1
  O  O16  1  0.98620900  0.37453500  0.72368200  1
  O  O17  1  0.48620900  0.62546500  0.27631800  1
  O  O18  1  0.01379100  0.87453500  0.77631800  1
  O  O19  1  0.51379100  0.12546500  0.22368200  1
  O  O20  1  0.75000000  0.02166300  0.50108200  1
  O  O21  1  0.25000000  0.97833700  0.49891800  1
  O  O22  1  0.25000000  0.52166300  0.99891800  1
  O  O23  1  0.75000000  0.47833700  0.00108200  1
  O  O24  1  0.75000000  0.35928500  0.41026400  1
  O  O25  1  0.25000000  0.64071500  0.58973600  1
  O  O26  1  0.25000000  0.85928500  0.08973600  1
  O  O27  1  0.75000000  0.14071500  0.91026400  1
  O  O28  1  0.25000000  0.35744700  0.43440200  1
  O  O29  1  0.75000000  0.64255300  0.56559800  1
  O  O30  1  0.75000000  0.85744700  0.06559800  1
  O  O31  1  0.25000000  0.14255300  0.93440200  1
