# generated using pymatgen
data_Ag3AsS3
_symmetry_space_group_name_H-M   'P 1'
_cell_length_a   10.76476106
_cell_length_b   10.76476106
_cell_length_c   9.58336759
_cell_angle_alpha   90.00000000
_cell_angle_beta   90.00000000
_cell_angle_gamma   120.00000000
_symmetry_Int_Tables_number   1
_chemical_formula_structural   Ag3AsS3
_chemical_formula_sum   'Ag18 As6 S18'
_cell_volume   961.73975288
_cell_formula_units_Z   6
loop_
 _symmetry_equiv_pos_site_id
 _symmetry_equiv_pos_as_xyz
  1  'x, y, z'
loop_
 _atom_site_type_symbol
 _atom_site_label
 _atom_site_symmetry_multiplicity
 _atom_site_fract_x
 _atom_site_fract_y
 _atom_site_fract_z
 _atom_site_occupancy
  Ag  Ag0  1  0.70829467  0.63104133  0.54934833  1
  Ag  Ag1  1  0.36895867  0.07725333  0.54934833  1
  Ag  Ag2  1  0.92274667  0.29170533  0.54934833  1
  Ag  Ag3  1  0.04162800  0.74392000  0.71601500  1
  Ag  Ag4  1  0.70229200  0.95837200  0.71601500  1
  Ag  Ag5  1  0.25608000  0.29770800  0.71601500  1
  Ag  Ag6  1  0.37496133  0.96437467  0.88268167  1
  Ag  Ag7  1  0.03562533  0.41058667  0.88268167  1
  Ag  Ag8  1  0.58941333  0.62503867  0.88268167  1
  Ag  Ag9  1  0.70829467  0.07725333  0.04934833  1
  Ag  Ag10  1  0.36895867  0.29170533  0.04934833  1
  Ag  Ag11  1  0.92274667  0.63104133  0.04934833  1
  Ag  Ag12  1  0.04162800  0.29770800  0.21601500  1
  Ag  Ag13  1  0.70229200  0.74392000  0.21601500  1
  Ag  Ag14  1  0.25608000  0.95837200  0.21601500  1
  Ag  Ag15  1  0.37496133  0.41058667  0.38268167  1
  Ag  Ag16  1  0.03562533  0.62503867  0.38268167  1
  Ag  Ag17  1  0.58941333  0.96437467  0.38268167  1
  As  As18  1  0.00000000  0.00000000  0.99399700  1
  As  As19  1  0.00000000  0.00000000  0.49399700  1
  As  As20  1  0.66666667  0.33333333  0.32733033  1
  As  As21  1  0.66666667  0.33333333  0.82733033  1
  As  As22  1  0.33333333  0.66666667  0.66066367  1
  As  As23  1  0.33333333  0.66666667  0.16066367  1
  S  S24  1  0.55124500  0.77258900  0.54635300  1
  S  S25  1  0.22741100  0.77865600  0.54635300  1
  S  S26  1  0.21791167  0.11198933  0.37968633  1
  S  S27  1  0.22134400  0.44875500  0.54635300  1
  S  S28  1  0.88801067  0.10592233  0.37968633  1
  S  S29  1  0.89407767  0.78208833  0.37968633  1
  S  S30  1  0.21791167  0.10592233  0.87968633  1
  S  S31  1  0.89407767  0.11198933  0.87968633  1
  S  S32  1  0.88457833  0.44532267  0.71301967  1
  S  S33  1  0.88801067  0.78208833  0.87968633  1
  S  S34  1  0.55467733  0.43925567  0.71301967  1
  S  S35  1  0.56074433  0.11542167  0.71301967  1
  S  S36  1  0.88457833  0.43925567  0.21301967  1
  S  S37  1  0.56074433  0.44532267  0.21301967  1
  S  S38  1  0.55124500  0.77865600  0.04635300  1
  S  S39  1  0.55467733  0.11542167  0.21301967  1
  S  S40  1  0.22134400  0.77258900  0.04635300  1
  S  S41  1  0.22741100  0.44875500  0.04635300  1
