# generated using pymatgen
data_RbAlF4
_symmetry_space_group_name_H-M   'P 1'
_cell_length_a   6.39693800
_cell_length_b   7.36952200
_cell_length_c   7.37943000
_cell_angle_alpha   90.00000000
_cell_angle_beta   90.00000000
_cell_angle_gamma   90.00000000
_symmetry_Int_Tables_number   1
_chemical_formula_structural   RbAlF4
_chemical_formula_sum   'Rb4 Al4 F16'
_cell_volume   347.88385873
_cell_formula_units_Z   4
loop_
 _symmetry_equiv_pos_site_id
 _symmetry_equiv_pos_as_xyz
  1  'x, y, z'
loop_
 _atom_site_type_symbol
 _atom_site_label
 _atom_site_symmetry_multiplicity
 _atom_site_fract_x
 _atom_site_fract_y
 _atom_site_fract_z
 _atom_site_occupancy
  Rb  Rb0  1  0.51943400  0.50000000  0.00000000  1
  Rb  Rb1  1  0.48056600  0.00000000  0.50000000  1
  Rb  Rb2  1  0.48386600  0.00000000  0.00000000  1
  Rb  Rb3  1  0.51613400  0.50000000  0.50000000  1
  Al  Al4  1  0.00000000  0.75000000  0.25000000  1
  Al  Al5  1  0.00000000  0.25000000  0.75000000  1
  Al  Al6  1  0.00000000  0.25000000  0.25000000  1
  Al  Al7  1  0.00000000  0.75000000  0.75000000  1
  F  F8  1  0.72200500  0.76748900  0.25279100  1
  F  F9  1  0.72200500  0.23251100  0.74720900  1
  F  F10  1  0.27799500  0.26748900  0.24720900  1
  F  F11  1  0.27799500  0.73251100  0.75279100  1
  F  F12  1  0.27799500  0.73251100  0.24720900  1
  F  F13  1  0.27799500  0.26748900  0.75279100  1
  F  F14  1  0.72200500  0.23251100  0.25279100  1
  F  F15  1  0.72200500  0.76748900  0.74720900  1
  F  F16  1  0.00731600  0.78295700  0.50000000  1
  F  F17  1  0.00731600  0.21704300  0.50000000  1
  F  F18  1  0.99268400  0.28295700  0.00000000  1
  F  F19  1  0.99268400  0.71704300  0.00000000  1
  F  F20  1  0.97474300  0.50000000  0.71697600  1
  F  F21  1  0.97474300  0.50000000  0.28302400  1
  F  F22  1  0.02525700  0.00000000  0.78302400  1
  F  F23  1  0.02525700  0.00000000  0.21697600  1
