# generated using pymatgen
data_HfSiO4
_symmetry_space_group_name_H-M   'P 1'
_cell_length_a   6.62464600
_cell_length_b   6.62464600
_cell_length_c   6.00718600
_cell_angle_alpha   90.00000000
_cell_angle_beta   90.00000000
_cell_angle_gamma   90.00000000
_symmetry_Int_Tables_number   1
_chemical_formula_structural   HfSiO4
_chemical_formula_sum   'Hf4 Si4 O16'
_cell_volume   263.63097208
_cell_formula_units_Z   4
loop_
 _symmetry_equiv_pos_site_id
 _symmetry_equiv_pos_as_xyz
  1  'x, y, z'
loop_
 _atom_site_type_symbol
 _atom_site_label
 _atom_site_symmetry_multiplicity
 _atom_site_fract_x
 _atom_site_fract_y
 _atom_site_fract_z
 _atom_site_occupancy
  Hf  Hf0  1  0.50000000  0.00000000  0.25000000  1
  Hf  Hf1  1  0.50000000  0.50000000  0.50000000  1
  Hf  Hf2  1  0.00000000  0.50000000  0.75000000  1
  Hf  Hf3  1  0.00000000  0.00000000  0.00000000  1
  Si  Si4  1  0.00000000  0.00000000  0.50000000  1
  Si  Si5  1  0.50000000  0.00000000  0.75000000  1
  Si  Si6  1  0.50000000  0.50000000  0.00000000  1
  Si  Si7  1  0.00000000  0.50000000  0.25000000  1
  O  O8  1  0.00000000  0.31538400  0.06840900  1
  O  O9  1  0.18461600  0.00000000  0.31840900  1
  O  O10  1  0.81538400  0.00000000  0.31840900  1
  O  O11  1  0.50000000  0.18461600  0.56840900  1
  O  O12  1  0.81538400  0.50000000  0.43159100  1
  O  O13  1  0.00000000  0.18461600  0.68159100  1
  O  O14  1  0.00000000  0.81538400  0.68159100  1
  O  O15  1  0.68461600  0.00000000  0.93159100  1
  O  O16  1  0.50000000  0.81538400  0.56840900  1
  O  O17  1  0.68461600  0.50000000  0.81840900  1
  O  O18  1  0.31538400  0.50000000  0.81840900  1
  O  O19  1  0.00000000  0.68461600  0.06840900  1
  O  O20  1  0.31538400  0.00000000  0.93159100  1
  O  O21  1  0.50000000  0.68461600  0.18159100  1
  O  O22  1  0.50000000  0.31538400  0.18159100  1
  O  O23  1  0.18461600  0.50000000  0.43159100  1
