# generated using pymatgen
data_GaPO4
_symmetry_space_group_name_H-M   'P 1'
_cell_length_a   5.00913598
_cell_length_b   5.00913598
_cell_length_c   11.24743000
_cell_angle_alpha   90.00000000
_cell_angle_beta   90.00000000
_cell_angle_gamma   120.00000000
_symmetry_Int_Tables_number   1
_chemical_formula_structural   GaPO4
_chemical_formula_sum   'Ga3 P3 O12'
_cell_volume   244.40471098
_cell_formula_units_Z   3
loop_
 _symmetry_equiv_pos_site_id
 _symmetry_equiv_pos_as_xyz
  1  'x, y, z'
loop_
 _atom_site_type_symbol
 _atom_site_label
 _atom_site_symmetry_multiplicity
 _atom_site_fract_x
 _atom_site_fract_y
 _atom_site_fract_z
 _atom_site_occupancy
  Ga  Ga0  1  0.53926300  0.53926300  0.00000000  1
  Ga  Ga1  1  0.00000000  0.46073700  0.66666667  1
  Ga  Ga2  1  0.46073700  0.00000000  0.33333333  1
  P  P3  1  0.53768600  0.53768600  0.50000000  1
  P  P4  1  0.00000000  0.46231400  0.16666667  1
  P  P5  1  0.46231400  0.00000000  0.83333333  1
  O  O6  1  0.26657600  0.41246800  0.12573600  1
  O  O7  1  0.58753200  0.85410800  0.45906933  1
  O  O8  1  0.14589200  0.73342400  0.79240267  1
  O  O9  1  0.85410800  0.58753200  0.54093067  1
  O  O10  1  0.73342400  0.14589200  0.20759733  1
  O  O11  1  0.41246800  0.26657600  0.87426400  1
  O  O12  1  0.40804000  0.31059800  0.39420300  1
  O  O13  1  0.68940200  0.09744200  0.72753633  1
  O  O14  1  0.90255800  0.59196000  0.06086967  1
  O  O15  1  0.09744200  0.68940200  0.27246367  1
  O  O16  1  0.59196000  0.90255800  0.93913033  1
  O  O17  1  0.31059800  0.40804000  0.60579700  1
