# generated using pymatgen
data_Na8Be3Si9(ClO12)2
_symmetry_space_group_name_H-M   'P 1'
_cell_length_a   7.61489800
_cell_length_b   7.61542941
_cell_length_c   12.42015740
_cell_angle_alpha   90.07928720
_cell_angle_beta   90.13043170
_cell_angle_gamma   109.56662233
_symmetry_Int_Tables_number   1
_chemical_formula_structural   Na8Be3Si9(ClO12)2
_chemical_formula_sum   'Na8 Be3 Si9 Cl2 O24'
_cell_volume   678.65762089
_cell_formula_units_Z   1
loop_
 _symmetry_equiv_pos_site_id
 _symmetry_equiv_pos_as_xyz
  1  'x, y, z'
loop_
 _atom_site_type_symbol
 _atom_site_label
 _atom_site_symmetry_multiplicity
 _atom_site_fract_x
 _atom_site_fract_y
 _atom_site_fract_z
 _atom_site_occupancy
  Na  Na0  1  0.17179600  0.19578600  0.18562100  1
  Na  Na1  1  0.67321800  0.69842900  0.31490400  1
  Na  Na2  1  0.69217800  0.66262700  0.67969400  1
  Na  Na3  1  0.53136700  0.15662500  0.47939600  1
  Na  Na4  1  0.15282800  0.19538700  0.81964800  1
  Na  Na5  1  0.12319200  0.48089100  0.50305600  1
  Na  Na6  1  0.02057700  0.63342000  0.00225800  1
  Na  Na7  1  0.63480000  0.96889800  0.01040300  1
  Be  Be8  1  0.37079900  0.62620000  0.12562300  1
  Be  Be9  1  0.87261900  0.12573100  0.37371000  1
  Be  Be10  1  0.00363800  0.49929900  0.74911700  1
  Si  Si11  1  0.61990600  0.38400700  0.12937600  1
  Si  Si12  1  0.00255700  0.49495200  0.25480400  1
  Si  Si13  1  0.12256700  0.88451200  0.37204500  1
  Si  Si14  1  0.50379800  0.99866200  0.75124300  1
  Si  Si15  1  0.12216600  0.87118700  0.62684400  1
  Si  Si16  1  0.63887600  0.37831800  0.87806200  1
  Si  Si17  1  0.87365300  0.12911400  0.61960900  1
  Si  Si18  1  0.50159900  0.99604000  0.24547000  1
  Si  Si19  1  0.36805200  0.61457400  0.87545800  1
  Cl  Cl20  1  0.49815700  0.50052200  0.50110800  1
  Cl  Cl21  1  0.00049800  0.99695400  0.99759100  1
  O  O22  1  0.94003100  0.35037500  0.35285600  1
  O  O23  1  0.84466800  0.44518700  0.15475100  1
  O  O24  1  0.00100600  0.70177800  0.30076900  1
  O  O25  1  0.54896800  0.55522400  0.14933200  1
  O  O26  1  0.45375600  0.84452500  0.84723000  1
  O  O27  1  0.19631400  0.50710000  0.20000000  1
  O  O28  1  0.10800300  0.81071900  0.49902800  1
  O  O29  1  0.34996900  0.95406200  0.65367100  1
  O  O30  1  0.34725800  0.94703400  0.34640100  1
  O  O31  1  0.43647600  0.85015300  0.14845300  1
  O  O32  1  0.04918000  0.05359200  0.35096600  1
  O  O33  1  0.50911800  0.19780000  0.80404300  1
  O  O34  1  0.04915700  0.04923700  0.64733500  1
  O  O35  1  0.70250900  0.99995400  0.70184600  1
  O  O36  1  0.59762200  0.30352400  0.00309900  1
  O  O37  1  0.69856300  0.01014700  0.29705000  1
  O  O38  1  0.79968400  0.08542200  0.49904900  1
  O  O39  1  0.85530800  0.44711000  0.85125100  1
  O  O40  1  0.49845600  0.20345400  0.20207000  1
  O  O41  1  0.94071500  0.34385300  0.65366700  1
  O  O42  1  0.55217100  0.54548000  0.85237000  1
  O  O43  1  0.20795700  0.50670700  0.79206600  1
  O  O44  1  0.30815000  0.59563400  0.99866900  1
  O  O45  1  0.00612900  0.69980300  0.69899700  1
