# generated using pymatgen
data_ZnSiH12(OF)6
_symmetry_space_group_name_H-M   'P 1'
_cell_length_a   9.56332603
_cell_length_b   9.56332603
_cell_length_c   9.84095427
_cell_angle_alpha   90.00000000
_cell_angle_beta   90.00000000
_cell_angle_gamma   120.00000000
_symmetry_Int_Tables_number   1
_chemical_formula_structural   ZnSiH12(OF)6
_chemical_formula_sum   'Zn3 Si3 H36 O18 F18'
_cell_volume   779.44552667
_cell_formula_units_Z   3
loop_
 _symmetry_equiv_pos_site_id
 _symmetry_equiv_pos_as_xyz
  1  'x, y, z'
loop_
 _atom_site_type_symbol
 _atom_site_label
 _atom_site_symmetry_multiplicity
 _atom_site_fract_x
 _atom_site_fract_y
 _atom_site_fract_z
 _atom_site_occupancy
  Zn  Zn0  1  0.00000000  0.00000000  0.00000000  1
  Zn  Zn1  1  0.66666667  0.33333333  0.33333333  1
  Zn  Zn2  1  0.33333333  0.66666667  0.66666667  1
  Si  Si3  1  0.00000000  0.00000000  0.50000000  1
  Si  Si4  1  0.66666667  0.33333333  0.83333333  1
  Si  Si5  1  0.33333333  0.66666667  0.16666667  1
  H  H6  1  0.82126667  0.83457333  0.77934533  1
  H  H7  1  0.87554767  0.62996133  0.44159033  1
  H  H8  1  0.62996133  0.75441367  0.55840967  1
  H  H9  1  0.16542667  0.98669333  0.77934533  1
  H  H10  1  0.24558633  0.87554767  0.55840967  1
  H  H11  1  0.01330667  0.17873333  0.77934533  1
  H  H12  1  0.98669333  0.82126667  0.22065467  1
  H  H13  1  0.75441367  0.12445233  0.44159033  1
  H  H14  1  0.83457333  0.01330667  0.22065467  1
  H  H15  1  0.37003867  0.24558633  0.44159033  1
  H  H16  1  0.12445233  0.37003867  0.55840967  1
  H  H17  1  0.17873333  0.16542667  0.22065467  1
  H  H18  1  0.48793333  0.16790667  0.11267867  1
  H  H19  1  0.54221433  0.96329467  0.77492367  1
  H  H20  1  0.29662800  0.08774700  0.89174300  1
  H  H21  1  0.83209333  0.32002667  0.11267867  1
  H  H22  1  0.91225300  0.20888100  0.89174300  1
  H  H23  1  0.67997333  0.51206667  0.11267867  1
  H  H24  1  0.65336000  0.15460000  0.55398800  1
  H  H25  1  0.42108033  0.45778567  0.77492367  1
  H  H26  1  0.50124000  0.34664000  0.55398800  1
  H  H27  1  0.03670533  0.57891967  0.77492367  1
  H  H28  1  0.79111900  0.70337200  0.89174300  1
  H  H29  1  0.84540000  0.49876000  0.55398800  1
  H  H30  1  0.15460000  0.50124000  0.44601200  1
  H  H31  1  0.20888100  0.29662800  0.10825700  1
  H  H32  1  0.96329467  0.42108033  0.22507633  1
  H  H33  1  0.49876000  0.65336000  0.44601200  1
  H  H34  1  0.57891967  0.54221433  0.22507633  1
  H  H35  1  0.34664000  0.84540000  0.44601200  1
  H  H36  1  0.32002667  0.48793333  0.88732133  1
  H  H37  1  0.08774700  0.79111900  0.10825700  1
  H  H38  1  0.16790667  0.67997333  0.88732133  1
  H  H39  1  0.70337200  0.91225300  0.10825700  1
  H  H40  1  0.45778567  0.03670533  0.22507633  1
  H  H41  1  0.51206667  0.83209333  0.88732133  1
  O  O42  1  0.84638767  0.51673033  0.45562533  1
  O  O43  1  0.51673033  0.67034267  0.54437467  1
  O  O44  1  0.32965733  0.84638767  0.54437467  1
  O  O45  1  0.67034267  0.15361233  0.45562533  1
  O  O46  1  0.48326967  0.32965733  0.45562533  1
  O  O47  1  0.15361233  0.48326967  0.54437467  1
  O  O48  1  0.51305433  0.85006367  0.78895867  1
  O  O49  1  0.18339700  0.00367600  0.87770800  1
  O  O50  1  0.99632400  0.17972100  0.87770800  1
  O  O51  1  0.33700933  0.48694567  0.78895867  1
  O  O52  1  0.14993633  0.66299067  0.78895867  1
  O  O53  1  0.82027900  0.81660300  0.87770800  1
  O  O54  1  0.17972100  0.18339700  0.12229200  1
  O  O55  1  0.85006367  0.33700933  0.21104133  1
  O  O56  1  0.66299067  0.51305433  0.21104133  1
  O  O57  1  0.00367600  0.82027900  0.12229200  1
  O  O58  1  0.81660300  0.99632400  0.12229200  1
  O  O59  1  0.48694567  0.14993633  0.21104133  1
  F  F60  1  0.83921000  0.87278800  0.60086000  1
  F  F61  1  0.12721200  0.96642200  0.60086000  1
  F  F62  1  0.96642200  0.83921000  0.39914000  1
  F  F63  1  0.03357800  0.16079000  0.60086000  1
  F  F64  1  0.87278800  0.03357800  0.39914000  1
  F  F65  1  0.16079000  0.12721200  0.39914000  1
  F  F66  1  0.50587667  0.20612133  0.93419333  1
  F  F67  1  0.79387867  0.29975533  0.93419333  1
  F  F68  1  0.63308867  0.17254333  0.73247333  1
  F  F69  1  0.70024467  0.49412333  0.93419333  1
  F  F70  1  0.53945467  0.36691133  0.73247333  1
  F  F71  1  0.82745667  0.46054533  0.73247333  1
  F  F72  1  0.17254333  0.53945467  0.26752667  1
  F  F73  1  0.46054533  0.63308867  0.26752667  1
  F  F74  1  0.29975533  0.50587667  0.06580667  1
  F  F75  1  0.36691133  0.82745667  0.26752667  1
  F  F76  1  0.20612133  0.70024467  0.06580667  1
  F  F77  1  0.49412333  0.79387867  0.06580667  1
