# generated using pymatgen
data_Al2(SO4)3
_symmetry_space_group_name_H-M   'P 1'
_cell_length_a   8.14175613
_cell_length_b   8.14175613
_cell_length_c   21.65554205
_cell_angle_alpha   90.00000000
_cell_angle_beta   90.00000000
_cell_angle_gamma   120.00000000
_symmetry_Int_Tables_number   1
_chemical_formula_structural   Al2(SO4)3
_chemical_formula_sum   'Al12 S18 O72'
_cell_volume   1243.18531130
_cell_formula_units_Z   6
loop_
 _symmetry_equiv_pos_site_id
 _symmetry_equiv_pos_as_xyz
  1  'x, y, z'
loop_
 _atom_site_type_symbol
 _atom_site_label
 _atom_site_symmetry_multiplicity
 _atom_site_fract_x
 _atom_site_fract_y
 _atom_site_fract_z
 _atom_site_occupancy
  Al  Al0  1  0.66666667  0.33333333  0.18914233  1
  Al  Al1  1  0.00000000  0.00000000  0.14419100  1
  Al  Al2  1  0.33333333  0.66666667  0.31500367  1
  Al  Al3  1  0.33333333  0.66666667  0.01832967  1
  Al  Al4  1  0.33333333  0.66666667  0.52247567  1
  Al  Al5  1  0.66666667  0.33333333  0.47752433  1
  Al  Al6  1  0.00000000  0.00000000  0.64833700  1
  Al  Al7  1  0.00000000  0.00000000  0.35166300  1
  Al  Al8  1  0.00000000  0.00000000  0.85580900  1
  Al  Al9  1  0.33333333  0.66666667  0.81085767  1
  Al  Al10  1  0.66666667  0.33333333  0.98167033  1
  Al  Al11  1  0.66666667  0.33333333  0.68499633  1
  S  S12  1  0.95376533  0.33158867  0.08291367  1
  S  S13  1  0.37782333  0.04623467  0.08291367  1
  S  S14  1  0.66841133  0.62217667  0.08291367  1
  S  S15  1  0.28884333  0.28709867  0.25041967  1
  S  S16  1  0.71290133  0.00174467  0.25041967  1
  S  S17  1  0.99825533  0.71115667  0.25041967  1
  S  S18  1  0.62043200  0.66492200  0.41624700  1
  S  S19  1  0.04449000  0.37956800  0.41624700  1
  S  S20  1  0.33507800  0.95551000  0.41624700  1
  S  S21  1  0.95551000  0.62043200  0.58375300  1
  S  S22  1  0.37956800  0.33507800  0.58375300  1
  S  S23  1  0.66492200  0.04449000  0.58375300  1
  S  S24  1  0.28709867  0.99825533  0.74958033  1
  S  S25  1  0.71115667  0.71290133  0.74958033  1
  S  S26  1  0.00174467  0.28884333  0.74958033  1
  S  S27  1  0.62217667  0.95376533  0.91708633  1
  S  S28  1  0.04623467  0.66841133  0.91708633  1
  S  S29  1  0.33158867  0.37782333  0.91708633  1
  O  O30  1  0.18655800  0.73464100  0.26419100  1
  O  O31  1  0.54808300  0.81344200  0.26419100  1
  O  O32  1  0.26535900  0.45191700  0.26419100  1
  O  O33  1  0.48010867  0.59869233  0.06914233  1
  O  O34  1  0.11858367  0.51989133  0.06914233  1
  O  O35  1  0.40130767  0.88141633  0.06914233  1
  O  O36  1  0.85829767  0.50904333  0.24236033  1
  O  O37  1  0.65074567  0.14170233  0.24236033  1
  O  O38  1  0.49095667  0.34925433  0.24236033  1
  O  O39  1  0.80836900  0.82429000  0.09097300  1
  O  O40  1  0.48228333  0.13216467  0.14057867  1
  O  O41  1  0.86783533  0.35011867  0.14057867  1
  O  O42  1  0.64988133  0.51771667  0.14057867  1
  O  O43  1  0.18438333  0.20116867  0.19275467  1
  O  O44  1  0.79883133  0.98321467  0.19275467  1
  O  O45  1  0.01678533  0.81561667  0.19275467  1
  O  O46  1  0.44944700  0.18552600  0.03161200  1
  O  O47  1  0.81447400  0.26392100  0.03161200  1
  O  O48  1  0.73607900  0.55055300  0.03161200  1
  O  O49  1  0.21721967  0.14780733  0.30172133  1
  O  O50  1  0.85219267  0.06941233  0.30172133  1
  O  O51  1  0.93058767  0.78278033  0.30172133  1
  O  O52  1  0.17571000  0.98407900  0.09097300  1
  O  O53  1  0.01592100  0.19163100  0.09097300  1
  O  O54  1  0.85322467  0.06797433  0.59752433  1
  O  O55  1  0.21474967  0.14677533  0.59752433  1
  O  O56  1  0.93202567  0.78525033  0.59752433  1
  O  O57  1  0.14677533  0.93202567  0.40247567  1
  O  O58  1  0.78525033  0.85322467  0.40247567  1
  O  O59  1  0.06797433  0.21474967  0.40247567  1
  O  O60  1  0.52496433  0.84237667  0.57569367  1
  O  O61  1  0.31741233  0.47503567  0.57569367  1
  O  O62  1  0.15762333  0.68258767  0.57569367  1
  O  O63  1  0.47503567  0.15762333  0.42430633  1
  O  O64  1  0.14895000  0.46549800  0.47391200  1
  O  O65  1  0.53450200  0.68345200  0.47391200  1
  O  O66  1  0.31654800  0.85105000  0.47391200  1
  O  O67  1  0.85105000  0.53450200  0.52608800  1
  O  O68  1  0.46549800  0.31654800  0.52608800  1
  O  O69  1  0.68345200  0.14895000  0.52608800  1
  O  O70  1  0.11611367  0.51885933  0.36494533  1
  O  O71  1  0.48114067  0.59725433  0.36494533  1
  O  O72  1  0.40274567  0.88388633  0.36494533  1
  O  O73  1  0.88388633  0.48114067  0.63505467  1
  O  O74  1  0.51885933  0.40274567  0.63505467  1
  O  O75  1  0.59725433  0.11611367  0.63505467  1
  O  O76  1  0.84237667  0.31741233  0.42430633  1
  O  O77  1  0.68258767  0.52496433  0.42430633  1
  O  O78  1  0.51989133  0.40130767  0.93085767  1
  O  O79  1  0.88141633  0.48010867  0.93085767  1
  O  O80  1  0.59869233  0.11858367  0.93085767  1
  O  O81  1  0.81344200  0.26535900  0.73580900  1
  O  O82  1  0.45191700  0.18655800  0.73580900  1
  O  O83  1  0.73464100  0.54808300  0.73580900  1
  O  O84  1  0.19163100  0.17571000  0.90902700  1
  O  O85  1  0.98407900  0.80836900  0.90902700  1
  O  O86  1  0.82429000  0.01592100  0.90902700  1
  O  O87  1  0.14170233  0.49095667  0.75763967  1
  O  O88  1  0.81561667  0.79883133  0.80724533  1
  O  O89  1  0.20116867  0.01678533  0.80724533  1
  O  O90  1  0.98321467  0.18438333  0.80724533  1
  O  O91  1  0.51771667  0.86783533  0.85942133  1
  O  O92  1  0.13216467  0.64988133  0.85942133  1
  O  O93  1  0.35011867  0.48228333  0.85942133  1
  O  O94  1  0.78278033  0.85219267  0.69827867  1
  O  O95  1  0.14780733  0.93058767  0.69827867  1
  O  O96  1  0.06941233  0.21721967  0.69827867  1
  O  O97  1  0.55055300  0.81447400  0.96838800  1
  O  O98  1  0.18552600  0.73607900  0.96838800  1
  O  O99  1  0.26392100  0.44944700  0.96838800  1
  O  O100  1  0.50904333  0.65074567  0.75763967  1
  O  O101  1  0.34925433  0.85829767  0.75763967  1
