# generated using pymatgen
data_CaPtO3
_symmetry_space_group_name_H-M   'P 1'
_cell_length_a   3.19010200
_cell_length_b   10.00257000
_cell_length_c   7.44393600
_cell_angle_alpha   90.00000000
_cell_angle_beta   90.00000000
_cell_angle_gamma   90.00000000
_symmetry_Int_Tables_number   1
_chemical_formula_structural   CaPtO3
_chemical_formula_sum   'Ca4 Pt4 O12'
_cell_volume   237.53018079
_cell_formula_units_Z   4
loop_
 _symmetry_equiv_pos_site_id
 _symmetry_equiv_pos_as_xyz
  1  'x, y, z'
loop_
 _atom_site_type_symbol
 _atom_site_label
 _atom_site_symmetry_multiplicity
 _atom_site_fract_x
 _atom_site_fract_y
 _atom_site_fract_z
 _atom_site_occupancy
  Ca  Ca0  1  0.00000000  0.25096700  0.25000000  1
  Ca  Ca1  1  0.50000000  0.24903300  0.75000000  1
  Ca  Ca2  1  0.50000000  0.75096700  0.25000000  1
  Ca  Ca3  1  0.00000000  0.74903300  0.75000000  1
  Pt  Pt4  1  0.00000000  0.00000000  0.50000000  1
  Pt  Pt5  1  0.00000000  0.00000000  0.00000000  1
  Pt  Pt6  1  0.50000000  0.50000000  0.50000000  1
  Pt  Pt7  1  0.50000000  0.50000000  0.00000000  1
  O  O8  1  0.50000000  0.12822500  0.04633400  1
  O  O9  1  0.00000000  0.37177500  0.95366600  1
  O  O10  1  0.00000000  0.37177500  0.54633400  1
  O  O11  1  0.50000000  0.12822500  0.45366600  1
  O  O12  1  0.50000000  0.41587600  0.25000000  1
  O  O13  1  0.00000000  0.08412400  0.75000000  1
  O  O14  1  0.00000000  0.62822500  0.04633400  1
  O  O15  1  0.50000000  0.87177500  0.95366600  1
  O  O16  1  0.50000000  0.87177500  0.54633400  1
  O  O17  1  0.00000000  0.62822500  0.45366600  1
  O  O18  1  0.00000000  0.91587600  0.25000000  1
  O  O19  1  0.50000000  0.58412400  0.75000000  1
