# generated using pymatgen
data_K2NaTiOF5
_symmetry_space_group_name_H-M   'P 1'
_cell_length_a   5.97906400
_cell_length_b   5.97906400
_cell_length_c   8.50602000
_cell_angle_alpha   90.00000000
_cell_angle_beta   90.00000000
_cell_angle_gamma   90.00000000
_symmetry_Int_Tables_number   1
_chemical_formula_structural   K2NaTiOF5
_chemical_formula_sum   'K4 Na2 Ti2 O2 F10'
_cell_volume   304.08346391
_cell_formula_units_Z   2
loop_
 _symmetry_equiv_pos_site_id
 _symmetry_equiv_pos_as_xyz
  1  'x, y, z'
loop_
 _atom_site_type_symbol
 _atom_site_label
 _atom_site_symmetry_multiplicity
 _atom_site_fract_x
 _atom_site_fract_y
 _atom_site_fract_z
 _atom_site_occupancy
  K  K0  1  0.00000000  0.50000000  0.25273700  1
  K  K1  1  0.50000000  0.00000000  0.25273700  1
  K  K2  1  0.50000000  0.00000000  0.75273700  1
  K  K3  1  0.00000000  0.50000000  0.75273700  1
  Na  Na4  1  0.00000000  0.00000000  0.49999000  1
  Na  Na5  1  0.50000000  0.50000000  0.99999000  1
  Ti  Ti6  1  0.00000000  0.00000000  0.02019700  1
  Ti  Ti7  1  0.50000000  0.50000000  0.52019700  1
  O  O8  1  0.00000000  0.00000000  0.22189100  1
  O  O9  1  0.50000000  0.50000000  0.72189100  1
  F  F10  1  0.72999350  0.72999350  0.49576150  1
  F  F11  1  0.72999350  0.27000650  0.49576150  1
  F  F12  1  0.27000650  0.72999350  0.49576150  1
  F  F13  1  0.27000650  0.27000650  0.49576150  1
  F  F14  1  0.50000000  0.50000000  0.26940200  1
  F  F15  1  0.22999350  0.22999350  0.99576150  1
  F  F16  1  0.22999350  0.77000650  0.99576150  1
  F  F17  1  0.77000650  0.22999350  0.99576150  1
  F  F18  1  0.77000650  0.77000650  0.99576150  1
  F  F19  1  0.00000000  0.00000000  0.76940200  1
