# generated using pymatgen
data_BaPdS2
_symmetry_space_group_name_H-M   'P 1'
_cell_length_a   6.86279600
_cell_length_b   10.77842000
_cell_length_c   5.73698400
_cell_angle_alpha   90.00000000
_cell_angle_beta   90.00000000
_cell_angle_gamma   90.00000000
_symmetry_Int_Tables_number   1
_chemical_formula_structural   BaPdS2
_chemical_formula_sum   'Ba4 Pd4 S8'
_cell_volume   424.36526677
_cell_formula_units_Z   4
loop_
 _symmetry_equiv_pos_site_id
 _symmetry_equiv_pos_as_xyz
  1  'x, y, z'
loop_
 _atom_site_type_symbol
 _atom_site_label
 _atom_site_symmetry_multiplicity
 _atom_site_fract_x
 _atom_site_fract_y
 _atom_site_fract_z
 _atom_site_occupancy
  Ba  Ba0  1  0.50000000  0.84857800  0.75000000  1
  Ba  Ba1  1  0.50000000  0.15142200  0.25000000  1
  Ba  Ba2  1  0.00000000  0.34857800  0.75000000  1
  Ba  Ba3  1  0.00000000  0.65142200  0.25000000  1
  Pd  Pd4  1  0.00000000  0.00000000  0.50000000  1
  Pd  Pd5  1  0.00000000  0.00000000  0.00000000  1
  Pd  Pd6  1  0.50000000  0.50000000  0.50000000  1
  Pd  Pd7  1  0.50000000  0.50000000  0.00000000  1
  S  S8  1  0.23560200  0.09391800  0.75000000  1
  S  S9  1  0.76439800  0.90608200  0.25000000  1
  S  S10  1  0.76439800  0.09391800  0.75000000  1
  S  S11  1  0.23560200  0.90608200  0.25000000  1
  S  S12  1  0.73560200  0.59391800  0.75000000  1
  S  S13  1  0.26439800  0.40608200  0.25000000  1
  S  S14  1  0.26439800  0.59391800  0.75000000  1
  S  S15  1  0.73560200  0.40608200  0.25000000  1
