# generated using pymatgen
data_Li2ZrO3
_symmetry_space_group_name_H-M   'P 1'
_cell_length_a   5.45117800
_cell_length_b   9.14518600
_cell_length_c   5.46143587
_cell_angle_alpha   90.00000000
_cell_angle_beta   112.12883457
_cell_angle_gamma   90.00000000
_symmetry_Int_Tables_number   1
_chemical_formula_structural   Li2ZrO3
_chemical_formula_sum   'Li8 Zr4 O12'
_cell_volume   252.20853280
_cell_formula_units_Z   4
loop_
 _symmetry_equiv_pos_site_id
 _symmetry_equiv_pos_as_xyz
  1  'x, y, z'
loop_
 _atom_site_type_symbol
 _atom_site_label
 _atom_site_symmetry_multiplicity
 _atom_site_fract_x
 _atom_site_fract_y
 _atom_site_fract_z
 _atom_site_occupancy
  Li  Li0  1  0.50000000  0.75827200  0.25000000  1
  Li  Li1  1  0.50000000  0.24172800  0.75000000  1
  Li  Li2  1  0.50000000  0.07594800  0.25000000  1
  Li  Li3  1  0.50000000  0.92405200  0.75000000  1
  Li  Li4  1  0.00000000  0.25827200  0.25000000  1
  Li  Li5  1  0.00000000  0.74172800  0.75000000  1
  Li  Li6  1  0.00000000  0.57594800  0.25000000  1
  Li  Li7  1  0.00000000  0.42405200  0.75000000  1
  Zr  Zr8  1  0.50000000  0.40905300  0.25000000  1
  Zr  Zr9  1  0.50000000  0.59094700  0.75000000  1
  Zr  Zr10  1  0.00000000  0.90905300  0.25000000  1
  Zr  Zr11  1  0.00000000  0.09094700  0.75000000  1
  O  O12  1  0.75000000  0.75000000  0.00000000  1
  O  O13  1  0.76951050  0.07586450  0.98721500  1
  O  O14  1  0.76951050  0.92413550  0.48721500  1
  O  O15  1  0.23048950  0.92413550  0.01278500  1
  O  O16  1  0.23048950  0.07586450  0.51278500  1
  O  O17  1  0.75000000  0.25000000  0.50000000  1
  O  O18  1  0.25000000  0.25000000  0.00000000  1
  O  O19  1  0.26951050  0.57586450  0.98721500  1
  O  O20  1  0.26951050  0.42413550  0.48721500  1
  O  O21  1  0.73048950  0.42413550  0.01278500  1
  O  O22  1  0.73048950  0.57586450  0.51278500  1
  O  O23  1  0.25000000  0.75000000  0.50000000  1
