# generated using pymatgen
data_MgGeO3
_symmetry_space_group_name_H-M   'P 1'
_cell_length_a   5.42014600
_cell_length_b   9.07498700
_cell_length_c   19.07442400
_cell_angle_alpha   90.00000000
_cell_angle_beta   90.00000000
_cell_angle_gamma   90.00000000
_symmetry_Int_Tables_number   1
_chemical_formula_structural   MgGeO3
_chemical_formula_sum   'Mg16 Ge16 O48'
_cell_volume   938.22808471
_cell_formula_units_Z   16
loop_
 _symmetry_equiv_pos_site_id
 _symmetry_equiv_pos_as_xyz
  1  'x, y, z'
loop_
 _atom_site_type_symbol
 _atom_site_label
 _atom_site_symmetry_multiplicity
 _atom_site_fract_x
 _atom_site_fract_y
 _atom_site_fract_z
 _atom_site_occupancy
  Mg  Mg0  1  0.64736300  0.65574000  0.87653500  1
  Mg  Mg1  1  0.14736300  0.34426000  0.62346500  1
  Mg  Mg2  1  0.85263700  0.15574000  0.12346500  1
  Mg  Mg3  1  0.35263700  0.84426000  0.37653500  1
  Mg  Mg4  1  0.35263700  0.34426000  0.12346500  1
  Mg  Mg5  1  0.85263700  0.65574000  0.37653500  1
  Mg  Mg6  1  0.14736300  0.84426000  0.87653500  1
  Mg  Mg7  1  0.64736300  0.15574000  0.62346500  1
  Mg  Mg8  1  0.65523700  0.51162800  0.62228800  1
  Mg  Mg9  1  0.15523700  0.48837200  0.87771200  1
  Mg  Mg10  1  0.84476300  0.01162800  0.37771200  1
  Mg  Mg11  1  0.34476300  0.98837200  0.12228800  1
  Mg  Mg12  1  0.34476300  0.48837200  0.37771200  1
  Mg  Mg13  1  0.84476300  0.51162800  0.12228800  1
  Mg  Mg14  1  0.15523700  0.98837200  0.62228800  1
  Mg  Mg15  1  0.65523700  0.01162800  0.87771200  1
  Ge  Ge16  1  0.95685200  0.65490900  0.72926300  1
  Ge  Ge17  1  0.45685200  0.34509100  0.77073700  1
  Ge  Ge18  1  0.54314800  0.15490900  0.27073700  1
  Ge  Ge19  1  0.04314800  0.84509100  0.22926300  1
  Ge  Ge20  1  0.04314800  0.34509100  0.27073700  1
  Ge  Ge21  1  0.54314800  0.65490900  0.22926300  1
  Ge  Ge22  1  0.45685200  0.84509100  0.72926300  1
  Ge  Ge23  1  0.95685200  0.15490900  0.77073700  1
  Ge  Ge24  1  0.19482800  0.66011300  0.52736300  1
  Ge  Ge25  1  0.69482800  0.33988700  0.97263700  1
  Ge  Ge26  1  0.30517200  0.16011300  0.47263700  1
  Ge  Ge27  1  0.80517200  0.83988700  0.02736300  1
  Ge  Ge28  1  0.80517200  0.33988700  0.47263700  1
  Ge  Ge29  1  0.30517200  0.66011300  0.02736300  1
  Ge  Ge30  1  0.69482800  0.83988700  0.52736300  1
  Ge  Ge31  1  0.19482800  0.16011300  0.97263700  1
  O  O32  1  0.37253100  0.32180500  0.94485600  1
  O  O33  1  0.87253100  0.67819500  0.55514400  1
  O  O34  1  0.12746900  0.82180500  0.05514400  1
  O  O35  1  0.62746900  0.17819500  0.44485600  1
  O  O36  1  0.62746900  0.67819500  0.05514400  1
  O  O37  1  0.12746900  0.32180500  0.44485600  1
  O  O38  1  0.87253100  0.17819500  0.94485600  1
  O  O39  1  0.37253100  0.82180500  0.55514400  1
  O  O40  1  0.32841500  0.01273700  0.92999400  1
  O  O41  1  0.82841500  0.98726300  0.57000600  1
  O  O42  1  0.17158500  0.51273700  0.07000600  1
  O  O43  1  0.67158500  0.48726300  0.42999400  1
  O  O44  1  0.67158500  0.98726300  0.07000600  1
  O  O45  1  0.17158500  0.01273700  0.42999400  1
  O  O46  1  0.82841500  0.48726300  0.92999400  1
  O  O47  1  0.32841500  0.51273700  0.57000600  1
  O  O48  1  0.18676900  0.16192100  0.06510900  1
  O  O49  1  0.68676900  0.83807900  0.43489100  1
  O  O50  1  0.31323100  0.66192100  0.93489100  1
  O  O51  1  0.96180000  0.98668400  0.81327700  1
  O  O52  1  0.81323100  0.33807900  0.56510900  1
  O  O53  1  0.31323100  0.16192100  0.56510900  1
  O  O54  1  0.68676900  0.33807900  0.06510900  1
  O  O55  1  0.18676900  0.66192100  0.43489100  1
  O  O56  1  0.15863000  0.29171700  0.80671100  1
  O  O57  1  0.65863000  0.70828300  0.69328900  1
  O  O58  1  0.34137000  0.79171700  0.19328900  1
  O  O59  1  0.84137000  0.20828300  0.30671100  1
  O  O60  1  0.84137000  0.70828300  0.19328900  1
  O  O61  1  0.34137000  0.29171700  0.30671100  1
  O  O62  1  0.65863000  0.20828300  0.80671100  1
  O  O63  1  0.15863000  0.79171700  0.69328900  1
  O  O64  1  0.97690100  0.65969300  0.82097100  1
  O  O65  1  0.47690100  0.34030700  0.67902900  1
  O  O66  1  0.52309900  0.15969300  0.17902900  1
  O  O67  1  0.02309900  0.84030700  0.32097100  1
  O  O68  1  0.02309900  0.34030700  0.17902900  1
  O  O69  1  0.52309900  0.65969300  0.32097100  1
  O  O70  1  0.47690100  0.84030700  0.82097100  1
  O  O71  1  0.97690100  0.15969300  0.67902900  1
  O  O72  1  0.96180000  0.48668400  0.68672300  1
  O  O73  1  0.46180000  0.51331600  0.81327700  1
  O  O74  1  0.53820000  0.98668400  0.31327700  1
  O  O75  1  0.03820000  0.01331600  0.18672300  1
  O  O76  1  0.03820000  0.51331600  0.31327700  1
  O  O77  1  0.53820000  0.48668400  0.18672300  1
  O  O78  1  0.46180000  0.01331600  0.68672300  1
  O  O79  1  0.81323100  0.83807900  0.93489100  1
