# generated using pymatgen
data_NaHf2(PO4)3
_symmetry_space_group_name_H-M   'P 1'
_cell_length_a   8.85802225
_cell_length_b   8.85802225
_cell_length_c   22.88026751
_cell_angle_alpha   90.00000000
_cell_angle_beta   90.00000000
_cell_angle_gamma   120.00000000
_symmetry_Int_Tables_number   1
_chemical_formula_structural   NaHf2(PO4)3
_chemical_formula_sum   'Na6 Hf12 P18 O72'
_cell_volume   1554.76681722
_cell_formula_units_Z   6
loop_
 _symmetry_equiv_pos_site_id
 _symmetry_equiv_pos_as_xyz
  1  'x, y, z'
loop_
 _atom_site_type_symbol
 _atom_site_label
 _atom_site_symmetry_multiplicity
 _atom_site_fract_x
 _atom_site_fract_y
 _atom_site_fract_z
 _atom_site_occupancy
  Na  Na0  1  0.00000000  0.00000000  0.00000000  1
  Na  Na1  1  0.33333333  0.66666667  0.16666667  1
  Na  Na2  1  0.66666667  0.33333333  0.33333333  1
  Na  Na3  1  0.00000000  0.00000000  0.50000000  1
  Na  Na4  1  0.33333333  0.66666667  0.66666667  1
  Na  Na5  1  0.66666667  0.33333333  0.83333333  1
  Hf  Hf6  1  0.66666667  0.33333333  0.18775433  1
  Hf  Hf7  1  0.33333333  0.66666667  0.31224567  1
  Hf  Hf8  1  0.33333333  0.66666667  0.02108767  1
  Hf  Hf9  1  0.00000000  0.00000000  0.14557900  1
  Hf  Hf10  1  0.33333333  0.66666667  0.52108767  1
  Hf  Hf11  1  0.00000000  0.00000000  0.64557900  1
  Hf  Hf12  1  0.00000000  0.00000000  0.35442100  1
  Hf  Hf13  1  0.66666667  0.33333333  0.47891233  1
  Hf  Hf14  1  0.00000000  0.00000000  0.85442100  1
  Hf  Hf15  1  0.66666667  0.33333333  0.97891233  1
  Hf  Hf16  1  0.66666667  0.33333333  0.68775433  1
  Hf  Hf17  1  0.33333333  0.66666667  0.81224567  1
  P  P18  1  0.00000000  0.29056000  0.25000000  1
  P  P19  1  0.70944000  0.70944000  0.25000000  1
  P  P20  1  0.29056000  0.00000000  0.25000000  1
  P  P21  1  0.37610667  0.33333333  0.08333333  1
  P  P22  1  0.95722667  0.62389333  0.08333333  1
  P  P23  1  0.66666667  0.04277333  0.08333333  1
  P  P24  1  0.66666667  0.62389333  0.58333333  1
  P  P25  1  0.37610667  0.04277333  0.58333333  1
  P  P26  1  0.95722667  0.33333333  0.58333333  1
  P  P27  1  0.04277333  0.66666667  0.41666667  1
  P  P28  1  0.62389333  0.95722667  0.41666667  1
  P  P29  1  0.33333333  0.37610667  0.41666667  1
  P  P30  1  0.33333333  0.95722667  0.91666667  1
  P  P31  1  0.04277333  0.37610667  0.91666667  1
  P  P32  1  0.62389333  0.66666667  0.91666667  1
  P  P33  1  0.70944000  0.00000000  0.75000000  1
  P  P34  1  0.29056000  0.29056000  0.75000000  1
  P  P35  1  0.00000000  0.70944000  0.75000000  1
  O  O36  1  0.14022533  0.64296167  0.07913467  1
  O  O37  1  0.50273633  0.85977467  0.07913467  1
  O  O38  1  0.35703833  0.49726367  0.07913467  1
  O  O39  1  0.98179533  0.18237867  0.30504867  1
  O  O40  1  0.81762133  0.79941667  0.30504867  1
  O  O41  1  0.20058333  0.01820467  0.30504867  1
  O  O42  1  0.01820467  0.20058333  0.19495133  1
  O  O43  1  0.79941667  0.81762133  0.19495133  1
  O  O44  1  0.18237867  0.98179533  0.19495133  1
  O  O45  1  0.83059700  0.02370500  0.08753200  1
  O  O46  1  0.19310800  0.16940300  0.08753200  1
  O  O47  1  0.97629500  0.80689200  0.08753200  1
  O  O48  1  0.69037167  0.52644133  0.24580133  1
  O  O49  1  0.47355867  0.16393033  0.24580133  1
  O  O50  1  0.83606967  0.30962833  0.24580133  1
  O  O51  1  0.48428800  0.35153800  0.13838200  1
  O  O52  1  0.86725000  0.51571200  0.13838200  1
  O  O53  1  0.64846200  0.13275000  0.13838200  1
  O  O54  1  0.46608333  0.31512867  0.02828467  1
  O  O55  1  0.84904533  0.53391667  0.02828467  1
  O  O56  1  0.68487133  0.15095467  0.02828467  1
  O  O57  1  0.30962833  0.83606967  0.25419867  1
  O  O58  1  0.16393033  0.47355867  0.25419867  1
  O  O59  1  0.52644133  0.69037167  0.25419867  1
  O  O60  1  0.80689200  0.97629500  0.41246800  1
  O  O61  1  0.16940300  0.19310800  0.41246800  1
  O  O62  1  0.02370500  0.83059700  0.41246800  1
  O  O63  1  0.64846200  0.51571200  0.63838200  1
  O  O64  1  0.48428800  0.13275000  0.63838200  1
  O  O65  1  0.86725000  0.35153800  0.63838200  1
  O  O66  1  0.68487133  0.53391667  0.52828467  1
  O  O67  1  0.46608333  0.15095467  0.52828467  1
  O  O68  1  0.84904533  0.31512867  0.52828467  1
  O  O69  1  0.49726367  0.35703833  0.42086533  1
  O  O70  1  0.85977467  0.50273633  0.42086533  1
  O  O71  1  0.64296167  0.14022533  0.42086533  1
  O  O72  1  0.35703833  0.85977467  0.57913467  1
  O  O73  1  0.14022533  0.49726367  0.57913467  1
  O  O74  1  0.50273633  0.64296167  0.57913467  1
  O  O75  1  0.15095467  0.68487133  0.47171533  1
  O  O76  1  0.53391667  0.84904533  0.47171533  1
  O  O77  1  0.31512867  0.46608333  0.47171533  1
  O  O78  1  0.13275000  0.64846200  0.36161800  1
  O  O79  1  0.51571200  0.86725000  0.36161800  1
  O  O80  1  0.35153800  0.48428800  0.36161800  1
  O  O81  1  0.97629500  0.16940300  0.58753200  1
  O  O82  1  0.83059700  0.80689200  0.58753200  1
  O  O83  1  0.19310800  0.02370500  0.58753200  1
  O  O84  1  0.47355867  0.30962833  0.74580133  1
  O  O85  1  0.83606967  0.52644133  0.74580133  1
  O  O86  1  0.69037167  0.16393033  0.74580133  1
  O  O87  1  0.31512867  0.84904533  0.97171533  1
  O  O88  1  0.15095467  0.46608333  0.97171533  1
  O  O89  1  0.53391667  0.68487133  0.97171533  1
  O  O90  1  0.35153800  0.86725000  0.86161800  1
  O  O91  1  0.13275000  0.48428800  0.86161800  1
  O  O92  1  0.51571200  0.64846200  0.86161800  1
  O  O93  1  0.16393033  0.69037167  0.75419867  1
  O  O94  1  0.52644133  0.83606967  0.75419867  1
  O  O95  1  0.30962833  0.47355867  0.75419867  1
  O  O96  1  0.02370500  0.19310800  0.91246800  1
  O  O97  1  0.80689200  0.83059700  0.91246800  1
  O  O98  1  0.16940300  0.97629500  0.91246800  1
  O  O99  1  0.81762133  0.01820467  0.80504867  1
  O  O100  1  0.20058333  0.18237867  0.80504867  1
  O  O101  1  0.98179533  0.79941667  0.80504867  1
  O  O102  1  0.79941667  0.98179533  0.69495133  1
  O  O103  1  0.18237867  0.20058333  0.69495133  1
  O  O104  1  0.01820467  0.81762133  0.69495133  1
  O  O105  1  0.64296167  0.50273633  0.92086533  1
  O  O106  1  0.49726367  0.14022533  0.92086533  1
  O  O107  1  0.85977467  0.35703833  0.92086533  1
