# generated using pymatgen
data_ZnSiP2
_symmetry_space_group_name_H-M   'P 1'
_cell_length_a   5.42182800
_cell_length_b   5.42182800
_cell_length_c   10.53728800
_cell_angle_alpha   90.00000000
_cell_angle_beta   90.00000000
_cell_angle_gamma   90.00000000
_symmetry_Int_Tables_number   1
_chemical_formula_structural   ZnSiP2
_chemical_formula_sum   'Zn4 Si4 P8'
_cell_volume   309.75642426
_cell_formula_units_Z   4
loop_
 _symmetry_equiv_pos_site_id
 _symmetry_equiv_pos_as_xyz
  1  'x, y, z'
loop_
 _atom_site_type_symbol
 _atom_site_label
 _atom_site_symmetry_multiplicity
 _atom_site_fract_x
 _atom_site_fract_y
 _atom_site_fract_z
 _atom_site_occupancy
  Zn  Zn0  1  0.00000000  0.00000000  0.00000000  1
  Zn  Zn1  1  0.00000000  0.50000000  0.25000000  1
  Zn  Zn2  1  0.50000000  0.50000000  0.50000000  1
  Zn  Zn3  1  0.50000000  0.00000000  0.75000000  1
  Si  Si4  1  0.50000000  0.50000000  0.00000000  1
  Si  Si5  1  0.50000000  0.00000000  0.25000000  1
  Si  Si6  1  0.00000000  0.00000000  0.50000000  1
  Si  Si7  1  0.00000000  0.50000000  0.75000000  1
  P  P8  1  0.26807500  0.25000000  0.12500000  1
  P  P9  1  0.73192500  0.75000000  0.12500000  1
  P  P10  1  0.75000000  0.23192500  0.37500000  1
  P  P11  1  0.25000000  0.76807500  0.37500000  1
  P  P12  1  0.76807500  0.75000000  0.62500000  1
  P  P13  1  0.23192500  0.25000000  0.62500000  1
  P  P14  1  0.25000000  0.73192500  0.87500000  1
  P  P15  1  0.75000000  0.26807500  0.87500000  1
