# generated using pymatgen
data_TbPO4
_symmetry_space_group_name_H-M   'P 1'
_cell_length_a   6.99429400
_cell_length_b   6.99429400
_cell_length_c   6.08338600
_cell_angle_alpha   90.00000000
_cell_angle_beta   90.00000000
_cell_angle_gamma   90.00000000
_symmetry_Int_Tables_number   1
_chemical_formula_structural   TbPO4
_chemical_formula_sum   'Tb4 P4 O16'
_cell_volume   297.60014686
_cell_formula_units_Z   4
loop_
 _symmetry_equiv_pos_site_id
 _symmetry_equiv_pos_as_xyz
  1  'x, y, z'
loop_
 _atom_site_type_symbol
 _atom_site_label
 _atom_site_symmetry_multiplicity
 _atom_site_fract_x
 _atom_site_fract_y
 _atom_site_fract_z
 _atom_site_occupancy
  Tb  Tb0  1  0.50000000  0.00000000  0.25000000  1
  Tb  Tb1  1  0.50000000  0.50000000  0.50000000  1
  Tb  Tb2  1  0.00000000  0.50000000  0.75000000  1
  Tb  Tb3  1  0.00000000  0.00000000  0.00000000  1
  P  P4  1  0.00000000  0.00000000  0.50000000  1
  P  P5  1  0.50000000  0.00000000  0.75000000  1
  P  P6  1  0.50000000  0.50000000  0.00000000  1
  P  P7  1  0.00000000  0.50000000  0.25000000  1
  O  O8  1  0.00000000  0.32617000  0.09064500  1
  O  O9  1  0.17383000  0.00000000  0.34064500  1
  O  O10  1  0.82617000  0.00000000  0.34064500  1
  O  O11  1  0.50000000  0.17383000  0.59064500  1
  O  O12  1  0.82617000  0.50000000  0.40935500  1
  O  O13  1  0.00000000  0.17383000  0.65935500  1
  O  O14  1  0.00000000  0.82617000  0.65935500  1
  O  O15  1  0.67383000  0.00000000  0.90935500  1
  O  O16  1  0.50000000  0.82617000  0.59064500  1
  O  O17  1  0.67383000  0.50000000  0.84064500  1
  O  O18  1  0.32617000  0.50000000  0.84064500  1
  O  O19  1  0.00000000  0.67383000  0.09064500  1
  O  O20  1  0.32617000  0.00000000  0.90935500  1
  O  O21  1  0.50000000  0.67383000  0.15935500  1
  O  O22  1  0.50000000  0.32617000  0.15935500  1
  O  O23  1  0.17383000  0.50000000  0.40935500  1
