# generated using pymatgen
data_Al2ZnS4
_symmetry_space_group_name_H-M   'P 1'
_cell_length_a   10.08823800
_cell_length_b   10.08823800
_cell_length_c   10.08823800
_cell_angle_alpha   90.00000000
_cell_angle_beta   90.00000000
_cell_angle_gamma   90.00000000
_symmetry_Int_Tables_number   1
_chemical_formula_structural   Al2ZnS4
_chemical_formula_sum   'Al16 Zn8 S32'
_cell_volume   1026.70566536
_cell_formula_units_Z   8
loop_
 _symmetry_equiv_pos_site_id
 _symmetry_equiv_pos_as_xyz
  1  'x, y, z'
loop_
 _atom_site_type_symbol
 _atom_site_label
 _atom_site_symmetry_multiplicity
 _atom_site_fract_x
 _atom_site_fract_y
 _atom_site_fract_z
 _atom_site_occupancy
  Al  Al0  1  0.37500000  0.87500000  0.12500000  1
  Al  Al1  1  0.37500000  0.62500000  0.37500000  1
  Al  Al2  1  0.12500000  0.62500000  0.12500000  1
  Al  Al3  1  0.12500000  0.87500000  0.37500000  1
  Al  Al4  1  0.37500000  0.37500000  0.62500000  1
  Al  Al5  1  0.37500000  0.12500000  0.87500000  1
  Al  Al6  1  0.12500000  0.12500000  0.62500000  1
  Al  Al7  1  0.12500000  0.37500000  0.87500000  1
  Al  Al8  1  0.87500000  0.87500000  0.62500000  1
  Al  Al9  1  0.87500000  0.62500000  0.87500000  1
  Al  Al10  1  0.62500000  0.62500000  0.62500000  1
  Al  Al11  1  0.62500000  0.87500000  0.87500000  1
  Al  Al12  1  0.87500000  0.37500000  0.12500000  1
  Al  Al13  1  0.87500000  0.12500000  0.37500000  1
  Al  Al14  1  0.62500000  0.12500000  0.12500000  1
  Al  Al15  1  0.62500000  0.37500000  0.37500000  1
  Zn  Zn16  1  0.25000000  0.25000000  0.25000000  1
  Zn  Zn17  1  0.50000000  0.00000000  0.50000000  1
  Zn  Zn18  1  0.25000000  0.75000000  0.75000000  1
  Zn  Zn19  1  0.50000000  0.50000000  0.00000000  1
  Zn  Zn20  1  0.75000000  0.25000000  0.75000000  1
  Zn  Zn21  1  0.00000000  0.00000000  0.00000000  1
  Zn  Zn22  1  0.75000000  0.75000000  0.25000000  1
  Zn  Zn23  1  0.00000000  0.50000000  0.50000000  1
  S  S24  1  0.38475533  0.11524467  0.11524467  1
  S  S25  1  0.36524467  0.86524467  0.36524467  1
  S  S26  1  0.38475533  0.38475533  0.38475533  1
  S  S27  1  0.86524467  0.13475533  0.13475533  1
  S  S28  1  0.13475533  0.86524467  0.13475533  1
  S  S29  1  0.63475533  0.13475533  0.36524467  1
  S  S30  1  0.11524467  0.38475533  0.11524467  1
  S  S31  1  0.11524467  0.11524467  0.38475533  1
  S  S32  1  0.38475533  0.61524467  0.61524467  1
  S  S33  1  0.36524467  0.36524467  0.86524467  1
  S  S34  1  0.38475533  0.88475533  0.88475533  1
  S  S35  1  0.86524467  0.63475533  0.63475533  1
  S  S36  1  0.13475533  0.36524467  0.63475533  1
  S  S37  1  0.63475533  0.63475533  0.86524467  1
  S  S38  1  0.11524467  0.88475533  0.61524467  1
  S  S39  1  0.11524467  0.61524467  0.88475533  1
  S  S40  1  0.88475533  0.11524467  0.61524467  1
  S  S41  1  0.86524467  0.86524467  0.86524467  1
  S  S42  1  0.88475533  0.38475533  0.88475533  1
  S  S43  1  0.36524467  0.13475533  0.63475533  1
  S  S44  1  0.63475533  0.86524467  0.63475533  1
  S  S45  1  0.13475533  0.13475533  0.86524467  1
  S  S46  1  0.61524467  0.38475533  0.61524467  1
  S  S47  1  0.61524467  0.11524467  0.88475533  1
  S  S48  1  0.88475533  0.61524467  0.11524467  1
  S  S49  1  0.86524467  0.36524467  0.36524467  1
  S  S50  1  0.88475533  0.88475533  0.38475533  1
  S  S51  1  0.36524467  0.63475533  0.13475533  1
  S  S52  1  0.63475533  0.36524467  0.13475533  1
  S  S53  1  0.13475533  0.63475533  0.36524467  1
  S  S54  1  0.61524467  0.88475533  0.11524467  1
  S  S55  1  0.61524467  0.61524467  0.38475533  1
