# generated using pymatgen
data_TiAl2O5
_symmetry_space_group_name_H-M   'P 1'
_cell_length_a   3.61944400
_cell_length_b   9.45519000
_cell_length_c   9.77663700
_cell_angle_alpha   90.00000000
_cell_angle_beta   90.00000000
_cell_angle_gamma   90.00000000
_symmetry_Int_Tables_number   1
_chemical_formula_structural   TiAl2O5
_chemical_formula_sum   'Ti4 Al8 O20'
_cell_volume   334.58126002
_cell_formula_units_Z   4
loop_
 _symmetry_equiv_pos_site_id
 _symmetry_equiv_pos_as_xyz
  1  'x, y, z'
loop_
 _atom_site_type_symbol
 _atom_site_label
 _atom_site_symmetry_multiplicity
 _atom_site_fract_x
 _atom_site_fract_y
 _atom_site_fract_z
 _atom_site_occupancy
  Ti  Ti0  1  0.00000000  0.18274500  0.25000000  1
  Ti  Ti1  1  0.50000000  0.31725500  0.75000000  1
  Ti  Ti2  1  0.50000000  0.68274500  0.25000000  1
  Ti  Ti3  1  0.00000000  0.81725500  0.75000000  1
  Al  Al4  1  0.00000000  0.14076400  0.94436800  1
  Al  Al5  1  0.50000000  0.35923600  0.05563200  1
  Al  Al6  1  0.00000000  0.14076400  0.55563200  1
  Al  Al7  1  0.50000000  0.35923600  0.44436800  1
  Al  Al8  1  0.50000000  0.64076400  0.94436800  1
  Al  Al9  1  0.00000000  0.85923600  0.05563200  1
  Al  Al10  1  0.50000000  0.64076400  0.55563200  1
  Al  Al11  1  0.00000000  0.85923600  0.44436800  1
  O  O12  1  0.00000000  0.31191900  0.06651600  1
  O  O13  1  0.50000000  0.18808100  0.93348400  1
  O  O14  1  0.50000000  0.18808100  0.56651600  1
  O  O15  1  0.00000000  0.31191900  0.43348400  1
  O  O16  1  0.00000000  0.04398500  0.11698700  1
  O  O17  1  0.50000000  0.45601500  0.88301300  1
  O  O18  1  0.50000000  0.26344500  0.25000000  1
  O  O19  1  0.00000000  0.23655500  0.75000000  1
  O  O20  1  0.00000000  0.04398500  0.38301300  1
  O  O21  1  0.50000000  0.45601500  0.61698700  1
  O  O22  1  0.50000000  0.81191900  0.06651600  1
  O  O23  1  0.00000000  0.68808100  0.93348400  1
  O  O24  1  0.00000000  0.68808100  0.56651600  1
  O  O25  1  0.50000000  0.81191900  0.43348400  1
  O  O26  1  0.50000000  0.54398500  0.11698700  1
  O  O27  1  0.00000000  0.95601500  0.88301300  1
  O  O28  1  0.00000000  0.76344500  0.25000000  1
  O  O29  1  0.50000000  0.73655500  0.75000000  1
  O  O30  1  0.50000000  0.54398500  0.38301300  1
  O  O31  1  0.00000000  0.95601500  0.61698700  1
