# generated using pymatgen
data_K4Gd2C3O9F4
_symmetry_space_group_name_H-M   'P 1'
_cell_length_a   7.00350900
_cell_length_b   9.15609500
_cell_length_c   10.65804618
_cell_angle_alpha   90.00000000
_cell_angle_beta   100.87615930
_cell_angle_gamma   90.00000000
_symmetry_Int_Tables_number   1
_chemical_formula_structural   K4Gd2C3O9F4
_chemical_formula_sum   'K8 Gd4 C6 O18 F8'
_cell_volume   671.16850201
_cell_formula_units_Z   2
loop_
 _symmetry_equiv_pos_site_id
 _symmetry_equiv_pos_as_xyz
  1  'x, y, z'
loop_
 _atom_site_type_symbol
 _atom_site_label
 _atom_site_symmetry_multiplicity
 _atom_site_fract_x
 _atom_site_fract_y
 _atom_site_fract_z
 _atom_site_occupancy
  K  K0  1  0.99945100  0.00032300  0.25002400  1
  K  K1  1  0.00054900  0.50032300  0.74997600  1
  K  K2  1  0.88042500  0.68854300  0.43763300  1
  K  K3  1  0.86412800  0.18283600  0.93637200  1
  K  K4  1  0.50164700  0.62178600  0.75155100  1
  K  K5  1  0.49835300  0.12178600  0.24844900  1
  K  K6  1  0.13587200  0.68283600  0.06362800  1
  K  K7  1  0.11957500  0.18854300  0.56236700  1
  Gd  Gd8  1  0.64418100  0.50624600  0.10516300  1
  Gd  Gd9  1  0.64397100  0.99658700  0.60808800  1
  Gd  Gd10  1  0.35581900  0.00624600  0.89483700  1
  Gd  Gd11  1  0.35602900  0.49658700  0.39191200  1
  C  C12  1  0.01053100  0.85752200  0.74301400  1
  C  C13  1  0.98946900  0.35752200  0.25698600  1
  C  C14  1  0.64688000  0.82241500  0.07130800  1
  C  C15  1  0.35202700  0.82419300  0.43793900  1
  C  C16  1  0.64797300  0.32419300  0.56206100  1
  C  C17  1  0.35312000  0.32241500  0.92869200  1
  O  O18  1  0.99786300  0.99997400  0.74952300  1
  O  O19  1  0.87317500  0.78606400  0.67160600  1
  O  O20  1  0.00213700  0.49997400  0.25047700  1
  O  O21  1  0.83714000  0.29351300  0.19101300  1
  O  O22  1  0.79887200  0.75415000  0.13041900  1
  O  O23  1  0.48735400  0.75755100  0.51820100  1
  O  O24  1  0.64009900  0.96402000  0.06337500  1
  O  O25  1  0.77253900  0.24899500  0.64189200  1
  O  O26  1  0.34730500  0.96619700  0.44122700  1
  O  O27  1  0.49552600  0.74609900  0.01830100  1
  O  O28  1  0.50447400  0.24609900  0.98169900  1
  O  O29  1  0.65269500  0.46619700  0.55877300  1
  O  O30  1  0.35990100  0.46402000  0.93662500  1
  O  O31  1  0.51264600  0.25755100  0.48179900  1
  O  O32  1  0.16286000  0.79351300  0.80898700  1
  O  O33  1  0.22746100  0.74899500  0.35810800  1
  O  O34  1  0.12682500  0.28606400  0.32839400  1
  O  O35  1  0.20112800  0.25415000  0.86958100  1
  F  F36  1  0.80794000  0.49999000  0.94360800  1
  F  F37  1  0.80298600  0.99701800  0.44392300  1
  F  F38  1  0.59077400  0.89257000  0.79768500  1
  F  F39  1  0.57216900  0.61830700  0.28752600  1
  F  F40  1  0.40922600  0.39257000  0.20231500  1
  F  F41  1  0.42783100  0.11830700  0.71247400  1
  F  F42  1  0.19206000  0.99999000  0.05639200  1
  F  F43  1  0.19701400  0.49701800  0.55607700  1
