# generated using pymatgen
data_Cs2ZrTlOF5
_symmetry_space_group_name_H-M   'P 1'
_cell_length_a   6.85893200
_cell_length_b   6.85893200
_cell_length_c   9.58847200
_cell_angle_alpha   90.00000000
_cell_angle_beta   90.00000000
_cell_angle_gamma   90.00000000
_symmetry_Int_Tables_number   1
_chemical_formula_structural   Cs2ZrTlOF5
_chemical_formula_sum   'Cs4 Zr2 Tl2 O2 F10'
_cell_volume   451.08916837
_cell_formula_units_Z   2
loop_
 _symmetry_equiv_pos_site_id
 _symmetry_equiv_pos_as_xyz
  1  'x, y, z'
loop_
 _atom_site_type_symbol
 _atom_site_label
 _atom_site_symmetry_multiplicity
 _atom_site_fract_x
 _atom_site_fract_y
 _atom_site_fract_z
 _atom_site_occupancy
  Cs  Cs0  1  0.00000000  0.50000000  0.24834600  1
  Cs  Cs1  1  0.50000000  0.00000000  0.24834600  1
  Cs  Cs2  1  0.50000000  0.00000000  0.74834600  1
  Cs  Cs3  1  0.00000000  0.50000000  0.74834600  1
  Zr  Zr4  1  0.00000000  0.00000000  0.98099800  1
  Zr  Zr5  1  0.50000000  0.50000000  0.48099800  1
  Tl  Tl6  1  0.00000000  0.00000000  0.51306700  1
  Tl  Tl7  1  0.50000000  0.50000000  0.01306700  1
  O  O8  1  0.00000000  0.00000000  0.78117000  1
  O  O9  1  0.50000000  0.50000000  0.28117000  1
  F  F10  1  0.21485600  0.21485600  0.00461900  1
  F  F11  1  0.71485600  0.28514400  0.50461900  1
  F  F12  1  0.28514400  0.71485600  0.50461900  1
  F  F13  1  0.28514400  0.28514400  0.50461900  1
  F  F14  1  0.00000000  0.00000000  0.20959800  1
  F  F15  1  0.71485600  0.71485600  0.50461900  1
  F  F16  1  0.21485600  0.78514400  0.00461900  1
  F  F17  1  0.78514400  0.21485600  0.00461900  1
  F  F18  1  0.78514400  0.78514400  0.00461900  1
  F  F19  1  0.50000000  0.50000000  0.70959800  1
