# generated using pymatgen
data_Ba2La2Zn(WO6)2
_symmetry_space_group_name_H-M   'P 1'
_cell_length_a   5.68574996
_cell_length_b   5.68574996
_cell_length_c   27.37315749
_cell_angle_alpha   90.00000000
_cell_angle_beta   90.00000000
_cell_angle_gamma   120.00000000
_symmetry_Int_Tables_number   1
_chemical_formula_structural   Ba2La2Zn(WO6)2
_chemical_formula_sum   'Ba6 La6 Zn3 W6 O36'
_cell_volume   766.35684552
_cell_formula_units_Z   3
loop_
 _symmetry_equiv_pos_site_id
 _symmetry_equiv_pos_as_xyz
  1  'x, y, z'
loop_
 _atom_site_type_symbol
 _atom_site_label
 _atom_site_symmetry_multiplicity
 _atom_site_fract_x
 _atom_site_fract_y
 _atom_site_fract_z
 _atom_site_occupancy
  Ba  Ba0  1  0.00000000  0.00000000  0.29030900  1
  Ba  Ba1  1  0.66666667  0.33333333  0.04302433  1
  Ba  Ba2  1  0.66666667  0.33333333  0.62364233  1
  Ba  Ba3  1  0.33333333  0.66666667  0.37635767  1
  Ba  Ba4  1  0.33333333  0.66666667  0.95697567  1
  Ba  Ba5  1  0.00000000  0.00000000  0.70969100  1
  La  La6  1  0.00000000  0.00000000  0.13499600  1
  La  La7  1  0.66666667  0.33333333  0.19833733  1
  La  La8  1  0.66666667  0.33333333  0.46832933  1
  La  La9  1  0.33333333  0.66666667  0.53167067  1
  La  La10  1  0.33333333  0.66666667  0.80166267  1
  La  La11  1  0.00000000  0.00000000  0.86500400  1
  Zn  Zn12  1  0.00000000  0.00000000  0.00000000  1
  Zn  Zn13  1  0.66666667  0.33333333  0.33333333  1
  Zn  Zn14  1  0.33333333  0.66666667  0.66666667  1
  W  W15  1  0.33333333  0.66666667  0.08964767  1
  W  W16  1  0.33333333  0.66666667  0.24368567  1
  W  W17  1  0.00000000  0.00000000  0.42298100  1
  W  W18  1  0.00000000  0.00000000  0.57701900  1
  W  W19  1  0.66666667  0.33333333  0.75631433  1
  W  W20  1  0.66666667  0.33333333  0.91035233  1
  O  O21  1  0.66049533  0.83024767  0.04813767  1
  O  O22  1  0.16975233  0.33950467  0.04813767  1
  O  O23  1  0.16975233  0.83024767  0.04813767  1
  O  O24  1  0.50043067  0.49956933  0.12714533  1
  O  O25  1  0.99913867  0.49956933  0.12714533  1
  O  O26  1  0.50043067  0.00086133  0.12714533  1
  O  O27  1  0.16623600  0.33247200  0.20618800  1
  O  O28  1  0.66752800  0.83376400  0.20618800  1
  O  O29  1  0.16623600  0.83376400  0.20618800  1
  O  O30  1  0.49691433  0.50308567  0.28519567  1
  O  O31  1  0.49691433  0.99382867  0.28519567  1
  O  O32  1  0.00617133  0.50308567  0.28519567  1
  O  O33  1  0.32716200  0.16358100  0.38147100  1
  O  O34  1  0.83641900  0.67283800  0.38147100  1
  O  O35  1  0.83641900  0.16358100  0.38147100  1
  O  O36  1  0.16709733  0.83290267  0.46047867  1
  O  O37  1  0.66580533  0.83290267  0.46047867  1
  O  O38  1  0.16709733  0.33419467  0.46047867  1
  O  O39  1  0.83290267  0.66580533  0.53952133  1
  O  O40  1  0.33419467  0.16709733  0.53952133  1
  O  O41  1  0.83290267  0.16709733  0.53952133  1
  O  O42  1  0.16358100  0.83641900  0.61852900  1
  O  O43  1  0.16358100  0.32716200  0.61852900  1
  O  O44  1  0.67283800  0.83641900  0.61852900  1
  O  O45  1  0.99382867  0.49691433  0.71480433  1
  O  O46  1  0.50308567  0.00617133  0.71480433  1
  O  O47  1  0.50308567  0.49691433  0.71480433  1
  O  O48  1  0.83376400  0.16623600  0.79381200  1
  O  O49  1  0.33247200  0.16623600  0.79381200  1
  O  O50  1  0.83376400  0.66752800  0.79381200  1
  O  O51  1  0.49956933  0.99913867  0.87285467  1
  O  O52  1  0.00086133  0.50043067  0.87285467  1
  O  O53  1  0.49956933  0.50043067  0.87285467  1
  O  O54  1  0.83024767  0.16975233  0.95186233  1
  O  O55  1  0.83024767  0.66049533  0.95186233  1
  O  O56  1  0.33950467  0.16975233  0.95186233  1
