# generated using pymatgen
data_Ge2N2O
_symmetry_space_group_name_H-M   'P 1'
_cell_length_a   5.83484600
_cell_length_b   9.42878400
_cell_length_c   5.17655800
_cell_angle_alpha   90.00000000
_cell_angle_beta   90.00000000
_cell_angle_gamma   90.00000000
_symmetry_Int_Tables_number   1
_chemical_formula_structural   Ge2N2O
_chemical_formula_sum   'Ge8 N8 O4'
_cell_volume   284.79094015
_cell_formula_units_Z   4
loop_
 _symmetry_equiv_pos_site_id
 _symmetry_equiv_pos_as_xyz
  1  'x, y, z'
loop_
 _atom_site_type_symbol
 _atom_site_label
 _atom_site_symmetry_multiplicity
 _atom_site_fract_x
 _atom_site_fract_y
 _atom_site_fract_z
 _atom_site_occupancy
  Ge  Ge0  1  0.34569350  0.67519150  0.61755500  1
  Ge  Ge1  1  0.65430650  0.32480850  0.11755500  1
  Ge  Ge2  1  0.65430650  0.67519150  0.11755500  1
  Ge  Ge3  1  0.34569350  0.32480850  0.61755500  1
  Ge  Ge4  1  0.84569350  0.17519150  0.61755500  1
  Ge  Ge5  1  0.15430650  0.82480850  0.11755500  1
  Ge  Ge6  1  0.15430650  0.17519150  0.11755500  1
  Ge  Ge7  1  0.84569350  0.82480850  0.61755500  1
  N  N8  1  0.62765400  0.70900800  0.76887600  1
  N  N9  1  0.37234600  0.29099200  0.26887600  1
  N  N10  1  0.37234600  0.70900800  0.26887600  1
  N  N11  1  0.62765400  0.29099200  0.76887600  1
  N  N12  1  0.12765400  0.20900800  0.76887600  1
  N  N13  1  0.87234600  0.79099200  0.26887600  1
  N  N14  1  0.87234600  0.20900800  0.26887600  1
  N  N15  1  0.12765400  0.79099200  0.76887600  1
  O  O16  1  0.75865500  0.00000000  0.69913900  1
  O  O17  1  0.24134500  0.00000000  0.19913900  1
  O  O18  1  0.25865500  0.50000000  0.69913900  1
  O  O19  1  0.74134500  0.50000000  0.19913900  1
