# generated using pymatgen
data_Li4SeO5
_symmetry_space_group_name_H-M   'P 1'
_cell_length_a   8.83926200
_cell_length_b   5.83477600
_cell_length_c   7.95303310
_cell_angle_alpha   90.00000000
_cell_angle_beta   98.09370439
_cell_angle_gamma   90.00000000
_symmetry_Int_Tables_number   1
_chemical_formula_structural   Li4SeO5
_chemical_formula_sum   'Li16 Se4 O20'
_cell_volume   406.09285290
_cell_formula_units_Z   4
loop_
 _symmetry_equiv_pos_site_id
 _symmetry_equiv_pos_as_xyz
  1  'x, y, z'
loop_
 _atom_site_type_symbol
 _atom_site_label
 _atom_site_symmetry_multiplicity
 _atom_site_fract_x
 _atom_site_fract_y
 _atom_site_fract_z
 _atom_site_occupancy
  Li  Li0  1  0.19850150  0.16357850  0.64614500  1
  Li  Li1  1  0.80149850  0.16357850  0.85385500  1
  Li  Li2  1  0.39547050  0.17244550  0.05665100  1
  Li  Li3  1  0.60452950  0.17244550  0.44334900  1
  Li  Li4  1  0.60452950  0.82755450  0.94334900  1
  Li  Li5  1  0.39547050  0.82755450  0.55665100  1
  Li  Li6  1  0.80149850  0.83642150  0.35385500  1
  Li  Li7  1  0.19850150  0.83642150  0.14614500  1
  Li  Li8  1  0.69850150  0.66357850  0.64614500  1
  Li  Li9  1  0.30149850  0.66357850  0.85385500  1
  Li  Li10  1  0.89547050  0.67244550  0.05665100  1
  Li  Li11  1  0.10452950  0.67244550  0.44334900  1
  Li  Li12  1  0.10452950  0.32755450  0.94334900  1
  Li  Li13  1  0.89547050  0.32755450  0.55665100  1
  Li  Li14  1  0.30149850  0.33642150  0.35385500  1
  Li  Li15  1  0.69850150  0.33642150  0.14614500  1
  Se  Se16  1  0.50000000  0.32795700  0.75000000  1
  Se  Se17  1  0.50000000  0.67204300  0.25000000  1
  Se  Se18  1  0.00000000  0.82795700  0.75000000  1
  Se  Se19  1  0.00000000  0.17204300  0.25000000  1
  O  O20  1  0.17761300  0.82788400  0.66011300  1
  O  O21  1  0.82238700  0.82788400  0.83988700  1
  O  O22  1  0.50000000  0.37161400  0.25000000  1
  O  O23  1  0.50000000  0.62838600  0.75000000  1
  O  O24  1  0.58891650  0.82192850  0.42652100  1
  O  O25  1  0.41108350  0.82192850  0.07347900  1
  O  O26  1  0.41108350  0.17807150  0.57347900  1
  O  O27  1  0.58891650  0.17807150  0.92652100  1
  O  O28  1  0.17761300  0.17211600  0.16011300  1
  O  O29  1  0.82238700  0.17211600  0.33988700  1
  O  O30  1  0.67761300  0.32788400  0.66011300  1
  O  O31  1  0.32238700  0.32788400  0.83988700  1
  O  O32  1  0.00000000  0.87161400  0.25000000  1
  O  O33  1  0.00000000  0.12838600  0.75000000  1
  O  O34  1  0.08891650  0.32192850  0.42652100  1
  O  O35  1  0.91108350  0.32192850  0.07347900  1
  O  O36  1  0.91108350  0.67807150  0.57347900  1
  O  O37  1  0.08891650  0.67807150  0.92652100  1
  O  O38  1  0.67761300  0.67211600  0.16011300  1
  O  O39  1  0.32238700  0.67211600  0.33988700  1
