# generated using pymatgen
data_In14Ga3Pt2O8F15
_symmetry_space_group_name_H-M   'P 1'
_cell_length_a   7.22893986
_cell_length_b   7.22893986
_cell_length_c   46.51454347
_cell_angle_alpha   90.00000000
_cell_angle_beta   90.00000000
_cell_angle_gamma   120.00000000
_symmetry_Int_Tables_number   1
_chemical_formula_structural   In14Ga3Pt2O8F15
_chemical_formula_sum   'In42 Ga9 Pt6 O24 F45'
_cell_volume   2105.08006505
_cell_formula_units_Z   3
loop_
 _symmetry_equiv_pos_site_id
 _symmetry_equiv_pos_as_xyz
  1  'x, y, z'
loop_
 _atom_site_type_symbol
 _atom_site_label
 _atom_site_symmetry_multiplicity
 _atom_site_fract_x
 _atom_site_fract_y
 _atom_site_fract_z
 _atom_site_occupancy
  In  In0  1  0.00000000  0.00000000  0.14960100  1
  In  In1  1  0.67226433  0.83586067  0.02974767  1
  In  In2  1  0.16413933  0.83640367  0.02974767  1
  In  In3  1  0.16359633  0.32773567  0.02974767  1
  In  In4  1  0.51331767  0.00441833  0.09575833  1
  In  In5  1  0.99558167  0.50889933  0.09575833  1
  In  In6  1  0.49110067  0.48668233  0.09575833  1
  In  In7  1  0.67108500  0.82443400  0.23757500  1
  In  In8  1  0.17556600  0.84665100  0.23757500  1
  In  In9  1  0.15334900  0.32891500  0.23757500  1
  In  In10  1  0.50307033  0.00559767  0.30358567  1
  In  In11  1  0.50252733  0.49692967  0.30358567  1
  In  In12  1  0.99440233  0.49747267  0.30358567  1
  In  In13  1  0.66666667  0.33333333  0.18373233  1
  In  In14  1  0.66666667  0.33333333  0.48293433  1
  In  In15  1  0.33893100  0.16919400  0.36308100  1
  In  In16  1  0.83080600  0.16973700  0.36308100  1
  In  In17  1  0.83026300  0.66106900  0.36308100  1
  In  In18  1  0.17998433  0.33775167  0.42909167  1
  In  In19  1  0.66224833  0.84223267  0.42909167  1
  In  In20  1  0.15776733  0.82001567  0.42909167  1
  In  In21  1  0.33775167  0.15776733  0.57090833  1
  In  In22  1  0.84223267  0.17998433  0.57090833  1
  In  In23  1  0.82001567  0.66224833  0.57090833  1
  In  In24  1  0.16973700  0.33893100  0.63691900  1
  In  In25  1  0.16919400  0.83026300  0.63691900  1
  In  In26  1  0.66106900  0.83080600  0.63691900  1
  In  In27  1  0.33333333  0.66666667  0.51706567  1
  In  In28  1  0.33333333  0.66666667  0.81626767  1
  In  In29  1  0.00559767  0.50252733  0.69641433  1
  In  In30  1  0.49747267  0.50307033  0.69641433  1
  In  In31  1  0.49692967  0.99440233  0.69641433  1
  In  In32  1  0.84665100  0.67108500  0.76242500  1
  In  In33  1  0.32891500  0.17556600  0.76242500  1
  In  In34  1  0.82443400  0.15334900  0.76242500  1
  In  In35  1  0.00441833  0.49110067  0.90424167  1
  In  In36  1  0.50889933  0.51331767  0.90424167  1
  In  In37  1  0.48668233  0.99558167  0.90424167  1
  In  In38  1  0.83640367  0.67226433  0.97025233  1
  In  In39  1  0.83586067  0.16359633  0.97025233  1
  In  In40  1  0.32773567  0.16413933  0.97025233  1
  In  In41  1  0.00000000  0.00000000  0.85039900  1
  Ga  Ga42  1  0.00000000  0.00000000  0.30017600  1
  Ga  Ga43  1  0.33333333  0.66666667  0.16666667  1
  Ga  Ga44  1  0.66666667  0.33333333  0.03315733  1
  Ga  Ga45  1  0.66666667  0.33333333  0.63350933  1
  Ga  Ga46  1  1.00000000  0.00000000  0.50000000  1
  Ga  Ga47  1  0.33333333  0.66666667  0.36649067  1
  Ga  Ga48  1  0.33333333  0.66666667  0.96684267  1
  Ga  Ga49  1  0.66666667  0.33333333  0.83333333  1
  Ga  Ga50  1  0.00000000  0.00000000  0.69982400  1
  Pt  Pt51  1  0.33333333  0.66666667  0.06307567  1
  Pt  Pt52  1  0.33333333  0.66666667  0.27025767  1
  Pt  Pt53  1  0.00000000  0.00000000  0.39640900  1
  Pt  Pt54  1  0.00000000  0.00000000  0.60359100  1
  Pt  Pt55  1  0.66666667  0.33333333  0.72974233  1
  Pt  Pt56  1  0.66666667  0.33333333  0.93692433  1
  O  O57  1  0.00000000  0.00000000  0.25941600  1
  O  O58  1  0.28280633  0.14137167  0.31405167  1
  O  O59  1  0.85862833  0.14143467  0.31405167  1
  O  O60  1  0.85856533  0.71719367  0.31405167  1
  O  O61  1  0.80810133  0.61613967  0.01928167  1
  O  O62  1  0.38386033  0.19196167  0.01928167  1
  O  O63  1  0.80803833  0.19189867  0.01928167  1
  O  O64  1  0.66666667  0.33333333  0.07391733  1
  O  O65  1  0.66666667  0.33333333  0.59274933  1
  O  O66  1  0.94947300  0.47470500  0.64738500  1
  O  O67  1  0.52529500  0.47476800  0.64738500  1
  O  O68  1  0.52523200  0.05052700  0.64738500  1
  O  O69  1  0.47476800  0.94947300  0.35261500  1
  O  O70  1  0.05052700  0.52529500  0.35261500  1
  O  O71  1  0.47470500  0.52523200  0.35261500  1
  O  O72  1  0.33333333  0.66666667  0.40725067  1
  O  O73  1  0.33333333  0.66666667  0.92608267  1
  O  O74  1  0.61613967  0.80803833  0.98071833  1
  O  O75  1  0.19196167  0.80810133  0.98071833  1
  O  O76  1  0.19189867  0.38386033  0.98071833  1
  O  O77  1  0.14143467  0.28280633  0.68594833  1
  O  O78  1  0.71719367  0.85862833  0.68594833  1
  O  O79  1  0.14137167  0.85856533  0.68594833  1
  O  O80  1  0.00000000  0.00000000  0.74058400  1
  F  F81  1  0.00000000  0.00000000  0.00000000  1
  F  F82  1  0.00000000  0.00000000  0.05412400  1
  F  F83  1  0.32395767  0.17386333  0.21983433  1
  F  F84  1  0.82613667  0.15009433  0.21983433  1
  F  F85  1  0.84990567  0.67604233  0.21983433  1
  F  F86  1  0.48930333  0.91754867  0.14316067  1
  F  F87  1  0.08245133  0.57175467  0.14316067  1
  F  F88  1  0.42824533  0.51069667  0.14316067  1
  F  F89  1  0.23842133  0.82263667  0.19017267  1
  F  F90  1  0.58421533  0.76157867  0.19017267  1
  F  F91  1  0.17736333  0.41578467  0.19017267  1
  F  F92  1  0.81676100  0.65729100  0.11349900  1
  F  F93  1  0.34270900  0.15947000  0.11349900  1
  F  F94  1  0.84053000  0.18323900  0.11349900  1
  F  F95  1  0.66666667  0.33333333  0.27920933  1
  F  F96  1  0.66666667  0.33333333  0.33333333  1
  F  F97  1  0.66666667  0.33333333  0.38745733  1
  F  F98  1  0.99062433  0.50719667  0.55316767  1
  F  F99  1  0.49280333  0.48342767  0.55316767  1
  F  F100  1  0.51657233  0.00937567  0.55316767  1
  F  F101  1  0.15597000  0.25088200  0.47649400  1
  F  F102  1  0.74911800  0.90508800  0.47649400  1
  F  F103  1  0.09491200  0.84403000  0.47649400  1
  F  F104  1  0.90508800  0.15597000  0.52350600  1
  F  F105  1  0.25088200  0.09491200  0.52350600  1
  F  F106  1  0.84403000  0.74911800  0.52350600  1
  F  F107  1  0.48342767  0.99062433  0.44683233  1
  F  F108  1  0.00937567  0.49280333  0.44683233  1
  F  F109  1  0.50719667  0.51657233  0.44683233  1
  F  F110  1  0.33333333  0.66666667  0.61254267  1
  F  F111  1  0.33333333  0.66666667  0.66666667  1
  F  F112  1  0.33333333  0.66666667  0.72079067  1
  F  F113  1  0.65729100  0.84053000  0.88650100  1
  F  F114  1  0.15947000  0.81676100  0.88650100  1
  F  F115  1  0.18323900  0.34270900  0.88650100  1
  F  F116  1  0.82263667  0.58421533  0.80982733  1
  F  F117  1  0.41578467  0.23842133  0.80982733  1
  F  F118  1  0.76157867  0.17736333  0.80982733  1
  F  F119  1  0.57175467  0.48930333  0.85683933  1
  F  F120  1  0.91754867  0.42824533  0.85683933  1
  F  F121  1  0.51069667  0.08245133  0.85683933  1
  F  F122  1  0.15009433  0.32395767  0.78016567  1
  F  F123  1  0.67604233  0.82613667  0.78016567  1
  F  F124  1  0.17386333  0.84990567  0.78016567  1
  F  F125  1  0.00000000  0.00000000  0.94587600  1
