# generated using pymatgen
data_HoTaO4
_symmetry_space_group_name_H-M   'P 1'
_cell_length_a   7.02063600
_cell_length_b   11.03431000
_cell_length_c   5.09102731
_cell_angle_alpha   90.00000000
_cell_angle_beta   130.74884529
_cell_angle_gamma   90.00000000
_symmetry_Int_Tables_number   1
_chemical_formula_structural   HoTaO4
_chemical_formula_sum   'Ho4 Ta4 O16'
_cell_volume   298.78204739
_cell_formula_units_Z   4
loop_
 _symmetry_equiv_pos_site_id
 _symmetry_equiv_pos_as_xyz
  1  'x, y, z'
loop_
 _atom_site_type_symbol
 _atom_site_label
 _atom_site_symmetry_multiplicity
 _atom_site_fract_x
 _atom_site_fract_y
 _atom_site_fract_z
 _atom_site_occupancy
  Ho  Ho0  1  0.00000000  0.36855000  0.75000000  1
  Ho  Ho1  1  0.50000000  0.13145000  0.25000000  1
  Ho  Ho2  1  0.50000000  0.86855000  0.75000000  1
  Ho  Ho3  1  0.00000000  0.63145000  0.25000000  1
  Ta  Ta4  1  0.50000000  0.39815000  0.75000000  1
  Ta  Ta5  1  0.00000000  0.10185000  0.25000000  1
  Ta  Ta6  1  0.00000000  0.89815000  0.75000000  1
  Ta  Ta7  1  0.50000000  0.60185000  0.25000000  1
  O  O8  1  0.74502050  0.46839850  0.21404200  1
  O  O9  1  0.25497950  0.46839850  0.28595800  1
  O  O10  1  0.75497950  0.03160150  0.78595800  1
  O  O11  1  0.24502050  0.03160150  0.71404200  1
  O  O12  1  0.34201800  0.29027000  0.84092900  1
  O  O13  1  0.65798200  0.29027000  0.65907100  1
  O  O14  1  0.15798200  0.20973000  0.15907100  1
  O  O15  1  0.84201800  0.20973000  0.34092900  1
  O  O16  1  0.24502050  0.96839850  0.21404200  1
  O  O17  1  0.75497950  0.96839850  0.28595800  1
  O  O18  1  0.25497950  0.53160150  0.78595800  1
  O  O19  1  0.74502050  0.53160150  0.71404200  1
  O  O20  1  0.84201800  0.79027000  0.84092900  1
  O  O21  1  0.15798200  0.79027000  0.65907100  1
  O  O22  1  0.65798200  0.70973000  0.15907100  1
  O  O23  1  0.34201800  0.70973000  0.34092900  1
