# generated using pymatgen
data_In4Br7
_symmetry_space_group_name_H-M   'P 1'
_cell_length_a   7.81674570
_cell_length_b   7.81674570
_cell_length_c   47.62173005
_cell_angle_alpha   90.00000000
_cell_angle_beta   90.00000000
_cell_angle_gamma   120.00000000
_symmetry_Int_Tables_number   1
_chemical_formula_structural   In4Br7
_chemical_formula_sum   'In24 Br42'
_cell_volume   2519.92588563
_cell_formula_units_Z   6
loop_
 _symmetry_equiv_pos_site_id
 _symmetry_equiv_pos_as_xyz
  1  'x, y, z'
loop_
 _atom_site_type_symbol
 _atom_site_label
 _atom_site_symmetry_multiplicity
 _atom_site_fract_x
 _atom_site_fract_y
 _atom_site_fract_z
 _atom_site_occupancy
  In  In0  1  0.00000000  0.00000000  0.15105800  1
  In  In1  1  0.66666667  0.33333333  0.04149333  1
  In  In2  1  0.33333333  0.66666667  0.08373067  1
  In  In3  1  0.33333333  0.66666667  0.16666667  1
  In  In4  1  0.33333333  0.66666667  0.24960267  1
  In  In5  1  0.00000000  0.00000000  0.29184000  1
  In  In6  1  0.00000000  0.00000000  0.00000000  1
  In  In7  1  0.66666667  0.33333333  0.18227533  1
  In  In8  1  0.66666667  0.33333333  0.48439133  1
  In  In9  1  0.33333333  0.66666667  0.37482667  1
  In  In10  1  0.00000000  0.00000000  0.41706400  1
  In  In11  1  1.00000000  1.00000000  0.50000000  1
  In  In12  1  0.00000000  0.00000000  0.58293600  1
  In  In13  1  0.66666667  0.33333333  0.62517333  1
  In  In14  1  0.66666667  0.33333333  0.33333333  1
  In  In15  1  0.33333333  0.66666667  0.51560867  1
  In  In16  1  0.33333333  0.66666667  0.81772467  1
  In  In17  1  0.00000000  0.00000000  0.70816000  1
  In  In18  1  0.66666667  0.33333333  0.75039733  1
  In  In19  1  0.66666667  0.33333333  0.83333333  1
  In  In20  1  0.66666667  0.33333333  0.91626933  1
  In  In21  1  0.33333333  0.66666667  0.95850667  1
  In  In22  1  0.33333333  0.66666667  0.66666667  1
  In  In23  1  0.00000000  0.00000000  0.84894200  1
  Br  Br24  1  0.49728200  0.99456400  0.13369000  1
  Br  Br25  1  0.35383333  0.17691667  0.27386067  1
  Br  Br26  1  0.82308333  0.17691667  0.27386067  1
  Br  Br27  1  0.16938467  0.83061533  0.19964333  1
  Br  Br28  1  0.84358333  0.68716667  0.05947267  1
  Br  Br29  1  0.00543600  0.50271800  0.13369000  1
  Br  Br30  1  0.49728200  0.50271800  0.13369000  1
  Br  Br31  1  0.31283333  0.15641667  0.05947267  1
  Br  Br32  1  0.33333333  0.66666667  0.32141567  1
  Br  Br33  1  0.82308333  0.64616667  0.27386067  1
  Br  Br34  1  0.84358333  0.15641667  0.05947267  1
  Br  Br35  1  0.16938467  0.33876933  0.19964333  1
  Br  Br36  1  0.33333333  0.66666667  0.01191767  1
  Br  Br37  1  0.66123067  0.83061533  0.19964333  1
  Br  Br38  1  0.16394867  0.32789733  0.46702333  1
  Br  Br39  1  0.02050000  0.51025000  0.60719400  1
  Br  Br40  1  0.48975000  0.51025000  0.60719400  1
  Br  Br41  1  0.83605133  0.16394867  0.53297667  1
  Br  Br42  1  0.51025000  0.02050000  0.39280600  1
  Br  Br43  1  0.67210267  0.83605133  0.46702333  1
  Br  Br44  1  0.16394867  0.83605133  0.46702333  1
  Br  Br45  1  0.97950000  0.48975000  0.39280600  1
  Br  Br46  1  0.00000000  0.00000000  0.65474900  1
  Br  Br47  1  0.48975000  0.97950000  0.60719400  1
  Br  Br48  1  0.51025000  0.48975000  0.39280600  1
  Br  Br49  1  0.83605133  0.67210267  0.53297667  1
  Br  Br50  1  0.00000000  0.00000000  0.34525100  1
  Br  Br51  1  0.32789733  0.16394867  0.53297667  1
  Br  Br52  1  0.83061533  0.66123067  0.80035667  1
  Br  Br53  1  0.68716667  0.84358333  0.94052733  1
  Br  Br54  1  0.15641667  0.84358333  0.94052733  1
  Br  Br55  1  0.50271800  0.49728200  0.86631000  1
  Br  Br56  1  0.17691667  0.35383333  0.72613933  1
  Br  Br57  1  0.33876933  0.16938467  0.80035667  1
  Br  Br58  1  0.83061533  0.16938467  0.80035667  1
  Br  Br59  1  0.64616667  0.82308333  0.72613933  1
  Br  Br60  1  0.66666667  0.33333333  0.98808233  1
  Br  Br61  1  0.15641667  0.31283333  0.94052733  1
  Br  Br62  1  0.17691667  0.82308333  0.72613933  1
  Br  Br63  1  0.50271800  0.00543600  0.86631000  1
  Br  Br64  1  0.66666667  0.33333333  0.67858433  1
  Br  Br65  1  0.99456400  0.49728200  0.86631000  1
