# generated using pymatgen
data_KGd(PO3)4
_symmetry_space_group_name_H-M   'P 1'
_cell_length_a   10.52117200
_cell_length_b   9.07122300
_cell_length_c   12.88876601
_cell_angle_alpha   90.00000000
_cell_angle_beta   125.46488896
_cell_angle_gamma   90.00000000
_symmetry_Int_Tables_number   1
_chemical_formula_structural   KGd(PO3)4
_chemical_formula_sum   'K4 Gd4 P16 O48'
_cell_volume   1001.88309106
_cell_formula_units_Z   4
loop_
 _symmetry_equiv_pos_site_id
 _symmetry_equiv_pos_as_xyz
  1  'x, y, z'
loop_
 _atom_site_type_symbol
 _atom_site_label
 _atom_site_symmetry_multiplicity
 _atom_site_fract_x
 _atom_site_fract_y
 _atom_site_fract_z
 _atom_site_occupancy
  K  K0  1  0.75018000  0.57150000  0.04252500  1
  K  K1  1  0.24982000  0.07150000  0.45747500  1
  K  K2  1  0.24982000  0.42850000  0.95747500  1
  K  K3  1  0.75018000  0.92850000  0.54252500  1
  Gd  Gd4  1  0.18493400  0.77234300  0.18480700  1
  Gd  Gd5  1  0.81506600  0.27234300  0.31519300  1
  Gd  Gd6  1  0.18493400  0.72765700  0.68480700  1
  Gd  Gd7  1  0.81506600  0.22765700  0.81519300  1
  P  P8  1  0.18092400  0.33012600  0.64147000  1
  P  P9  1  0.47995300  0.02323400  0.23039800  1
  P  P10  1  0.69731500  0.39377100  0.51962400  1
  P  P11  1  0.88676100  0.59450900  0.74012900  1
  P  P12  1  0.11323900  0.09450900  0.75987100  1
  P  P13  1  0.52004700  0.52323400  0.26960200  1
  P  P14  1  0.30268500  0.60622900  0.48037600  1
  P  P15  1  0.69731500  0.10622900  0.01962400  1
  P  P16  1  0.88676100  0.90549100  0.24012900  1
  P  P17  1  0.47995300  0.47676600  0.73039800  1
  P  P18  1  0.81907600  0.83012600  0.85853000  1
  P  P19  1  0.52004700  0.97676600  0.76960200  1
  P  P20  1  0.30268500  0.89377100  0.98037600  1
  P  P21  1  0.81907600  0.66987400  0.35853000  1
  P  P22  1  0.18092400  0.16987400  0.14147000  1
  P  P23  1  0.11323900  0.40549100  0.25987100  1
  O  O24  1  0.63942300  0.09065500  0.31197900  1
  O  O25  1  0.92645500  0.46334000  0.82507100  1
  O  O26  1  0.23685500  0.44986200  0.40671400  1
  O  O27  1  0.86164900  0.53031800  0.32294500  1
  O  O28  1  0.36057700  0.90934500  0.68802100  1
  O  O29  1  0.79956400  0.15985300  0.98170800  1
  O  O30  1  0.01789800  0.67982700  0.75448400  1
  O  O31  1  0.77511400  0.79159000  0.25011000  1
  O  O32  1  0.43723800  0.58805800  0.79210800  1
  O  O33  1  0.46371500  0.54637500  0.60693000  1
  O  O34  1  0.13835100  0.03031800  0.17705500  1
  O  O35  1  0.43723800  0.91194200  0.29210800  1
  O  O36  1  0.33791800  0.70785900  0.40818400  1
  O  O37  1  0.07629500  0.23766100  0.01187400  1
  O  O38  1  0.36057700  0.59065500  0.18802100  1
  O  O39  1  0.56276200  0.41194200  0.20789200  1
  O  O40  1  0.79956400  0.34014700  0.48170800  1
  O  O41  1  0.63942300  0.40934500  0.81197900  1
  O  O42  1  0.20043600  0.84014700  0.01829200  1
  O  O43  1  0.64880600  0.65485800  0.33199600  1
  O  O44  1  0.66208200  0.29214100  0.59181600  1
  O  O45  1  0.07629500  0.26233900  0.51187400  1
  O  O46  1  0.46371500  0.95362500  0.10693000  1
  O  O47  1  0.64880600  0.84514200  0.83199600  1
  O  O48  1  0.86164900  0.96968200  0.82294500  1
  O  O49  1  0.92370500  0.76233900  0.98812600  1
  O  O50  1  0.77511400  0.70841000  0.75011000  1
  O  O51  1  0.22488600  0.29159000  0.24989000  1
  O  O52  1  0.76314500  0.94986200  0.09328600  1
  O  O53  1  0.23685500  0.05013800  0.90671400  1
  O  O54  1  0.56276200  0.08805800  0.70789200  1
  O  O55  1  0.98210200  0.32017300  0.24551600  1
  O  O56  1  0.20043600  0.65985300  0.51829200  1
  O  O57  1  0.01789800  0.82017300  0.25448400  1
  O  O58  1  0.07354500  0.53666000  0.17492900  1
  O  O59  1  0.33791800  0.79214100  0.90818400  1
  O  O60  1  0.76314500  0.55013800  0.59328600  1
  O  O61  1  0.22488600  0.20841000  0.74989000  1
  O  O62  1  0.92370500  0.73766100  0.48812600  1
  O  O63  1  0.35119400  0.15485800  0.16800400  1
  O  O64  1  0.13835100  0.46968200  0.67705500  1
  O  O65  1  0.98210200  0.17982700  0.74551600  1
  O  O66  1  0.53628500  0.45362500  0.39307000  1
  O  O67  1  0.92645500  0.03666000  0.32507100  1
  O  O68  1  0.66208200  0.20785900  0.09181600  1
  O  O69  1  0.53628500  0.04637500  0.89307000  1
  O  O70  1  0.35119400  0.34514200  0.66800400  1
  O  O71  1  0.07354500  0.96334000  0.67492900  1
