# generated using pymatgen
data_SiO2
_symmetry_space_group_name_H-M   'P 1'
_cell_length_a   7.50081700
_cell_length_b   22.28491200
_cell_length_c   11.65232576
_cell_angle_alpha   90.00000000
_cell_angle_beta   94.82510929
_cell_angle_gamma   90.00000000
_symmetry_Int_Tables_number   1
_chemical_formula_structural   SiO2
_chemical_formula_sum   'Si32 O64'
_cell_volume   1940.84242989
_cell_formula_units_Z   32
loop_
 _symmetry_equiv_pos_site_id
 _symmetry_equiv_pos_as_xyz
  1  'x, y, z'
loop_
 _atom_site_type_symbol
 _atom_site_label
 _atom_site_symmetry_multiplicity
 _atom_site_fract_x
 _atom_site_fract_y
 _atom_site_fract_z
 _atom_site_occupancy
  Si  Si0  1  0.74285900  0.18263100  0.03761500  1
  Si  Si1  1  0.10179600  0.36998900  0.13554100  1
  Si  Si2  1  0.59637300  0.07014200  0.39265500  1
  Si  Si3  1  0.23793400  0.45829600  0.94910200  1
  Si  Si4  1  0.48034800  0.31972200  0.23919700  1
  Si  Si5  1  0.93736700  0.02184300  0.26969500  1
  Si  Si6  1  0.25714100  0.81736900  0.96238500  1
  Si  Si7  1  0.48034800  0.18027800  0.23919700  1
  Si  Si8  1  0.63601800  0.06973900  0.89018500  1
  Si  Si9  1  0.51965200  0.81972200  0.76080300  1
  Si  Si10  1  0.40362700  0.57014200  0.60734500  1
  Si  Si11  1  0.63601800  0.43026100  0.89018500  1
  Si  Si12  1  0.76206600  0.95829600  0.05089800  1
  Si  Si13  1  0.51965200  0.68027800  0.76080300  1
  Si  Si14  1  0.93736700  0.47815700  0.26969500  1
  Si  Si15  1  0.89820400  0.63001100  0.86445900  1
  Si  Si16  1  0.23793400  0.04170400  0.94910200  1
  Si  Si17  1  0.59637300  0.42985800  0.39265500  1
  Si  Si18  1  0.10179600  0.13001100  0.13554100  1
  Si  Si19  1  0.25714100  0.68263100  0.96238500  1
  Si  Si20  1  0.70853300  0.47093500  0.63836200  1
  Si  Si21  1  0.06263300  0.97815700  0.73030500  1
  Si  Si22  1  0.29146700  0.97093500  0.36163800  1
  Si  Si23  1  0.36398200  0.93026100  0.10981500  1
  Si  Si24  1  0.89820400  0.86998900  0.86445900  1
  Si  Si25  1  0.06263300  0.52184300  0.73030500  1
  Si  Si26  1  0.29146700  0.52906500  0.36163800  1
  Si  Si27  1  0.40362700  0.92985800  0.60734500  1
  Si  Si28  1  0.74285900  0.31736900  0.03761500  1
  Si  Si29  1  0.36398200  0.56973900  0.10981500  1
  Si  Si30  1  0.76206600  0.54170400  0.05089800  1
  Si  Si31  1  0.70853300  0.02906500  0.63836200  1
  O  O32  1  0.42317800  0.06488800  0.90259200  1
  O  O33  1  0.49463900  0.25000000  0.28070800  1
  O  O34  1  0.60006100  0.33174000  0.13152500  1
  O  O35  1  0.15343800  0.09576300  0.01972400  1
  O  O36  1  0.41254600  0.03167900  0.37027600  1
  O  O37  1  0.28851800  0.63477500  0.06668900  1
  O  O38  1  0.02630900  0.08328000  0.22649300  1
  O  O39  1  0.89716300  0.97595000  0.16182700  1
  O  O40  1  0.32509600  0.56423900  0.24373900  1
  O  O41  1  0.58745400  0.96832100  0.62972400  1
  O  O42  1  0.84656200  0.59576300  0.98027600  1
  O  O43  1  0.39993900  0.83174000  0.86847500  1
  O  O44  1  0.27316500  0.33552500  0.19873000  1
  O  O45  1  0.02630900  0.41672000  0.22649300  1
  O  O46  1  0.41254600  0.46832100  0.37027600  1
  O  O47  1  0.15343800  0.40423700  0.01972400  1
  O  O48  1  0.60006100  0.16826000  0.13152500  1
  O  O49  1  0.97369100  0.91672000  0.77350700  1
  O  O50  1  0.72683500  0.83552500  0.80127000  1
  O  O51  1  0.72683500  0.66447500  0.80127000  1
  O  O52  1  0.24677400  0.96255800  0.67303900  1
  O  O53  1  0.28860300  0.75000000  0.01396300  1
  O  O54  1  0.42317800  0.43511200  0.90259200  1
  O  O55  1  0.97369100  0.58328000  0.77350700  1
  O  O56  1  0.94636900  0.17858000  0.09789300  1
  O  O57  1  0.73476000  0.48345000  0.96713600  1
  O  O58  1  0.55756500  0.36198900  0.34601900  1
  O  O59  1  0.08082700  0.98939700  0.36262500  1
  O  O60  1  0.10283700  0.02405000  0.83817300  1
  O  O61  1  0.26524000  0.51655000  0.03286400  1
  O  O62  1  0.57682200  0.56488800  0.09740800  1
  O  O63  1  0.28851800  0.86522500  0.06668900  1
  O  O64  1  0.44243500  0.63801100  0.65398100  1
  O  O65  1  0.65578400  0.42653700  0.53004500  1
  O  O66  1  0.67490400  0.43576100  0.75626100  1
  O  O67  1  0.08082700  0.51060300  0.36262500  1
  O  O68  1  0.75322600  0.03744200  0.32696100  1
  O  O69  1  0.71148200  0.36522500  0.93331100  1
  O  O70  1  0.05363100  0.82142000  0.90210700  1
  O  O71  1  0.91917300  0.01060300  0.63737500  1
  O  O72  1  0.91917300  0.48939700  0.63737500  1
  O  O73  1  0.05363100  0.67858000  0.90210700  1
  O  O74  1  0.24677400  0.53744200  0.67303900  1
  O  O75  1  0.71148200  0.13477500  0.93331100  1
  O  O76  1  0.75322600  0.46255800  0.32696100  1
  O  O77  1  0.50536100  0.75000000  0.71929200  1
  O  O78  1  0.27316500  0.16447500  0.19873000  1
  O  O79  1  0.58745400  0.53167900  0.62972400  1
  O  O80  1  0.26524000  0.98345000  0.03286400  1
  O  O81  1  0.34421600  0.92653700  0.46995500  1
  O  O82  1  0.84656200  0.90423700  0.98027600  1
  O  O83  1  0.71139700  0.25000000  0.98603700  1
  O  O84  1  0.67490400  0.06423900  0.75626100  1
  O  O85  1  0.65578400  0.07346300  0.53004500  1
  O  O86  1  0.57682200  0.93511200  0.09740800  1
  O  O87  1  0.34421600  0.57346300  0.46995500  1
  O  O88  1  0.89716300  0.52405000  0.16182700  1
  O  O89  1  0.10283700  0.47595000  0.83817300  1
  O  O90  1  0.44243500  0.86198900  0.65398100  1
  O  O91  1  0.55756500  0.13801100  0.34601900  1
  O  O92  1  0.73476000  0.01655000  0.96713600  1
  O  O93  1  0.39993900  0.66826000  0.86847500  1
  O  O94  1  0.94636900  0.32142000  0.09789300  1
  O  O95  1  0.32509600  0.93576100  0.24373900  1
