# generated using pymatgen
data_BaSb2Xe5F22
_symmetry_space_group_name_H-M   'P 1'
_cell_length_a   12.42392800
_cell_length_b   14.05532400
_cell_length_c   14.28979400
_cell_angle_alpha   90.00000000
_cell_angle_beta   90.00000000
_cell_angle_gamma   90.00000000
_symmetry_Int_Tables_number   1
_chemical_formula_structural   BaSb2Xe5F22
_chemical_formula_sum   'Ba4 Sb8 Xe20 F88'
_cell_volume   2495.31717198
_cell_formula_units_Z   4
loop_
 _symmetry_equiv_pos_site_id
 _symmetry_equiv_pos_as_xyz
  1  'x, y, z'
loop_
 _atom_site_type_symbol
 _atom_site_label
 _atom_site_symmetry_multiplicity
 _atom_site_fract_x
 _atom_site_fract_y
 _atom_site_fract_z
 _atom_site_occupancy
  Ba  Ba0  1  0.00000000  0.00000000  0.00000000  1
  Ba  Ba1  1  0.00000000  0.50000000  0.50000000  1
  Ba  Ba2  1  0.50000000  0.00000000  0.50000000  1
  Ba  Ba3  1  0.50000000  0.50000000  0.00000000  1
  Sb  Sb4  1  0.75000000  0.00000000  0.25000000  1
  Sb  Sb5  1  0.25000000  0.00000000  0.25000000  1
  Sb  Sb6  1  0.75000000  0.50000000  0.75000000  1
  Sb  Sb7  1  0.25000000  0.50000000  0.75000000  1
  Sb  Sb8  1  0.25000000  0.00000000  0.75000000  1
  Sb  Sb9  1  0.75000000  0.00000000  0.75000000  1
  Sb  Sb10  1  0.25000000  0.50000000  0.25000000  1
  Sb  Sb11  1  0.75000000  0.50000000  0.25000000  1
  Xe  Xe12  1  0.00000000  0.25000000  0.25000000  1
  Xe  Xe13  1  0.50000000  0.00000000  0.00000000  1
  Xe  Xe14  1  0.75000000  0.75000000  0.00000000  1
  Xe  Xe15  1  0.00000000  0.75000000  0.25000000  1
  Xe  Xe16  1  0.75000000  0.25000000  0.00000000  1
  Xe  Xe17  1  0.00000000  0.75000000  0.75000000  1
  Xe  Xe18  1  0.50000000  0.50000000  0.50000000  1
  Xe  Xe19  1  0.75000000  0.25000000  0.50000000  1
  Xe  Xe20  1  0.00000000  0.25000000  0.75000000  1
  Xe  Xe21  1  0.75000000  0.75000000  0.50000000  1
  Xe  Xe22  1  0.50000000  0.25000000  0.75000000  1
  Xe  Xe23  1  0.00000000  0.00000000  0.50000000  1
  Xe  Xe24  1  0.25000000  0.75000000  0.50000000  1
  Xe  Xe25  1  0.50000000  0.75000000  0.75000000  1
  Xe  Xe26  1  0.25000000  0.25000000  0.50000000  1
  Xe  Xe27  1  0.50000000  0.75000000  0.25000000  1
  Xe  Xe28  1  0.00000000  0.50000000  0.00000000  1
  Xe  Xe29  1  0.25000000  0.25000000  0.00000000  1
  Xe  Xe30  1  0.50000000  0.25000000  0.25000000  1
  Xe  Xe31  1  0.25000000  0.75000000  0.00000000  1
  F  F32  1  0.31507450  0.90302550  0.17450400  1
  F  F33  1  0.18492550  0.90302550  0.32549600  1
  F  F34  1  0.62369000  0.00000000  0.32886100  1
  F  F35  1  0.81599450  0.88597750  0.00000000  1
  F  F36  1  0.18492550  0.09697450  0.32549600  1
  F  F37  1  0.00000000  0.31892900  0.37889700  1
  F  F38  1  0.81507450  0.09697450  0.32549600  1
  F  F39  1  0.18400550  0.11402250  0.00000000  1
  F  F40  1  0.50000000  0.31892900  0.12110300  1
  F  F41  1  0.18400550  0.88597750  0.00000000  1
  F  F42  1  0.00000000  0.68107100  0.37889700  1
  F  F43  1  0.68492550  0.09697450  0.17450400  1
  F  F44  1  0.87631000  0.00000000  0.17113900  1
  F  F45  1  0.50000000  0.68107100  0.12110300  1
  F  F46  1  0.50000000  0.85260700  0.00000000  1
  F  F47  1  0.81507450  0.90302550  0.32549600  1
  F  F48  1  0.50000000  0.14739300  0.00000000  1
  F  F49  1  0.68492550  0.90302550  0.17450400  1
  F  F50  1  0.12369000  0.00000000  0.17113900  1
  F  F51  1  0.81599450  0.11402250  0.00000000  1
  F  F52  1  0.31507450  0.09697450  0.17450400  1
  F  F53  1  0.37631000  0.00000000  0.32886100  1
  F  F54  1  0.31507450  0.40302550  0.67450400  1
  F  F55  1  0.18492550  0.40302550  0.82549600  1
  F  F56  1  0.62369000  0.50000000  0.82886100  1
  F  F57  1  0.81599450  0.38597750  0.50000000  1
  F  F58  1  0.18492550  0.59697450  0.82549600  1
  F  F59  1  0.00000000  0.81892900  0.87889700  1
  F  F60  1  0.81507450  0.59697450  0.82549600  1
  F  F61  1  0.18400550  0.61402250  0.50000000  1
  F  F62  1  0.50000000  0.81892900  0.62110300  1
  F  F63  1  0.18400550  0.38597750  0.50000000  1
  F  F64  1  0.00000000  0.18107100  0.87889700  1
  F  F65  1  0.68492550  0.59697450  0.67450400  1
  F  F66  1  0.87631000  0.50000000  0.67113900  1
  F  F67  1  0.50000000  0.18107100  0.62110300  1
  F  F68  1  0.50000000  0.35260700  0.50000000  1
  F  F69  1  0.81507450  0.40302550  0.82549600  1
  F  F70  1  0.50000000  0.64739300  0.50000000  1
  F  F71  1  0.68492550  0.40302550  0.67450400  1
  F  F72  1  0.12369000  0.50000000  0.67113900  1
  F  F73  1  0.81599450  0.61402250  0.50000000  1
  F  F74  1  0.31507450  0.59697450  0.67450400  1
  F  F75  1  0.37631000  0.50000000  0.82886100  1
  F  F76  1  0.81507450  0.90302550  0.67450400  1
  F  F77  1  0.68492550  0.90302550  0.82549600  1
  F  F78  1  0.12369000  0.00000000  0.82886100  1
  F  F79  1  0.31599450  0.88597750  0.50000000  1
  F  F80  1  0.68492550  0.09697450  0.82549600  1
  F  F81  1  0.50000000  0.31892900  0.87889700  1
  F  F82  1  0.31507450  0.09697450  0.82549600  1
  F  F83  1  0.68400550  0.11402250  0.50000000  1
  F  F84  1  0.00000000  0.31892900  0.62110300  1
  F  F85  1  0.68400550  0.88597750  0.50000000  1
  F  F86  1  0.50000000  0.68107100  0.87889700  1
  F  F87  1  0.18492550  0.09697450  0.67450400  1
  F  F88  1  0.37631000  0.00000000  0.67113900  1
  F  F89  1  0.00000000  0.68107100  0.62110300  1
  F  F90  1  0.00000000  0.85260700  0.50000000  1
  F  F91  1  0.31507450  0.90302550  0.82549600  1
  F  F92  1  0.00000000  0.14739300  0.50000000  1
  F  F93  1  0.18492550  0.90302550  0.67450400  1
  F  F94  1  0.62369000  0.00000000  0.67113900  1
  F  F95  1  0.31599450  0.11402250  0.50000000  1
  F  F96  1  0.81507450  0.09697450  0.67450400  1
  F  F97  1  0.87631000  0.00000000  0.82886100  1
  F  F98  1  0.81507450  0.40302550  0.17450400  1
  F  F99  1  0.68492550  0.40302550  0.32549600  1
  F  F100  1  0.12369000  0.50000000  0.32886100  1
  F  F101  1  0.31599450  0.38597750  0.00000000  1
  F  F102  1  0.68492550  0.59697450  0.32549600  1
  F  F103  1  0.50000000  0.81892900  0.37889700  1
  F  F104  1  0.31507450  0.59697450  0.32549600  1
  F  F105  1  0.68400550  0.61402250  0.00000000  1
  F  F106  1  0.00000000  0.81892900  0.12110300  1
  F  F107  1  0.68400550  0.38597750  0.00000000  1
  F  F108  1  0.50000000  0.18107100  0.37889700  1
  F  F109  1  0.18492550  0.59697450  0.17450400  1
  F  F110  1  0.37631000  0.50000000  0.17113900  1
  F  F111  1  0.00000000  0.18107100  0.12110300  1
  F  F112  1  0.00000000  0.35260700  0.00000000  1
  F  F113  1  0.31507450  0.40302550  0.32549600  1
  F  F114  1  0.00000000  0.64739300  0.00000000  1
  F  F115  1  0.18492550  0.40302550  0.17450400  1
  F  F116  1  0.62369000  0.50000000  0.17113900  1
  F  F117  1  0.31599450  0.61402250  0.00000000  1
  F  F118  1  0.81507450  0.59697450  0.17450400  1
  F  F119  1  0.87631000  0.50000000  0.32886100  1
