# generated using pymatgen
data_Li2U3P2O15
_symmetry_space_group_name_H-M   'P 1'
_cell_length_a   7.21445200
_cell_length_b   7.21445200
_cell_length_c   25.38094200
_cell_angle_alpha   90.00000000
_cell_angle_beta   90.00000000
_cell_angle_gamma   90.00000000
_symmetry_Int_Tables_number   1
_chemical_formula_structural   Li2U3P2O15
_chemical_formula_sum   'Li8 U12 P8 O60'
_cell_volume   1321.03533173
_cell_formula_units_Z   4
loop_
 _symmetry_equiv_pos_site_id
 _symmetry_equiv_pos_as_xyz
  1  'x, y, z'
loop_
 _atom_site_type_symbol
 _atom_site_label
 _atom_site_symmetry_multiplicity
 _atom_site_fract_x
 _atom_site_fract_y
 _atom_site_fract_z
 _atom_site_occupancy
  Li  Li0  1  0.00000000  0.00000000  0.31585900  1
  Li  Li1  1  0.50000000  0.00000000  0.06585900  1
  Li  Li2  1  0.50000000  0.00000000  0.43414100  1
  Li  Li3  1  0.50000000  0.50000000  0.18414100  1
  Li  Li4  1  0.50000000  0.50000000  0.81585900  1
  Li  Li5  1  0.00000000  0.50000000  0.56585900  1
  Li  Li6  1  0.00000000  0.50000000  0.93414100  1
  Li  Li7  1  0.00000000  0.00000000  0.68414100  1
  U  U8  1  0.00000000  0.00000000  0.08367900  1
  U  U9  1  0.00000000  0.50000000  0.16632100  1
  U  U10  1  0.50000000  0.50000000  0.41632100  1
  U  U11  1  0.50000000  0.50000000  0.00000000  1
  U  U12  1  0.00000000  0.50000000  0.33367900  1
  U  U13  1  0.50000000  0.00000000  0.25000000  1
  U  U14  1  0.50000000  0.50000000  0.58367900  1
  U  U15  1  0.50000000  0.00000000  0.66632100  1
  U  U16  1  0.00000000  0.00000000  0.91632100  1
  U  U17  1  0.00000000  0.00000000  0.50000000  1
  U  U18  1  0.50000000  0.00000000  0.83367900  1
  U  U19  1  0.00000000  0.50000000  0.75000000  1
  P  P20  1  0.50000000  0.50000000  0.28830500  1
  P  P21  1  0.00000000  0.50000000  0.03830500  1
  P  P22  1  0.00000000  0.50000000  0.46169500  1
  P  P23  1  0.00000000  0.00000000  0.21169500  1
  P  P24  1  0.00000000  0.00000000  0.78830500  1
  P  P25  1  0.50000000  0.00000000  0.53830500  1
  P  P26  1  0.50000000  0.00000000  0.96169500  1
  P  P27  1  0.50000000  0.50000000  0.71169500  1
  O  O28  1  0.25256150  0.50000000  0.16275250  1
  O  O29  1  0.00000000  0.00000000  0.00000000  1
  O  O30  1  0.82819100  0.00000000  0.24854200  1
  O  O31  1  0.33210400  0.50000000  0.32683000  1
  O  O32  1  0.74743850  0.00000000  0.08724750  1
  O  O33  1  0.17180900  0.00000000  0.24854200  1
  O  O34  1  0.00000000  0.67180900  0.49854200  1
  O  O35  1  0.00000000  0.75256150  0.33724750  1
  O  O36  1  0.00000000  0.66789600  0.07683000  1
  O  O37  1  0.00000000  0.33210400  0.07683000  1
  O  O38  1  0.25256150  0.00000000  0.08724750  1
  O  O39  1  0.00000000  0.24743850  0.33724750  1
  O  O40  1  0.83210400  0.50000000  0.42317000  1
  O  O41  1  0.00000000  0.32819100  0.49854200  1
  O  O42  1  0.74743850  0.50000000  0.16275250  1
  O  O43  1  0.50000000  0.00000000  0.32088800  1
  O  O44  1  0.50000000  0.24743850  0.41275250  1
  O  O45  1  0.00000000  0.00000000  0.42911200  1
  O  O46  1  0.00000000  0.83210400  0.17317000  1
  O  O47  1  0.50000000  0.67180900  0.25145800  1
  O  O48  1  0.16789600  0.50000000  0.42317000  1
  O  O49  1  0.00000000  0.16789600  0.17317000  1
  O  O50  1  0.17180900  0.50000000  0.00145800  1
  O  O51  1  0.50000000  0.00000000  0.17911200  1
  O  O52  1  0.66789600  0.50000000  0.32683000  1
  O  O53  1  0.50000000  0.50000000  0.07088800  1
  O  O54  1  0.50000000  0.75256150  0.41275250  1
  O  O55  1  0.50000000  0.32819100  0.25145800  1
  O  O56  1  0.82819100  0.50000000  0.00145800  1
  O  O57  1  0.00000000  0.50000000  0.25000000  1
  O  O58  1  0.75256150  0.00000000  0.66275250  1
  O  O59  1  0.50000000  0.50000000  0.50000000  1
  O  O60  1  0.32819100  0.50000000  0.74854200  1
  O  O61  1  0.83210400  0.00000000  0.82683000  1
  O  O62  1  0.24743850  0.50000000  0.58724750  1
  O  O63  1  0.67180900  0.50000000  0.74854200  1
  O  O64  1  0.50000000  0.17180900  0.99854200  1
  O  O65  1  0.50000000  0.25256150  0.83724750  1
  O  O66  1  0.50000000  0.16789600  0.57683000  1
  O  O67  1  0.50000000  0.83210400  0.57683000  1
  O  O68  1  0.75256150  0.50000000  0.58724750  1
  O  O69  1  0.50000000  0.74743850  0.83724750  1
  O  O70  1  0.33210400  0.00000000  0.92317000  1
  O  O71  1  0.50000000  0.82819100  0.99854200  1
  O  O72  1  0.24743850  0.00000000  0.66275250  1
  O  O73  1  0.00000000  0.50000000  0.82088800  1
  O  O74  1  0.00000000  0.74743850  0.91275250  1
  O  O75  1  0.50000000  0.50000000  0.92911200  1
  O  O76  1  0.50000000  0.33210400  0.67317000  1
  O  O77  1  0.00000000  0.17180900  0.75145800  1
  O  O78  1  0.66789600  0.00000000  0.92317000  1
  O  O79  1  0.50000000  0.66789600  0.67317000  1
  O  O80  1  0.67180900  0.00000000  0.50145800  1
  O  O81  1  0.00000000  0.50000000  0.67911200  1
  O  O82  1  0.16789600  0.00000000  0.82683000  1
  O  O83  1  0.00000000  0.00000000  0.57088800  1
  O  O84  1  0.00000000  0.25256150  0.91275250  1
  O  O85  1  0.00000000  0.82819100  0.75145800  1
  O  O86  1  0.32819100  0.00000000  0.50145800  1
  O  O87  1  0.50000000  0.00000000  0.75000000  1
