# generated using pymatgen
data_Sr3SiO5
_symmetry_space_group_name_H-M   'P 1'
_cell_length_a   7.12717100
_cell_length_b   7.12717100
_cell_length_c   10.83814300
_cell_angle_alpha   90.00000000
_cell_angle_beta   90.00000000
_cell_angle_gamma   90.00000000
_symmetry_Int_Tables_number   1
_chemical_formula_structural   Sr3SiO5
_chemical_formula_sum   'Sr12 Si4 O20'
_cell_volume   550.54045124
_cell_formula_units_Z   4
loop_
 _symmetry_equiv_pos_site_id
 _symmetry_equiv_pos_as_xyz
  1  'x, y, z'
loop_
 _atom_site_type_symbol
 _atom_site_label
 _atom_site_symmetry_multiplicity
 _atom_site_fract_x
 _atom_site_fract_y
 _atom_site_fract_z
 _atom_site_occupancy
  Sr  Sr0  1  0.50000000  0.00000000  0.48658400  1
  Sr  Sr1  1  0.00000000  0.50000000  0.01341600  1
  Sr  Sr2  1  0.00000000  0.50000000  0.51341600  1
  Sr  Sr3  1  0.50000000  0.00000000  0.98658400  1
  Sr  Sr4  1  0.19732900  0.19732900  0.25000000  1
  Sr  Sr5  1  0.30267100  0.69732900  0.25000000  1
  Sr  Sr6  1  0.69732900  0.30267100  0.25000000  1
  Sr  Sr7  1  0.80267100  0.80267100  0.25000000  1
  Sr  Sr8  1  0.30267100  0.30267100  0.75000000  1
  Sr  Sr9  1  0.19732900  0.80267100  0.75000000  1
  Sr  Sr10  1  0.80267100  0.19732900  0.75000000  1
  Sr  Sr11  1  0.69732900  0.69732900  0.75000000  1
  Si  Si12  1  0.50000000  0.50000000  0.50000000  1
  Si  Si13  1  0.00000000  0.00000000  0.50000000  1
  Si  Si14  1  0.00000000  0.00000000  0.00000000  1
  Si  Si15  1  0.50000000  0.50000000  0.00000000  1
  O  O16  1  0.50000000  0.00000000  0.71269600  1
  O  O17  1  0.00000000  0.50000000  0.78730400  1
  O  O18  1  0.00000000  0.50000000  0.28730400  1
  O  O19  1  0.50000000  0.00000000  0.21269600  1
  O  O20  1  0.91929100  0.16627400  0.09225700  1
  O  O21  1  0.08070900  0.83372600  0.09225700  1
  O  O22  1  0.16627400  0.91929100  0.40774300  1
  O  O23  1  0.66627400  0.58070900  0.09225700  1
  O  O24  1  0.33372600  0.41929100  0.09225700  1
  O  O25  1  0.58070900  0.66627400  0.40774300  1
  O  O26  1  0.41929100  0.33372600  0.40774300  1
  O  O27  1  0.83372600  0.08070900  0.40774300  1
  O  O28  1  0.58070900  0.33372600  0.90774300  1
  O  O29  1  0.41929100  0.66627400  0.90774300  1
  O  O30  1  0.33372600  0.58070900  0.59225700  1
  O  O31  1  0.83372600  0.91929100  0.90774300  1
  O  O32  1  0.66627400  0.41929100  0.59225700  1
  O  O33  1  0.08070900  0.16627400  0.59225700  1
  O  O34  1  0.91929100  0.83372600  0.59225700  1
  O  O35  1  0.16627400  0.08070900  0.90774300  1
