# generated using pymatgen
data_ErPS4
_symmetry_space_group_name_H-M   'P 1'
_cell_length_a   10.74733000
_cell_length_b   10.74733000
_cell_length_c   19.01666600
_cell_angle_alpha   90.00000000
_cell_angle_beta   90.00000000
_cell_angle_gamma   90.00000000
_symmetry_Int_Tables_number   1
_chemical_formula_structural   ErPS4
_chemical_formula_sum   'Er16 P16 S64'
_cell_volume   2196.52194848
_cell_formula_units_Z   16
loop_
 _symmetry_equiv_pos_site_id
 _symmetry_equiv_pos_as_xyz
  1  'x, y, z'
loop_
 _atom_site_type_symbol
 _atom_site_label
 _atom_site_symmetry_multiplicity
 _atom_site_fract_x
 _atom_site_fract_y
 _atom_site_fract_z
 _atom_site_occupancy
  Er  Er0  1  0.00000000  0.00000000  0.00000000  1
  Er  Er1  1  0.00000000  0.50000000  0.25000000  1
  Er  Er2  1  0.50000000  0.00000000  0.25000000  1
  Er  Er3  1  0.50000000  0.50000000  0.00000000  1
  Er  Er4  1  0.50000000  0.50000000  0.25000000  1
  Er  Er5  1  0.00000000  0.50000000  0.00000000  1
  Er  Er6  1  0.50000000  0.00000000  0.00000000  1
  Er  Er7  1  0.00000000  0.00000000  0.25000000  1
  Er  Er8  1  0.50000000  0.50000000  0.50000000  1
  Er  Er9  1  0.50000000  0.00000000  0.75000000  1
  Er  Er10  1  0.00000000  0.50000000  0.75000000  1
  Er  Er11  1  0.00000000  0.00000000  0.50000000  1
  Er  Er12  1  0.00000000  0.00000000  0.75000000  1
  Er  Er13  1  0.50000000  0.00000000  0.50000000  1
  Er  Er14  1  0.00000000  0.50000000  0.50000000  1
  Er  Er15  1  0.50000000  0.50000000  0.75000000  1
  P  P16  1  0.03803800  0.75000000  0.37500000  1
  P  P17  1  0.53803800  0.75000000  0.37500000  1
  P  P18  1  0.75000000  0.53803800  0.12500000  1
  P  P19  1  0.25000000  0.46196200  0.12500000  1
  P  P20  1  0.46196200  0.25000000  0.37500000  1
  P  P21  1  0.96196200  0.25000000  0.37500000  1
  P  P22  1  0.25000000  0.96196200  0.12500000  1
  P  P23  1  0.75000000  0.03803800  0.12500000  1
  P  P24  1  0.53803800  0.25000000  0.87500000  1
  P  P25  1  0.03803800  0.25000000  0.87500000  1
  P  P26  1  0.25000000  0.03803800  0.62500000  1
  P  P27  1  0.75000000  0.96196200  0.62500000  1
  P  P28  1  0.96196200  0.75000000  0.87500000  1
  P  P29  1  0.46196200  0.75000000  0.87500000  1
  P  P30  1  0.75000000  0.46196200  0.62500000  1
  P  P31  1  0.25000000  0.53803800  0.62500000  1
  S  S32  1  0.08628300  0.36416300  0.12178900  1
  S  S33  1  0.91371700  0.63583700  0.12178900  1
  S  S34  1  0.36416300  0.41371700  0.37178900  1
  S  S35  1  0.63583700  0.58628300  0.37178900  1
  S  S36  1  0.41371700  0.36416300  0.12821100  1
  S  S37  1  0.58628300  0.63583700  0.12821100  1
  S  S38  1  0.63583700  0.91371700  0.37821100  1
  S  S39  1  0.36416300  0.08628300  0.37821100  1
  S  S40  1  0.25427550  0.06424750  0.21552650  1
  S  S41  1  0.93575250  0.75427550  0.46552650  1
  S  S42  1  0.06424750  0.24572450  0.46552650  1
  S  S43  1  0.75427550  0.93575250  0.03447350  1
  S  S44  1  0.24572450  0.06424750  0.03447350  1
  S  S45  1  0.06424750  0.25427550  0.28447350  1
  S  S46  1  0.93575250  0.74572450  0.28447350  1
  S  S47  1  0.74572450  0.93575250  0.21552650  1
  S  S48  1  0.74572450  0.43575250  0.03447350  1
  S  S49  1  0.56424750  0.24572450  0.28447350  1
  S  S50  1  0.43575250  0.75427550  0.28447350  1
  S  S51  1  0.24572450  0.56424750  0.21552650  1
  S  S52  1  0.75427550  0.43575250  0.21552650  1
  S  S53  1  0.43575250  0.74572450  0.46552650  1
  S  S54  1  0.56424750  0.25427550  0.46552650  1
  S  S55  1  0.25427550  0.56424750  0.03447350  1
  S  S56  1  0.08628300  0.86416300  0.12821100  1
  S  S57  1  0.13583700  0.58628300  0.37821100  1
  S  S58  1  0.86416300  0.41371700  0.37821100  1
  S  S59  1  0.58628300  0.13583700  0.12178900  1
  S  S60  1  0.41371700  0.86416300  0.12178900  1
  S  S61  1  0.86416300  0.08628300  0.37178900  1
  S  S62  1  0.13583700  0.91371700  0.37178900  1
  S  S63  1  0.91371700  0.13583700  0.12821100  1
  S  S64  1  0.58628300  0.86416300  0.62178900  1
  S  S65  1  0.41371700  0.13583700  0.62178900  1
  S  S66  1  0.86416300  0.91371700  0.87178900  1
  S  S67  1  0.13583700  0.08628300  0.87178900  1
  S  S68  1  0.91371700  0.86416300  0.62821100  1
  S  S69  1  0.08628300  0.13583700  0.62821100  1
  S  S70  1  0.13583700  0.41371700  0.87821100  1
  S  S71  1  0.86416300  0.58628300  0.87821100  1
  S  S72  1  0.75427550  0.56424750  0.71552650  1
  S  S73  1  0.43575250  0.25427550  0.96552650  1
  S  S74  1  0.56424750  0.74572450  0.96552650  1
  S  S75  1  0.25427550  0.43575250  0.53447350  1
  S  S76  1  0.74572450  0.56424750  0.53447350  1
  S  S77  1  0.56424750  0.75427550  0.78447350  1
  S  S78  1  0.43575250  0.24572450  0.78447350  1
  S  S79  1  0.24572450  0.43575250  0.71552650  1
  S  S80  1  0.24572450  0.93575250  0.53447350  1
  S  S81  1  0.06424750  0.74572450  0.78447350  1
  S  S82  1  0.93575250  0.25427550  0.78447350  1
  S  S83  1  0.74572450  0.06424750  0.71552650  1
  S  S84  1  0.25427550  0.93575250  0.71552650  1
  S  S85  1  0.93575250  0.24572450  0.96552650  1
  S  S86  1  0.06424750  0.75427550  0.96552650  1
  S  S87  1  0.75427550  0.06424750  0.53447350  1
  S  S88  1  0.58628300  0.36416300  0.62821100  1
  S  S89  1  0.63583700  0.08628300  0.87821100  1
  S  S90  1  0.36416300  0.91371700  0.87821100  1
  S  S91  1  0.08628300  0.63583700  0.62178900  1
  S  S92  1  0.91371700  0.36416300  0.62178900  1
  S  S93  1  0.36416300  0.58628300  0.87178900  1
  S  S94  1  0.63583700  0.41371700  0.87178900  1
  S  S95  1  0.41371700  0.63583700  0.62821100  1
