# generated using pymatgen
data_Dy2Cu(BO2)8
_symmetry_space_group_name_H-M   'P 1'
_cell_length_a   6.26346200
_cell_length_b   8.49037200
_cell_length_c   10.26875985
_cell_angle_alpha   90.00000000
_cell_angle_beta   90.30953651
_cell_angle_gamma   90.00000000
_symmetry_Int_Tables_number   1
_chemical_formula_structural   Dy2Cu(BO2)8
_chemical_formula_sum   'Dy4 Cu2 B16 O32'
_cell_volume   546.07566794
_cell_formula_units_Z   2
loop_
 _symmetry_equiv_pos_site_id
 _symmetry_equiv_pos_as_xyz
  1  'x, y, z'
loop_
 _atom_site_type_symbol
 _atom_site_label
 _atom_site_symmetry_multiplicity
 _atom_site_fract_x
 _atom_site_fract_y
 _atom_site_fract_z
 _atom_site_occupancy
  Dy  Dy0  1  0.49539200  0.00626800  0.18212000  1
  Dy  Dy1  1  0.00460800  0.50626800  0.81788000  1
  Dy  Dy2  1  0.99539200  0.49373200  0.18212000  1
  Dy  Dy3  1  0.50460800  0.99373200  0.81788000  1
  Cu  Cu4  1  0.00000000  0.50000000  0.50000000  1
  Cu  Cu5  1  0.50000000  0.00000000  0.50000000  1
  B  B6  1  0.88416800  0.80922500  0.61846900  1
  B  B7  1  0.11583200  0.19077500  0.38153100  1
  B  B8  1  0.61583200  0.30922500  0.38153100  1
  B  B9  1  0.88733700  0.18225700  0.99989900  1
  B  B10  1  0.37946100  0.69331100  0.37332000  1
  B  B11  1  0.62053900  0.30668900  0.62668000  1
  B  B12  1  0.49439900  0.49637400  0.19369800  1
  B  B13  1  0.11266300  0.81774300  0.00010100  1
  B  B14  1  0.38733700  0.31774300  0.99989900  1
  B  B15  1  0.50560100  0.50362600  0.80630200  1
  B  B16  1  0.87946100  0.80668900  0.37332000  1
  B  B17  1  0.00560100  0.99637400  0.80630200  1
  B  B18  1  0.99439900  0.00362600  0.19369800  1
  B  B19  1  0.61266300  0.68225700  0.00010100  1
  B  B20  1  0.38416800  0.69077500  0.61846900  1
  B  B21  1  0.12053900  0.19331100  0.62668000  1
  O  O22  1  0.06054600  0.66344100  0.00702800  1
  O  O23  1  0.64820000  0.40916800  0.27532800  1
  O  O24  1  0.35007400  0.62580800  0.49558300  1
  O  O25  1  0.34815800  0.38888800  0.12126200  1
  O  O26  1  0.35180000  0.59083200  0.72467200  1
  O  O27  1  0.05900200  0.34256300  0.36254800  1
  O  O28  1  0.64992600  0.37419200  0.50441700  1
  O  O29  1  0.14992600  0.12580800  0.50441700  1
  O  O30  1  0.85180000  0.90916800  0.72467200  1
  O  O31  1  0.93721500  0.65493600  0.35675600  1
  O  O32  1  0.35815800  0.41288800  0.89014900  1
  O  O33  1  0.93945400  0.33655900  0.99297200  1
  O  O34  1  0.85815800  0.08711200  0.89014900  1
  O  O35  1  0.14184200  0.91288800  0.10985100  1
  O  O36  1  0.84815800  0.11111200  0.12126200  1
  O  O37  1  0.65184200  0.61111200  0.87873800  1
  O  O38  1  0.15691800  0.09532300  0.73434600  1
  O  O39  1  0.06278500  0.34506400  0.64324400  1
  O  O40  1  0.43945400  0.16344100  0.99297200  1
  O  O41  1  0.55900200  0.15743700  0.36254800  1
  O  O42  1  0.43721500  0.84506400  0.35675600  1
  O  O43  1  0.85007400  0.87419200  0.49558300  1
  O  O44  1  0.56054600  0.83655900  0.00702800  1
  O  O45  1  0.34308200  0.59532300  0.26565400  1
  O  O46  1  0.64184200  0.58711200  0.10985100  1
  O  O47  1  0.94099800  0.65743700  0.63745200  1
  O  O48  1  0.15184200  0.88888800  0.87873800  1
  O  O49  1  0.56278500  0.15493600  0.64324400  1
  O  O50  1  0.84308200  0.90467700  0.26565400  1
  O  O51  1  0.14820000  0.09083200  0.27532800  1
  O  O52  1  0.44099800  0.84256300  0.63745200  1
  O  O53  1  0.65691800  0.40467700  0.73434600  1
