# generated using pymatgen
data_PrAl3(BO3)4
_symmetry_space_group_name_H-M   'P 1'
_cell_length_a   7.34726600
_cell_length_b   9.44564800
_cell_length_c   11.27052401
_cell_angle_alpha   90.00000000
_cell_angle_beta   103.68889149
_cell_angle_gamma   90.00000000
_symmetry_Int_Tables_number   1
_chemical_formula_structural   PrAl3(BO3)4
_chemical_formula_sum   'Pr4 Al12 B16 O48'
_cell_volume   759.95330684
_cell_formula_units_Z   4
loop_
 _symmetry_equiv_pos_site_id
 _symmetry_equiv_pos_as_xyz
  1  'x, y, z'
loop_
 _atom_site_type_symbol
 _atom_site_label
 _atom_site_symmetry_multiplicity
 _atom_site_fract_x
 _atom_site_fract_y
 _atom_site_fract_z
 _atom_site_occupancy
  Pr  Pr0  1  0.50000000  0.46234900  0.75000000  1
  Pr  Pr1  1  0.50000000  0.53765100  0.25000000  1
  Pr  Pr2  1  0.00000000  0.96234900  0.75000000  1
  Pr  Pr3  1  0.00000000  0.03765100  0.25000000  1
  Al  Al4  1  0.44472850  0.24926950  0.47155100  1
  Al  Al5  1  0.50000000  0.91074500  0.75000000  1
  Al  Al6  1  0.55527150  0.75073050  0.52844900  1
  Al  Al7  1  0.50000000  0.08925500  0.25000000  1
  Al  Al8  1  0.55527150  0.24926950  0.02844900  1
  Al  Al9  1  0.44472850  0.75073050  0.97155100  1
  Al  Al10  1  0.94472850  0.74926950  0.47155100  1
  Al  Al11  1  0.00000000  0.41074500  0.75000000  1
  Al  Al12  1  0.05527150  0.25073050  0.52844900  1
  Al  Al13  1  0.00000000  0.58925500  0.25000000  1
  Al  Al14  1  0.05527150  0.74926950  0.02844900  1
  Al  Al15  1  0.94472850  0.25073050  0.97155100  1
  B  B16  1  0.30716400  0.18456700  0.77791200  1
  B  B17  1  0.74814750  0.02904850  0.49407100  1
  B  B18  1  0.69283600  0.18456700  0.72208800  1
  B  B19  1  0.25185250  0.97095150  0.50592900  1
  B  B20  1  0.30716400  0.81543300  0.27791200  1
  B  B21  1  0.74814750  0.97095150  0.99407100  1
  B  B22  1  0.69283600  0.81543300  0.22208800  1
  B  B23  1  0.25185250  0.02904850  0.00592900  1
  B  B24  1  0.80716400  0.68456700  0.77791200  1
  B  B25  1  0.24814750  0.52904850  0.49407100  1
  B  B26  1  0.19283600  0.68456700  0.72208800  1
  B  B27  1  0.75185250  0.47095150  0.50592900  1
  B  B28  1  0.80716400  0.31543300  0.27791200  1
  B  B29  1  0.24814750  0.47095150  0.99407100  1
  B  B30  1  0.19283600  0.31543300  0.22208800  1
  B  B31  1  0.75185250  0.52904850  0.00592900  1
  O  O32  1  0.31300850  0.95816650  0.25713600  1
  O  O33  1  0.59583950  0.59911350  0.93958200  1
  O  O34  1  0.43833300  0.74411800  0.36318900  1
  O  O35  1  0.66005150  0.76248450  0.70536800  1
  O  O36  1  0.59473000  0.10189300  0.42538400  1
  O  O37  1  0.40416050  0.40088650  0.06041800  1
  O  O38  1  0.68699150  0.95816650  0.24286400  1
  O  O39  1  0.43833300  0.25588200  0.86318900  1
  O  O40  1  0.40416050  0.59911350  0.56041800  1
  O  O41  1  0.66005150  0.23751550  0.20536800  1
  O  O42  1  0.40527000  0.89810700  0.57461600  1
  O  O43  1  0.68699150  0.04183350  0.74286400  1
  O  O44  1  0.56166700  0.25588200  0.63681100  1
  O  O45  1  0.75085100  0.88099900  0.50434500  1
  O  O46  1  0.33994850  0.76248450  0.79463200  1
  O  O47  1  0.40527000  0.10189300  0.07461600  1
  O  O48  1  0.24914900  0.88099900  0.99565500  1
  O  O49  1  0.31300850  0.04183350  0.75713600  1
  O  O50  1  0.24914900  0.11900100  0.49565500  1
  O  O51  1  0.59473000  0.89810700  0.92538400  1
  O  O52  1  0.33994850  0.23751550  0.29463200  1
  O  O53  1  0.59583950  0.40088650  0.43958200  1
  O  O54  1  0.56166700  0.74411800  0.13681100  1
  O  O55  1  0.75085100  0.11900100  0.00434500  1
  O  O56  1  0.81300850  0.45816650  0.25713600  1
  O  O57  1  0.09583950  0.09911350  0.93958200  1
  O  O58  1  0.93833300  0.24411800  0.36318900  1
  O  O59  1  0.16005150  0.26248450  0.70536800  1
  O  O60  1  0.09473000  0.60189300  0.42538400  1
  O  O61  1  0.90416050  0.90088650  0.06041800  1
  O  O62  1  0.18699150  0.45816650  0.24286400  1
  O  O63  1  0.93833300  0.75588200  0.86318900  1
  O  O64  1  0.90416050  0.09911350  0.56041800  1
  O  O65  1  0.16005150  0.73751550  0.20536800  1
  O  O66  1  0.90527000  0.39810700  0.57461600  1
  O  O67  1  0.18699150  0.54183350  0.74286400  1
  O  O68  1  0.06166700  0.75588200  0.63681100  1
  O  O69  1  0.25085100  0.38099900  0.50434500  1
  O  O70  1  0.83994850  0.26248450  0.79463200  1
  O  O71  1  0.90527000  0.60189300  0.07461600  1
  O  O72  1  0.74914900  0.38099900  0.99565500  1
  O  O73  1  0.81300850  0.54183350  0.75713600  1
  O  O74  1  0.74914900  0.61900100  0.49565500  1
  O  O75  1  0.09473000  0.39810700  0.92538400  1
  O  O76  1  0.83994850  0.73751550  0.29463200  1
  O  O77  1  0.09583950  0.90088650  0.43958200  1
  O  O78  1  0.06166700  0.24411800  0.13681100  1
  O  O79  1  0.25085100  0.61900100  0.00434500  1
