# generated using pymatgen
data_Ca3(GaN2)2
_symmetry_space_group_name_H-M   'P 1'
_cell_length_a   10.71804000
_cell_length_b   8.39961800
_cell_length_c   5.60355122
_cell_angle_alpha   90.00000000
_cell_angle_beta   91.10983970
_cell_angle_gamma   90.00000000
_symmetry_Int_Tables_number   1
_chemical_formula_structural   Ca3(GaN2)2
_chemical_formula_sum   'Ca12 Ga8 N16'
_cell_volume   504.37874217
_cell_formula_units_Z   4
loop_
 _symmetry_equiv_pos_site_id
 _symmetry_equiv_pos_as_xyz
  1  'x, y, z'
loop_
 _atom_site_type_symbol
 _atom_site_label
 _atom_site_symmetry_multiplicity
 _atom_site_fract_x
 _atom_site_fract_y
 _atom_site_fract_z
 _atom_site_occupancy
  Ca  Ca0  1  0.61625550  0.36461450  0.54250800  1
  Ca  Ca1  1  0.61625550  0.63538550  0.04250800  1
  Ca  Ca2  1  0.50000000  0.10046400  0.25000000  1
  Ca  Ca3  1  0.38374450  0.63538550  0.45749200  1
  Ca  Ca4  1  0.50000000  0.89953600  0.75000000  1
  Ca  Ca5  1  0.38374450  0.36461450  0.95749200  1
  Ca  Ca6  1  0.11625550  0.86461450  0.54250800  1
  Ca  Ca7  1  0.11625550  0.13538550  0.04250800  1
  Ca  Ca8  1  0.00000000  0.60046400  0.25000000  1
  Ca  Ca9  1  0.88374450  0.13538550  0.45749200  1
  Ca  Ca10  1  0.00000000  0.39953600  0.75000000  1
  Ca  Ca11  1  0.88374450  0.86461450  0.95749200  1
  Ga  Ga12  1  0.70292550  0.11923650  0.90546300  1
  Ga  Ga13  1  0.70292550  0.88076350  0.40546300  1
  Ga  Ga14  1  0.29707450  0.11923650  0.59453700  1
  Ga  Ga15  1  0.29707450  0.88076350  0.09453700  1
  Ga  Ga16  1  0.20292550  0.61923650  0.90546300  1
  Ga  Ga17  1  0.20292550  0.38076350  0.40546300  1
  Ga  Ga18  1  0.79707450  0.61923650  0.59453700  1
  Ga  Ga19  1  0.79707450  0.38076350  0.09453700  1
  N  N20  1  0.34271950  0.91814850  0.43256400  1
  N  N21  1  0.61731200  0.67457900  0.52022400  1
  N  N22  1  0.34271950  0.08185150  0.93256400  1
  N  N23  1  0.65728050  0.08185150  0.56743600  1
  N  N24  1  0.38268800  0.67457900  0.97977600  1
  N  N25  1  0.65728050  0.91814850  0.06743600  1
  N  N26  1  0.61731200  0.32542100  0.02022400  1
  N  N27  1  0.38268800  0.32542100  0.47977600  1
  N  N28  1  0.84271950  0.41814850  0.43256400  1
  N  N29  1  0.11731200  0.17457900  0.52022400  1
  N  N30  1  0.84271950  0.58185150  0.93256400  1
  N  N31  1  0.15728050  0.58185150  0.56743600  1
  N  N32  1  0.88268800  0.17457900  0.97977600  1
  N  N33  1  0.15728050  0.41814850  0.06743600  1
  N  N34  1  0.11731200  0.82542100  0.02022400  1
  N  N35  1  0.88268800  0.82542100  0.47977600  1
