# generated using pymatgen
data_Nd2Te4O11
_symmetry_space_group_name_H-M   'P 1'
_cell_length_a   12.77031800
_cell_length_b   5.30343800
_cell_length_c   16.66257248
_cell_angle_alpha   90.00000000
_cell_angle_beta   104.60251239
_cell_angle_gamma   90.00000000
_symmetry_Int_Tables_number   1
_chemical_formula_structural   Nd2Te4O11
_chemical_formula_sum   'Nd8 Te16 O44'
_cell_volume   1092.04656022
_cell_formula_units_Z   4
loop_
 _symmetry_equiv_pos_site_id
 _symmetry_equiv_pos_as_xyz
  1  'x, y, z'
loop_
 _atom_site_type_symbol
 _atom_site_label
 _atom_site_symmetry_multiplicity
 _atom_site_fract_x
 _atom_site_fract_y
 _atom_site_fract_z
 _atom_site_occupancy
  Nd  Nd0  1  0.88191500  0.74859100  0.46209500  1
  Nd  Nd1  1  0.61808500  0.24859100  0.03790500  1
  Nd  Nd2  1  0.11808500  0.25140900  0.53790500  1
  Nd  Nd3  1  0.38191500  0.75140900  0.96209500  1
  Nd  Nd4  1  0.38191500  0.24859100  0.46209500  1
  Nd  Nd5  1  0.11808500  0.74859100  0.03790500  1
  Nd  Nd6  1  0.61808500  0.75140900  0.53790500  1
  Nd  Nd7  1  0.88191500  0.25140900  0.96209500  1
  Te  Te8  1  0.88168550  0.27791150  0.30108400  1
  Te  Te9  1  0.61831450  0.77791150  0.19891600  1
  Te  Te10  1  0.11831450  0.72208850  0.69891600  1
  Te  Te11  1  0.38168550  0.22208850  0.80108400  1
  Te  Te12  1  0.86712300  0.71867300  0.12521900  1
  Te  Te13  1  0.13287700  0.71867300  0.37478100  1
  Te  Te14  1  0.13287700  0.28132700  0.87478100  1
  Te  Te15  1  0.86712300  0.28132700  0.62521900  1
  Te  Te16  1  0.38168550  0.77791150  0.30108400  1
  Te  Te17  1  0.11831450  0.27791150  0.19891600  1
  Te  Te18  1  0.61831450  0.22208850  0.69891600  1
  Te  Te19  1  0.88168550  0.72208850  0.80108400  1
  Te  Te20  1  0.36712300  0.21867300  0.12521900  1
  Te  Te21  1  0.63287700  0.21867300  0.37478100  1
  Te  Te22  1  0.63287700  0.78132700  0.87478100  1
  Te  Te23  1  0.36712300  0.78132700  0.62521900  1
  O  O24  1  0.00000000  0.14995600  0.25000000  1
  O  O25  1  0.00000000  0.85004400  0.75000000  1
  O  O26  1  0.64721900  0.45106600  0.16949400  1
  O  O27  1  0.85278100  0.95106600  0.33050600  1
  O  O28  1  0.35278100  0.54893400  0.83050600  1
  O  O29  1  0.14721900  0.04893400  0.66949400  1
  O  O30  1  0.02407050  0.41379250  0.09976400  1
  O  O31  1  0.97592950  0.41379250  0.40023600  1
  O  O32  1  0.97592950  0.58620750  0.90023600  1
  O  O33  1  0.02407050  0.58620750  0.59976400  1
  O  O34  1  0.92827350  0.88349150  0.04657900  1
  O  O35  1  0.07172650  0.88349150  0.45342100  1
  O  O36  1  0.24651050  0.56663250  0.62675700  1
  O  O37  1  0.25348950  0.06663250  0.87324300  1
  O  O38  1  0.75348950  0.43336750  0.37324300  1
  O  O39  1  0.74651050  0.93336750  0.12675700  1
  O  O40  1  0.79176100  0.53945100  0.55445900  1
  O  O41  1  0.20823900  0.53945100  0.94554100  1
  O  O42  1  0.20823900  0.46054900  0.44554100  1
  O  O43  1  0.79176100  0.46054900  0.05445900  1
  O  O44  1  0.92827350  0.11650850  0.54657900  1
  O  O45  1  0.07172650  0.11650850  0.95342100  1
  O  O46  1  0.50000000  0.64995600  0.25000000  1
  O  O47  1  0.50000000  0.35004400  0.75000000  1
  O  O48  1  0.14721900  0.95106600  0.16949400  1
  O  O49  1  0.35278100  0.45106600  0.33050600  1
  O  O50  1  0.85278100  0.04893400  0.83050600  1
  O  O51  1  0.64721900  0.54893400  0.66949400  1
  O  O52  1  0.52407050  0.91379250  0.09976400  1
  O  O53  1  0.47592950  0.91379250  0.40023600  1
  O  O54  1  0.47592950  0.08620750  0.90023600  1
  O  O55  1  0.52407050  0.08620750  0.59976400  1
  O  O56  1  0.42827350  0.38349150  0.04657900  1
  O  O57  1  0.57172650  0.38349150  0.45342100  1
  O  O58  1  0.74651050  0.06663250  0.62675700  1
  O  O59  1  0.75348950  0.56663250  0.87324300  1
  O  O60  1  0.25348950  0.93336750  0.37324300  1
  O  O61  1  0.24651050  0.43336750  0.12675700  1
  O  O62  1  0.29176100  0.03945100  0.55445900  1
  O  O63  1  0.70823900  0.03945100  0.94554100  1
  O  O64  1  0.70823900  0.96054900  0.44554100  1
  O  O65  1  0.29176100  0.96054900  0.05445900  1
  O  O66  1  0.42827350  0.61650850  0.54657900  1
  O  O67  1  0.57172650  0.61650850  0.95342100  1
