# generated using pymatgen
data_NbI3O
_symmetry_space_group_name_H-M   'P 1'
_cell_length_a   15.60095600
_cell_length_b   4.00830800
_cell_length_c   13.21197146
_cell_angle_alpha   90.00000000
_cell_angle_beta   121.86474944
_cell_angle_gamma   90.00000000
_symmetry_Int_Tables_number   1
_chemical_formula_structural   NbI3O
_chemical_formula_sum   'Nb4 I12 O4'
_cell_volume   701.68037727
_cell_formula_units_Z   4
loop_
 _symmetry_equiv_pos_site_id
 _symmetry_equiv_pos_as_xyz
  1  'x, y, z'
loop_
 _atom_site_type_symbol
 _atom_site_label
 _atom_site_symmetry_multiplicity
 _atom_site_fract_x
 _atom_site_fract_y
 _atom_site_fract_z
 _atom_site_occupancy
  Nb  Nb0  1  0.37582750  0.44535950  0.80412000  1
  Nb  Nb1  1  0.62417250  0.44535950  0.19588000  1
  Nb  Nb2  1  0.87582750  0.94535950  0.80412000  1
  Nb  Nb3  1  0.12417250  0.94535950  0.19588000  1
  I  I4  1  0.17645850  0.49673350  0.71392100  1
  I  I5  1  0.90420800  0.00262300  0.04256100  1
  I  I6  1  0.10829150  0.99624050  0.38764500  1
  I  I7  1  0.09579200  0.00262300  0.95743900  1
  I  I8  1  0.82354150  0.49673350  0.28607900  1
  I  I9  1  0.89170850  0.99624050  0.61235500  1
  I  I10  1  0.67645850  0.99673350  0.71392100  1
  I  I11  1  0.40420800  0.50262300  0.04256100  1
  I  I12  1  0.60829150  0.49624050  0.38764500  1
  I  I13  1  0.59579200  0.50262300  0.95743900  1
  I  I14  1  0.32354150  0.99673350  0.28607900  1
  I  I15  1  0.39170850  0.49624050  0.61235500  1
  O  O16  1  0.61933650  0.98956850  0.18837300  1
  O  O17  1  0.38066350  0.98956850  0.81162700  1
  O  O18  1  0.11933650  0.48956850  0.18837300  1
  O  O19  1  0.88066350  0.48956850  0.81162700  1
