# generated using pymatgen
data_Na4Ca(PO3)6
_symmetry_space_group_name_H-M   'P 1'
_cell_length_a   13.28039800
_cell_length_b   8.11306000
_cell_length_c   14.46879915
_cell_angle_alpha   90.00000000
_cell_angle_beta   94.33238075
_cell_angle_gamma   90.00000000
_symmetry_Int_Tables_number   1
_chemical_formula_structural   Na4Ca(PO3)6
_chemical_formula_sum   'Na16 Ca4 P24 O72'
_cell_volume   1554.48142503
_cell_formula_units_Z   4
loop_
 _symmetry_equiv_pos_site_id
 _symmetry_equiv_pos_as_xyz
  1  'x, y, z'
loop_
 _atom_site_type_symbol
 _atom_site_label
 _atom_site_symmetry_multiplicity
 _atom_site_fract_x
 _atom_site_fract_y
 _atom_site_fract_z
 _atom_site_occupancy
  Na  Na0  1  0.66217600  0.12288100  0.45458400  1
  Na  Na1  1  0.33782400  0.12288100  0.04541600  1
  Na  Na2  1  0.33782400  0.87711900  0.54541600  1
  Na  Na3  1  0.66217600  0.87711900  0.95458400  1
  Na  Na4  1  0.16602950  0.12513950  0.41657300  1
  Na  Na5  1  0.83397050  0.12513950  0.08342700  1
  Na  Na6  1  0.83397050  0.87486050  0.58342700  1
  Na  Na7  1  0.16602950  0.87486050  0.91657300  1
  Na  Na8  1  0.16217600  0.62288100  0.45458400  1
  Na  Na9  1  0.83782400  0.62288100  0.04541600  1
  Na  Na10  1  0.83782400  0.37711900  0.54541600  1
  Na  Na11  1  0.16217600  0.37711900  0.95458400  1
  Na  Na12  1  0.66602950  0.62513950  0.41657300  1
  Na  Na13  1  0.33397050  0.62513950  0.08342700  1
  Na  Na14  1  0.33397050  0.37486050  0.58342700  1
  Na  Na15  1  0.66602950  0.37486050  0.91657300  1
  Ca  Ca16  1  0.50000000  0.12243800  0.75000000  1
  Ca  Ca17  1  0.50000000  0.87756200  0.25000000  1
  Ca  Ca18  1  0.00000000  0.62243800  0.75000000  1
  Ca  Ca19  1  0.00000000  0.37756200  0.25000000  1
  P  P20  1  0.09306400  0.94860900  0.61511800  1
  P  P21  1  0.90693600  0.94860900  0.88488200  1
  P  P22  1  0.90693600  0.05139100  0.38488200  1
  P  P23  1  0.09306400  0.05139100  0.11511800  1
  P  P24  1  0.22749450  0.13843150  0.74752000  1
  P  P25  1  0.77250550  0.13843150  0.75248000  1
  P  P26  1  0.77250550  0.86156850  0.25248000  1
  P  P27  1  0.22749450  0.86156850  0.24752000  1
  P  P28  1  0.58697300  0.80794600  0.61123100  1
  P  P29  1  0.41302700  0.80794600  0.88876900  1
  P  P30  1  0.41302700  0.19205400  0.38876900  1
  P  P31  1  0.58697300  0.19205400  0.11123100  1
  P  P32  1  0.59306400  0.44860900  0.61511800  1
  P  P33  1  0.40693600  0.44860900  0.88488200  1
  P  P34  1  0.40693600  0.55139100  0.38488200  1
  P  P35  1  0.59306400  0.55139100  0.11511800  1
  P  P36  1  0.72749450  0.63843150  0.74752000  1
  P  P37  1  0.27250550  0.63843150  0.75248000  1
  P  P38  1  0.27250550  0.36156850  0.25248000  1
  P  P39  1  0.72749450  0.36156850  0.24752000  1
  P  P40  1  0.08697300  0.30794600  0.61123100  1
  P  P41  1  0.91302700  0.30794600  0.88876900  1
  P  P42  1  0.91302700  0.69205400  0.38876900  1
  P  P43  1  0.08697300  0.69205400  0.11123100  1
  O  O44  1  0.51284900  0.32615300  0.63465700  1
  O  O45  1  0.48715100  0.32615300  0.86534300  1
  O  O46  1  0.48715100  0.67384700  0.36534300  1
  O  O47  1  0.51284900  0.67384700  0.13465700  1
  O  O48  1  0.16003400  0.91864100  0.53798900  1
  O  O49  1  0.83996600  0.91864100  0.96201100  1
  O  O50  1  0.83996600  0.08135900  0.46201100  1
  O  O51  1  0.16003400  0.08135900  0.03798900  1
  O  O52  1  0.53623600  0.62583600  0.59984900  1
  O  O53  1  0.46376400  0.62583600  0.90015100  1
  O  O54  1  0.46376400  0.37416400  0.40015100  1
  O  O55  1  0.53623600  0.37416400  0.09984900  1
  O  O56  1  0.15968800  0.97995700  0.71239800  1
  O  O57  1  0.84031200  0.97995700  0.78760200  1
  O  O58  1  0.84031200  0.02004300  0.28760200  1
  O  O59  1  0.15968800  0.02004300  0.21239800  1
  O  O60  1  0.32359850  0.14195950  0.69805400  1
  O  O61  1  0.67640150  0.14195950  0.80194600  1
  O  O62  1  0.67640150  0.85804050  0.30194600  1
  O  O63  1  0.32359850  0.85804050  0.19805400  1
  O  O64  1  0.23147300  0.13850600  0.85074600  1
  O  O65  1  0.76852700  0.13850600  0.64925400  1
  O  O66  1  0.76852700  0.86149400  0.14925400  1
  O  O67  1  0.23147300  0.86149400  0.35074600  1
  O  O68  1  0.65465800  0.78935800  0.70933200  1
  O  O69  1  0.34534200  0.78935800  0.79066800  1
  O  O70  1  0.34534200  0.21064200  0.29066800  1
  O  O71  1  0.65465800  0.21064200  0.20933200  1
  O  O72  1  0.50274300  0.92492200  0.62839900  1
  O  O73  1  0.49725700  0.92492200  0.87160100  1
  O  O74  1  0.49725700  0.07507800  0.37160100  1
  O  O75  1  0.50274300  0.07507800  0.12839900  1
  O  O76  1  0.65379750  0.84130650  0.53436000  1
  O  O77  1  0.34620250  0.84130650  0.96564000  1
  O  O78  1  0.34620250  0.15869350  0.46564000  1
  O  O79  1  0.65379750  0.15869350  0.03436000  1
  O  O80  1  0.01284900  0.82615300  0.63465700  1
  O  O81  1  0.98715100  0.82615300  0.86534300  1
  O  O82  1  0.98715100  0.17384700  0.36534300  1
  O  O83  1  0.01284900  0.17384700  0.13465700  1
  O  O84  1  0.66003400  0.41864100  0.53798900  1
  O  O85  1  0.33996600  0.41864100  0.96201100  1
  O  O86  1  0.33996600  0.58135900  0.46201100  1
  O  O87  1  0.66003400  0.58135900  0.03798900  1
  O  O88  1  0.03623600  0.12583600  0.59984900  1
  O  O89  1  0.96376400  0.12583600  0.90015100  1
  O  O90  1  0.96376400  0.87416400  0.40015100  1
  O  O91  1  0.03623600  0.87416400  0.09984900  1
  O  O92  1  0.65968800  0.47995700  0.71239800  1
  O  O93  1  0.34031200  0.47995700  0.78760200  1
  O  O94  1  0.34031200  0.52004300  0.28760200  1
  O  O95  1  0.65968800  0.52004300  0.21239800  1
  O  O96  1  0.82359850  0.64195950  0.69805400  1
  O  O97  1  0.17640150  0.64195950  0.80194600  1
  O  O98  1  0.17640150  0.35804050  0.30194600  1
  O  O99  1  0.82359850  0.35804050  0.19805400  1
  O  O100  1  0.73147300  0.63850600  0.85074600  1
  O  O101  1  0.26852700  0.63850600  0.64925400  1
  O  O102  1  0.26852700  0.36149400  0.14925400  1
  O  O103  1  0.73147300  0.36149400  0.35074600  1
  O  O104  1  0.15465800  0.28935800  0.70933200  1
  O  O105  1  0.84534200  0.28935800  0.79066800  1
  O  O106  1  0.84534200  0.71064200  0.29066800  1
  O  O107  1  0.15465800  0.71064200  0.20933200  1
  O  O108  1  0.00274300  0.42492200  0.62839900  1
  O  O109  1  0.99725700  0.42492200  0.87160100  1
  O  O110  1  0.99725700  0.57507800  0.37160100  1
  O  O111  1  0.00274300  0.57507800  0.12839900  1
  O  O112  1  0.15379750  0.34130650  0.53436000  1
  O  O113  1  0.84620250  0.34130650  0.96564000  1
  O  O114  1  0.84620250  0.65869350  0.46564000  1
  O  O115  1  0.15379750  0.65869350  0.03436000  1
