# generated using pymatgen
data_CsLu2Cu3Se5
_symmetry_space_group_name_H-M   'P 1'
_cell_length_a   4.08739200
_cell_length_b   14.66877200
_cell_length_c   17.12074300
_cell_angle_alpha   90.00000000
_cell_angle_beta   90.00000000
_cell_angle_gamma   90.00000000
_symmetry_Int_Tables_number   1
_chemical_formula_structural   CsLu2Cu3Se5
_chemical_formula_sum   'Cs4 Lu8 Cu12 Se20'
_cell_volume   1026.50875311
_cell_formula_units_Z   4
loop_
 _symmetry_equiv_pos_site_id
 _symmetry_equiv_pos_as_xyz
  1  'x, y, z'
loop_
 _atom_site_type_symbol
 _atom_site_label
 _atom_site_symmetry_multiplicity
 _atom_site_fract_x
 _atom_site_fract_y
 _atom_site_fract_z
 _atom_site_occupancy
  Cs  Cs0  1  0.50000000  0.43889500  0.25000000  1
  Cs  Cs1  1  0.00000000  0.06110500  0.75000000  1
  Cs  Cs2  1  0.00000000  0.93889500  0.25000000  1
  Cs  Cs3  1  0.50000000  0.56110500  0.75000000  1
  Lu  Lu4  1  0.50000000  0.30744800  0.90809100  1
  Lu  Lu5  1  0.50000000  0.30744800  0.59190900  1
  Lu  Lu6  1  0.00000000  0.19255200  0.09190900  1
  Lu  Lu7  1  0.00000000  0.19255200  0.40809100  1
  Lu  Lu8  1  0.00000000  0.80744800  0.90809100  1
  Lu  Lu9  1  0.00000000  0.80744800  0.59190900  1
  Lu  Lu10  1  0.50000000  0.69255200  0.09190900  1
  Lu  Lu11  1  0.50000000  0.69255200  0.40809100  1
  Cu  Cu12  1  0.00000000  0.34503200  0.75000000  1
  Cu  Cu13  1  0.00000000  0.41777400  0.46663700  1
  Cu  Cu14  1  0.50000000  0.08222600  0.53336300  1
  Cu  Cu15  1  0.50000000  0.15496800  0.25000000  1
  Cu  Cu16  1  0.50000000  0.08222600  0.96663700  1
  Cu  Cu17  1  0.00000000  0.41777400  0.03336300  1
  Cu  Cu18  1  0.50000000  0.84503200  0.75000000  1
  Cu  Cu19  1  0.50000000  0.91777400  0.46663700  1
  Cu  Cu20  1  0.00000000  0.58222600  0.53336300  1
  Cu  Cu21  1  0.00000000  0.65496800  0.25000000  1
  Cu  Cu22  1  0.00000000  0.58222600  0.96663700  1
  Cu  Cu23  1  0.50000000  0.91777400  0.03336300  1
  Se  Se24  1  0.50000000  0.26110700  0.75000000  1
  Se  Se25  1  0.00000000  0.17044700  0.56952800  1
  Se  Se26  1  0.00000000  0.23889300  0.25000000  1
  Se  Se27  1  0.50000000  0.32955300  0.06952800  1
  Se  Se28  1  0.50000000  0.32955300  0.43047200  1
  Se  Se29  1  0.50000000  0.06365600  0.38730500  1
  Se  Se30  1  0.00000000  0.43634400  0.61269500  1
  Se  Se31  1  0.50000000  0.06365600  0.11269500  1
  Se  Se32  1  0.00000000  0.43634400  0.88730500  1
  Se  Se33  1  0.00000000  0.17044700  0.93047200  1
  Se  Se34  1  0.00000000  0.76110700  0.75000000  1
  Se  Se35  1  0.50000000  0.67044700  0.56952800  1
  Se  Se36  1  0.50000000  0.73889300  0.25000000  1
  Se  Se37  1  0.00000000  0.82955300  0.06952800  1
  Se  Se38  1  0.00000000  0.82955300  0.43047200  1
  Se  Se39  1  0.00000000  0.56365600  0.38730500  1
  Se  Se40  1  0.50000000  0.93634400  0.61269500  1
  Se  Se41  1  0.00000000  0.56365600  0.11269500  1
  Se  Se42  1  0.50000000  0.93634400  0.88730500  1
  Se  Se43  1  0.50000000  0.67044700  0.93047200  1
