# generated using pymatgen
data_SiO2
_symmetry_space_group_name_H-M   'P 1'
_cell_length_a   19.29659200
_cell_length_b   23.54114800
_cell_length_c   8.60862200
_cell_angle_alpha   90.00000000
_cell_angle_beta   90.00000000
_cell_angle_gamma   90.00000000
_symmetry_Int_Tables_number   1
_chemical_formula_structural   SiO2
_chemical_formula_sum   'Si64 O128'
_cell_volume   3910.58644583
_cell_formula_units_Z   64
loop_
 _symmetry_equiv_pos_site_id
 _symmetry_equiv_pos_as_xyz
  1  'x, y, z'
loop_
 _atom_site_type_symbol
 _atom_site_label
 _atom_site_symmetry_multiplicity
 _atom_site_fract_x
 _atom_site_fract_y
 _atom_site_fract_z
 _atom_site_occupancy
  Si  Si0  1  0.50000000  0.74364600  0.06716000  1
  Si  Si1  1  0.50000000  0.25635400  0.56716000  1
  Si  Si2  1  0.50000000  0.38217200  0.43551600  1
  Si  Si3  1  0.35829600  0.77277900  0.93515400  1
  Si  Si4  1  0.64170400  0.77277900  0.56484600  1
  Si  Si5  1  0.85729250  0.06424850  0.06308700  1
  Si  Si6  1  0.35829600  0.77277900  0.56484600  1
  Si  Si7  1  0.35829600  0.22722100  0.06484600  1
  Si  Si8  1  0.76732950  0.83607950  0.43613900  1
  Si  Si9  1  0.64170400  0.22722100  0.43515400  1
  Si  Si10  1  0.14270750  0.93575150  0.56308700  1
  Si  Si11  1  0.76732950  0.83607950  0.06386100  1
  Si  Si12  1  0.64170400  0.77277900  0.93515400  1
  Si  Si13  1  0.23267050  0.16392050  0.56386100  1
  Si  Si14  1  0.76732950  0.16392050  0.93613900  1
  Si  Si15  1  0.14270750  0.06424850  0.06308700  1
  Si  Si16  1  0.14270750  0.06424850  0.43691300  1
  Si  Si17  1  0.23267050  0.83607950  0.06386100  1
  Si  Si18  1  0.50000000  0.38217200  0.06448400  1
  Si  Si19  1  0.85729250  0.06424850  0.43691300  1
  Si  Si20  1  0.35829600  0.22722100  0.43515400  1
  Si  Si21  1  0.23267050  0.16392050  0.93613900  1
  Si  Si22  1  0.50000000  0.25635400  0.93284000  1
  Si  Si23  1  0.76732950  0.16392050  0.56386100  1
  Si  Si24  1  0.50000000  0.61782800  0.56448400  1
  Si  Si25  1  0.50000000  0.61782800  0.93551600  1
  Si  Si26  1  0.64170400  0.22722100  0.06484600  1
  Si  Si27  1  0.23267050  0.83607950  0.43613900  1
  Si  Si28  1  0.50000000  0.74364600  0.43284000  1
  Si  Si29  1  0.85729250  0.93575150  0.93691300  1
  Si  Si30  1  0.14270750  0.93575150  0.93691300  1
  Si  Si31  1  0.85729250  0.93575150  0.56308700  1
  Si  Si32  1  0.00000000  0.24364600  0.06716000  1
  Si  Si33  1  0.00000000  0.75635400  0.56716000  1
  Si  Si34  1  0.00000000  0.88217200  0.43551600  1
  Si  Si35  1  0.85829600  0.27277900  0.93515400  1
  Si  Si36  1  0.14170400  0.27277900  0.56484600  1
  Si  Si37  1  0.35729250  0.56424850  0.06308700  1
  Si  Si38  1  0.85829600  0.27277900  0.56484600  1
  Si  Si39  1  0.85829600  0.72722100  0.06484600  1
  Si  Si40  1  0.26732950  0.33607950  0.43613900  1
  Si  Si41  1  0.14170400  0.72722100  0.43515400  1
  Si  Si42  1  0.64270750  0.43575150  0.56308700  1
  Si  Si43  1  0.26732950  0.33607950  0.06386100  1
  Si  Si44  1  0.14170400  0.27277900  0.93515400  1
  Si  Si45  1  0.73267050  0.66392050  0.56386100  1
  Si  Si46  1  0.26732950  0.66392050  0.93613900  1
  Si  Si47  1  0.64270750  0.56424850  0.06308700  1
  Si  Si48  1  0.64270750  0.56424850  0.43691300  1
  Si  Si49  1  0.73267050  0.33607950  0.06386100  1
  Si  Si50  1  0.00000000  0.88217200  0.06448400  1
  Si  Si51  1  0.35729250  0.56424850  0.43691300  1
  Si  Si52  1  0.85829600  0.72722100  0.43515400  1
  Si  Si53  1  0.73267050  0.66392050  0.93613900  1
  Si  Si54  1  0.00000000  0.75635400  0.93284000  1
  Si  Si55  1  0.26732950  0.66392050  0.56386100  1
  Si  Si56  1  0.00000000  0.11782800  0.56448400  1
  Si  Si57  1  0.00000000  0.11782800  0.93551600  1
  Si  Si58  1  0.14170400  0.72722100  0.06484600  1
  Si  Si59  1  0.73267050  0.33607950  0.43613900  1
  Si  Si60  1  0.00000000  0.24364600  0.43284000  1
  Si  Si61  1  0.35729250  0.43575150  0.93691300  1
  Si  Si62  1  0.64270750  0.43575150  0.93691300  1
  Si  Si63  1  0.35729250  0.43575150  0.56308700  1
  O  O64  1  0.32338600  0.28756200  0.48855200  1
  O  O65  1  0.69343050  0.17494850  0.47795000  1
  O  O66  1  0.32338600  0.71243800  0.51144800  1
  O  O67  1  0.69343050  0.82505150  0.97795000  1
  O  O68  1  0.32338600  0.28756200  0.01144800  1
  O  O69  1  0.56777850  0.41021650  0.51473300  1
  O  O70  1  0.30656950  0.17494850  0.02205000  1
  O  O71  1  0.20437850  0.10186250  0.51408500  1
  O  O72  1  0.79562150  0.89813750  0.01408500  1
  O  O73  1  0.67661400  0.71243800  0.51144800  1
  O  O74  1  0.20437850  0.10186250  0.98591500  1
  O  O75  1  0.50000000  0.39496400  0.25000000  1
  O  O76  1  0.43120150  0.78099050  0.02707900  1
  O  O77  1  0.79562150  0.10186250  0.51408500  1
  O  O78  1  0.30656950  0.82505150  0.52205000  1
  O  O79  1  0.50000000  0.31386300  0.03788300  1
  O  O80  1  0.84978900  0.00000000  0.00000000  1
  O  O81  1  0.50000000  0.27337700  0.75000000  1
  O  O82  1  0.56879850  0.21900950  0.52707900  1
  O  O83  1  0.75564500  0.83323100  0.25000000  1
  O  O84  1  0.67661400  0.28756200  0.48855200  1
  O  O85  1  0.43120150  0.21900950  0.97292100  1
  O  O86  1  0.79562150  0.10186250  0.98591500  1
  O  O87  1  0.62673900  0.22759800  0.25000000  1
  O  O88  1  0.50000000  0.31386300  0.46211700  1
  O  O89  1  0.50000000  0.68613700  0.96211700  1
  O  O90  1  0.84958200  0.93471900  0.75000000  1
  O  O91  1  0.15041800  0.06528100  0.25000000  1
  O  O92  1  0.50000000  0.60503600  0.75000000  1
  O  O93  1  0.84978900  0.00000000  0.50000000  1
  O  O94  1  0.37326100  0.22759800  0.25000000  1
  O  O95  1  0.43222150  0.58978350  0.01473300  1
  O  O96  1  0.56879850  0.78099050  0.02707900  1
  O  O97  1  0.30656950  0.82505150  0.97795000  1
  O  O98  1  0.67661400  0.71243800  0.98855200  1
  O  O99  1  0.75564500  0.16676900  0.75000000  1
  O  O100  1  0.69343050  0.82505150  0.52205000  1
  O  O101  1  0.43120150  0.78099050  0.47292100  1
  O  O102  1  0.15021100  0.00000000  0.00000000  1
  O  O103  1  0.15041800  0.93471900  0.75000000  1
  O  O104  1  0.50000000  0.72662300  0.25000000  1
  O  O105  1  0.43222150  0.58978350  0.48526700  1
  O  O106  1  0.84958200  0.06528100  0.25000000  1
  O  O107  1  0.20437850  0.89813750  0.01408500  1
  O  O108  1  0.30656950  0.17494850  0.47795000  1
  O  O109  1  0.15021100  0.00000000  0.50000000  1
  O  O110  1  0.43222150  0.41021650  0.98526700  1
  O  O111  1  0.20437850  0.89813750  0.48591500  1
  O  O112  1  0.67661400  0.28756200  0.01144800  1
  O  O113  1  0.56777850  0.58978350  0.48526700  1
  O  O114  1  0.56879850  0.78099050  0.47292100  1
  O  O115  1  0.56777850  0.41021650  0.98526700  1
  O  O116  1  0.56777850  0.58978350  0.01473300  1
  O  O117  1  0.32338600  0.71243800  0.98855200  1
  O  O118  1  0.79562150  0.89813750  0.48591500  1
  O  O119  1  0.37326100  0.77240200  0.75000000  1
  O  O120  1  0.50000000  0.68613700  0.53788300  1
  O  O121  1  0.43222150  0.41021650  0.51473300  1
  O  O122  1  0.24435500  0.83323100  0.25000000  1
  O  O123  1  0.56879850  0.21900950  0.97292100  1
  O  O124  1  0.62673900  0.77240200  0.75000000  1
  O  O125  1  0.69343050  0.17494850  0.02205000  1
  O  O126  1  0.43120150  0.21900950  0.52707900  1
  O  O127  1  0.24435500  0.16676900  0.75000000  1
  O  O128  1  0.82338600  0.78756200  0.48855200  1
  O  O129  1  0.19343050  0.67494850  0.47795000  1
  O  O130  1  0.82338600  0.21243800  0.51144800  1
  O  O131  1  0.19343050  0.32505150  0.97795000  1
  O  O132  1  0.82338600  0.78756200  0.01144800  1
  O  O133  1  0.06777850  0.91021650  0.51473300  1
  O  O134  1  0.80656950  0.67494850  0.02205000  1
  O  O135  1  0.70437850  0.60186250  0.51408500  1
  O  O136  1  0.29562150  0.39813750  0.01408500  1
  O  O137  1  0.17661400  0.21243800  0.51144800  1
  O  O138  1  0.70437850  0.60186250  0.98591500  1
  O  O139  1  0.00000000  0.89496400  0.25000000  1
  O  O140  1  0.93120150  0.28099050  0.02707900  1
  O  O141  1  0.29562150  0.60186250  0.51408500  1
  O  O142  1  0.80656950  0.32505150  0.52205000  1
  O  O143  1  0.00000000  0.81386300  0.03788300  1
  O  O144  1  0.34978900  0.50000000  0.00000000  1
  O  O145  1  0.00000000  0.77337700  0.75000000  1
  O  O146  1  0.06879850  0.71900950  0.52707900  1
  O  O147  1  0.25564500  0.33323100  0.25000000  1
  O  O148  1  0.17661400  0.78756200  0.48855200  1
  O  O149  1  0.93120150  0.71900950  0.97292100  1
  O  O150  1  0.29562150  0.60186250  0.98591500  1
  O  O151  1  0.12673900  0.72759800  0.25000000  1
  O  O152  1  0.00000000  0.81386300  0.46211700  1
  O  O153  1  0.00000000  0.18613700  0.96211700  1
  O  O154  1  0.34958200  0.43471900  0.75000000  1
  O  O155  1  0.65041800  0.56528100  0.25000000  1
  O  O156  1  0.00000000  0.10503600  0.75000000  1
  O  O157  1  0.34978900  0.50000000  0.50000000  1
  O  O158  1  0.87326100  0.72759800  0.25000000  1
  O  O159  1  0.93222150  0.08978350  0.01473300  1
  O  O160  1  0.06879850  0.28099050  0.02707900  1
  O  O161  1  0.80656950  0.32505150  0.97795000  1
  O  O162  1  0.17661400  0.21243800  0.98855200  1
  O  O163  1  0.25564500  0.66676900  0.75000000  1
  O  O164  1  0.19343050  0.32505150  0.52205000  1
  O  O165  1  0.93120150  0.28099050  0.47292100  1
  O  O166  1  0.65021100  0.50000000  0.00000000  1
  O  O167  1  0.65041800  0.43471900  0.75000000  1
  O  O168  1  0.00000000  0.22662300  0.25000000  1
  O  O169  1  0.93222150  0.08978350  0.48526700  1
  O  O170  1  0.34958200  0.56528100  0.25000000  1
  O  O171  1  0.70437850  0.39813750  0.01408500  1
  O  O172  1  0.80656950  0.67494850  0.47795000  1
  O  O173  1  0.65021100  0.50000000  0.50000000  1
  O  O174  1  0.93222150  0.91021650  0.98526700  1
  O  O175  1  0.70437850  0.39813750  0.48591500  1
  O  O176  1  0.17661400  0.78756200  0.01144800  1
  O  O177  1  0.06777850  0.08978350  0.48526700  1
  O  O178  1  0.06879850  0.28099050  0.47292100  1
  O  O179  1  0.06777850  0.91021650  0.98526700  1
  O  O180  1  0.06777850  0.08978350  0.01473300  1
  O  O181  1  0.82338600  0.21243800  0.98855200  1
  O  O182  1  0.29562150  0.39813750  0.48591500  1
  O  O183  1  0.87326100  0.27240200  0.75000000  1
  O  O184  1  0.00000000  0.18613700  0.53788300  1
  O  O185  1  0.93222150  0.91021650  0.51473300  1
  O  O186  1  0.74435500  0.33323100  0.25000000  1
  O  O187  1  0.06879850  0.71900950  0.97292100  1
  O  O188  1  0.12673900  0.27240200  0.75000000  1
  O  O189  1  0.19343050  0.67494850  0.02205000  1
  O  O190  1  0.93120150  0.71900950  0.52707900  1
  O  O191  1  0.74435500  0.66676900  0.75000000  1
