# generated using pymatgen
data_IrCl3
_symmetry_space_group_name_H-M   'P 1'
_cell_length_a   7.24226600
_cell_length_b   10.12357600
_cell_length_c   21.16199800
_cell_angle_alpha   90.00000000
_cell_angle_beta   90.00000000
_cell_angle_gamma   90.00000000
_symmetry_Int_Tables_number   1
_chemical_formula_structural   IrCl3
_chemical_formula_sum   'Ir16 Cl48'
_cell_volume   1551.54754499
_cell_formula_units_Z   16
loop_
 _symmetry_equiv_pos_site_id
 _symmetry_equiv_pos_as_xyz
  1  'x, y, z'
loop_
 _atom_site_type_symbol
 _atom_site_label
 _atom_site_symmetry_multiplicity
 _atom_site_fract_x
 _atom_site_fract_y
 _atom_site_fract_z
 _atom_site_occupancy
  Ir  Ir0  1  0.00000000  0.00000000  0.41633900  1
  Ir  Ir1  1  0.75000000  0.25000000  0.33366100  1
  Ir  Ir2  1  0.75000000  0.25000000  0.16633900  1
  Ir  Ir3  1  0.50000000  0.00000000  0.08366100  1
  Ir  Ir4  1  0.00000000  0.50000000  0.91633900  1
  Ir  Ir5  1  0.75000000  0.75000000  0.83366100  1
  Ir  Ir6  1  0.75000000  0.75000000  0.66633900  1
  Ir  Ir7  1  0.50000000  0.50000000  0.58366100  1
  Ir  Ir8  1  0.50000000  0.00000000  0.91633900  1
  Ir  Ir9  1  0.25000000  0.25000000  0.83366100  1
  Ir  Ir10  1  0.25000000  0.25000000  0.66633900  1
  Ir  Ir11  1  0.00000000  0.00000000  0.58366100  1
  Ir  Ir12  1  0.50000000  0.50000000  0.41633900  1
  Ir  Ir13  1  0.25000000  0.75000000  0.33366100  1
  Ir  Ir14  1  0.25000000  0.75000000  0.16633900  1
  Ir  Ir15  1  0.00000000  0.50000000  0.08366100  1
  Cl  Cl16  1  0.28223400  0.00000000  0.00000000  1
  Cl  Cl17  1  0.26642100  0.98387000  0.16193600  1
  Cl  Cl18  1  0.48357900  0.76613000  0.08806400  1
  Cl  Cl19  1  0.73357900  0.01613000  0.16193600  1
  Cl  Cl20  1  0.01642100  0.76613000  0.41193600  1
  Cl  Cl21  1  0.71776600  0.00000000  0.00000000  1
  Cl  Cl22  1  0.96776600  0.25000000  0.25000000  1
  Cl  Cl23  1  0.53223400  0.25000000  0.25000000  1
  Cl  Cl24  1  0.23357900  0.98387000  0.33806400  1
  Cl  Cl25  1  0.51642100  0.23387000  0.08806400  1
  Cl  Cl26  1  0.98357900  0.23387000  0.41193600  1
  Cl  Cl27  1  0.76642100  0.01613000  0.33806400  1
  Cl  Cl28  1  0.28223400  0.50000000  0.50000000  1
  Cl  Cl29  1  0.26642100  0.48387000  0.66193600  1
  Cl  Cl30  1  0.48357900  0.26613000  0.58806400  1
  Cl  Cl31  1  0.73357900  0.51613000  0.66193600  1
  Cl  Cl32  1  0.01642100  0.26613000  0.91193600  1
  Cl  Cl33  1  0.71776600  0.50000000  0.50000000  1
  Cl  Cl34  1  0.96776600  0.75000000  0.75000000  1
  Cl  Cl35  1  0.53223400  0.75000000  0.75000000  1
  Cl  Cl36  1  0.23357900  0.48387000  0.83806400  1
  Cl  Cl37  1  0.51642100  0.73387000  0.58806400  1
  Cl  Cl38  1  0.98357900  0.73387000  0.91193600  1
  Cl  Cl39  1  0.76642100  0.51613000  0.83806400  1
  Cl  Cl40  1  0.78223400  0.00000000  0.50000000  1
  Cl  Cl41  1  0.76642100  0.98387000  0.66193600  1
  Cl  Cl42  1  0.98357900  0.76613000  0.58806400  1
  Cl  Cl43  1  0.23357900  0.01613000  0.66193600  1
  Cl  Cl44  1  0.51642100  0.76613000  0.91193600  1
  Cl  Cl45  1  0.21776600  0.00000000  0.50000000  1
  Cl  Cl46  1  0.46776600  0.25000000  0.75000000  1
  Cl  Cl47  1  0.03223400  0.25000000  0.75000000  1
  Cl  Cl48  1  0.73357900  0.98387000  0.83806400  1
  Cl  Cl49  1  0.01642100  0.23387000  0.58806400  1
  Cl  Cl50  1  0.48357900  0.23387000  0.91193600  1
  Cl  Cl51  1  0.26642100  0.01613000  0.83806400  1
  Cl  Cl52  1  0.78223400  0.50000000  0.00000000  1
  Cl  Cl53  1  0.76642100  0.48387000  0.16193600  1
  Cl  Cl54  1  0.98357900  0.26613000  0.08806400  1
  Cl  Cl55  1  0.23357900  0.51613000  0.16193600  1
  Cl  Cl56  1  0.51642100  0.26613000  0.41193600  1
  Cl  Cl57  1  0.21776600  0.50000000  0.00000000  1
  Cl  Cl58  1  0.46776600  0.75000000  0.25000000  1
  Cl  Cl59  1  0.03223400  0.75000000  0.25000000  1
  Cl  Cl60  1  0.73357900  0.48387000  0.33806400  1
  Cl  Cl61  1  0.01642100  0.73387000  0.08806400  1
  Cl  Cl62  1  0.48357900  0.73387000  0.41193600  1
  Cl  Cl63  1  0.26642100  0.51613000  0.33806400  1
