# generated using pymatgen
data_RbCrCl3
_symmetry_space_group_name_H-M   'P 1'
_cell_length_a   12.37868000
_cell_length_b   7.10133200
_cell_length_c   6.31259966
_cell_angle_alpha   90.00000000
_cell_angle_beta   92.28165152
_cell_angle_gamma   90.00000000
_symmetry_Int_Tables_number   1
_chemical_formula_structural   RbCrCl3
_chemical_formula_sum   'Rb4 Cr4 Cl12'
_cell_volume   554.46987269
_cell_formula_units_Z   4
loop_
 _symmetry_equiv_pos_site_id
 _symmetry_equiv_pos_as_xyz
  1  'x, y, z'
loop_
 _atom_site_type_symbol
 _atom_site_label
 _atom_site_symmetry_multiplicity
 _atom_site_fract_x
 _atom_site_fract_y
 _atom_site_fract_z
 _atom_site_occupancy
  Rb  Rb0  1  0.66582100  0.00000000  0.24519400  1
  Rb  Rb1  1  0.83417900  0.50000000  0.75480600  1
  Rb  Rb2  1  0.16582100  0.50000000  0.24519400  1
  Rb  Rb3  1  0.33417900  0.00000000  0.75480600  1
  Cr  Cr4  1  0.00000000  0.00000000  0.50000000  1
  Cr  Cr5  1  0.00000000  0.00000000  0.00000000  1
  Cr  Cr6  1  0.50000000  0.50000000  0.50000000  1
  Cr  Cr7  1  0.50000000  0.50000000  0.00000000  1
  Cl  Cl8  1  0.58005450  0.73764050  0.78015200  1
  Cl  Cl9  1  0.58005450  0.26235950  0.78015200  1
  Cl  Cl10  1  0.83678800  0.00000000  0.69045500  1
  Cl  Cl11  1  0.91994550  0.76235950  0.21984800  1
  Cl  Cl12  1  0.91994550  0.23764050  0.21984800  1
  Cl  Cl13  1  0.66321200  0.50000000  0.30954500  1
  Cl  Cl14  1  0.08005450  0.23764050  0.78015200  1
  Cl  Cl15  1  0.08005450  0.76235950  0.78015200  1
  Cl  Cl16  1  0.33678800  0.50000000  0.69045500  1
  Cl  Cl17  1  0.41994550  0.26235950  0.21984800  1
  Cl  Cl18  1  0.41994550  0.73764050  0.21984800  1
  Cl  Cl19  1  0.16321200  0.00000000  0.30954500  1
