# generated using pymatgen
data_Yb11InSb9
_symmetry_space_group_name_H-M   'P 1'
_cell_length_a   11.87104600
_cell_length_b   12.49345200
_cell_length_c   16.81766800
_cell_angle_alpha   90.00000000
_cell_angle_beta   90.00000000
_cell_angle_gamma   90.00000000
_symmetry_Int_Tables_number   1
_chemical_formula_structural   Yb11InSb9
_chemical_formula_sum   'Yb44 In4 Sb36'
_cell_volume   2494.23411611
_cell_formula_units_Z   4
loop_
 _symmetry_equiv_pos_site_id
 _symmetry_equiv_pos_as_xyz
  1  'x, y, z'
loop_
 _atom_site_type_symbol
 _atom_site_label
 _atom_site_symmetry_multiplicity
 _atom_site_fract_x
 _atom_site_fract_y
 _atom_site_fract_z
 _atom_site_occupancy
  Yb  Yb0  1  0.57014650  0.22171650  0.34135050  1
  Yb  Yb1  1  0.16466300  0.82536500  0.50077700  1
  Yb  Yb2  1  0.42985350  0.77828350  0.34135050  1
  Yb  Yb3  1  0.00000000  0.00000000  0.32620600  1
  Yb  Yb4  1  0.68294550  0.94637350  0.37019550  1
  Yb  Yb5  1  0.31473400  0.94086700  0.12881800  1
  Yb  Yb6  1  0.08593450  0.27227050  0.65897850  1
  Yb  Yb7  1  0.92985350  0.72171650  0.34135050  1
  Yb  Yb8  1  0.91406550  0.72772950  0.65897850  1
  Yb  Yb9  1  0.68526600  0.94086700  0.62881800  1
  Yb  Yb10  1  0.07014650  0.27828350  0.34135050  1
  Yb  Yb11  1  0.31473400  0.05913300  0.62881800  1
  Yb  Yb12  1  0.66466300  0.67463500  0.50077700  1
  Yb  Yb13  1  0.31705450  0.05362650  0.37019550  1
  Yb  Yb14  1  0.68294550  0.05362650  0.87019550  1
  Yb  Yb15  1  0.83533700  0.17463500  0.50077700  1
  Yb  Yb16  1  0.00000000  0.00000000  0.82620600  1
  Yb  Yb17  1  0.41406550  0.77227050  0.65897850  1
  Yb  Yb18  1  0.33533700  0.32536500  0.50077700  1
  Yb  Yb19  1  0.31705450  0.94637350  0.87019550  1
  Yb  Yb20  1  0.58593450  0.22772950  0.65897850  1
  Yb  Yb21  1  0.68526600  0.05913300  0.12881800  1
  Yb  Yb22  1  0.07014650  0.72171650  0.84135050  1
  Yb  Yb23  1  0.66466300  0.32536500  0.00077700  1
  Yb  Yb24  1  0.92985350  0.27828350  0.84135050  1
  Yb  Yb25  1  0.50000000  0.50000000  0.82620600  1
  Yb  Yb26  1  0.18294550  0.44637350  0.87019550  1
  Yb  Yb27  1  0.81473400  0.44086700  0.62881800  1
  Yb  Yb28  1  0.58593450  0.77227050  0.15897850  1
  Yb  Yb29  1  0.42985350  0.22171650  0.84135050  1
  Yb  Yb30  1  0.41406550  0.22772950  0.15897850  1
  Yb  Yb31  1  0.18526600  0.44086700  0.12881800  1
  Yb  Yb32  1  0.57014650  0.77828350  0.84135050  1
  Yb  Yb33  1  0.81473400  0.55913300  0.12881800  1
  Yb  Yb34  1  0.16466300  0.17463500  0.00077700  1
  Yb  Yb35  1  0.81705450  0.55362650  0.87019550  1
  Yb  Yb36  1  0.18294550  0.55362650  0.37019550  1
  Yb  Yb37  1  0.33533700  0.67463500  0.00077700  1
  Yb  Yb38  1  0.50000000  0.50000000  0.32620600  1
  Yb  Yb39  1  0.91406550  0.27227050  0.15897850  1
  Yb  Yb40  1  0.83533700  0.82536500  0.00077700  1
  Yb  Yb41  1  0.81705450  0.44637350  0.37019550  1
  Yb  Yb42  1  0.08593450  0.72772950  0.15897850  1
  Yb  Yb43  1  0.18526600  0.55913300  0.62881800  1
  In  In44  1  0.00000000  0.00000000  0.61016100  1
  In  In45  1  0.00000000  0.00000000  0.11016100  1
  In  In46  1  0.50000000  0.50000000  0.11016100  1
  In  In47  1  0.50000000  0.50000000  0.61016100  1
  Sb  Sb48  1  0.17758750  0.17667250  0.81699050  1
  Sb  Sb49  1  0.03545000  0.39022300  0.50268500  1
  Sb  Sb50  1  0.96455000  0.60977700  0.50268500  1
  Sb  Sb51  1  0.86632050  0.88124350  0.49368950  1
  Sb  Sb52  1  0.63367950  0.38124350  0.49368950  1
  Sb  Sb53  1  0.13367950  0.11875650  0.49368950  1
  Sb  Sb54  1  0.50000000  0.00000000  0.74773700  1
  Sb  Sb55  1  0.82241250  0.82332750  0.81699050  1
  Sb  Sb56  1  0.84521100  0.14517400  0.69248900  1
  Sb  Sb57  1  0.36632050  0.61875650  0.49368950  1
  Sb  Sb58  1  0.82241250  0.17667250  0.31699050  1
  Sb  Sb59  1  0.53545000  0.10977700  0.50268500  1
  Sb  Sb60  1  0.17758750  0.82332750  0.31699050  1
  Sb  Sb61  1  0.50000000  0.00000000  0.24773700  1
  Sb  Sb62  1  0.46455000  0.89022300  0.50268500  1
  Sb  Sb63  1  0.15478900  0.14517400  0.19248900  1
  Sb  Sb64  1  0.15478900  0.85482600  0.69248900  1
  Sb  Sb65  1  0.84521100  0.85482600  0.19248900  1
  Sb  Sb66  1  0.67758750  0.67667250  0.31699050  1
  Sb  Sb67  1  0.53545000  0.89022300  0.00268500  1
  Sb  Sb68  1  0.46455000  0.10977700  0.00268500  1
  Sb  Sb69  1  0.36632050  0.38124350  0.99368950  1
  Sb  Sb70  1  0.13367950  0.88124350  0.99368950  1
  Sb  Sb71  1  0.63367950  0.61875650  0.99368950  1
  Sb  Sb72  1  0.00000000  0.50000000  0.24773700  1
  Sb  Sb73  1  0.32241250  0.32332750  0.31699050  1
  Sb  Sb74  1  0.34521100  0.64517400  0.19248900  1
  Sb  Sb75  1  0.86632050  0.11875650  0.99368950  1
  Sb  Sb76  1  0.32241250  0.67667250  0.81699050  1
  Sb  Sb77  1  0.03545000  0.60977700  0.00268500  1
  Sb  Sb78  1  0.67758750  0.32332750  0.81699050  1
  Sb  Sb79  1  0.00000000  0.50000000  0.74773700  1
  Sb  Sb80  1  0.96455000  0.39022300  0.00268500  1
  Sb  Sb81  1  0.65478900  0.64517400  0.69248900  1
  Sb  Sb82  1  0.65478900  0.35482600  0.19248900  1
  Sb  Sb83  1  0.34521100  0.35482600  0.69248900  1
