# generated using pymatgen
data_Hg3Se3O10
_symmetry_space_group_name_H-M   'P 1'
_cell_length_a   8.66996600
_cell_length_b   5.44745700
_cell_length_c   11.39251824
_cell_angle_alpha   90.00000000
_cell_angle_beta   108.16497640
_cell_angle_gamma   90.00000000
_symmetry_Int_Tables_number   1
_chemical_formula_structural   Hg3Se3O10
_chemical_formula_sum   'Hg6 Se6 O20'
_cell_volume   511.24486602
_cell_formula_units_Z   2
loop_
 _symmetry_equiv_pos_site_id
 _symmetry_equiv_pos_as_xyz
  1  'x, y, z'
loop_
 _atom_site_type_symbol
 _atom_site_label
 _atom_site_symmetry_multiplicity
 _atom_site_fract_x
 _atom_site_fract_y
 _atom_site_fract_z
 _atom_site_occupancy
  Hg  Hg0  1  0.99643400  0.24651400  0.87185700  1
  Hg  Hg1  1  0.00356600  0.74651400  0.12814300  1
  Hg  Hg2  1  0.99270800  0.25716600  0.37224900  1
  Hg  Hg3  1  0.00729200  0.75716600  0.62775100  1
  Hg  Hg4  1  0.62072900  0.74242700  0.79290000  1
  Hg  Hg5  1  0.37927100  0.24242700  0.20710000  1
  Se  Se6  1  0.74256300  0.22483200  0.03923800  1
  Se  Se7  1  0.25743700  0.72483200  0.96076200  1
  Se  Se8  1  0.73929300  0.28720300  0.57910900  1
  Se  Se9  1  0.26070700  0.78720300  0.42089100  1
  Se  Se10  1  0.35404800  0.25024400  0.71522000  1
  Se  Se11  1  0.64595200  0.75024400  0.28478000  1
  O  O12  1  0.89733200  0.11950400  0.16777500  1
  O  O13  1  0.10266800  0.61950400  0.83222500  1
  O  O14  1  0.88705800  0.40563500  0.51816800  1
  O  O15  1  0.11294200  0.90563500  0.48183200  1
  O  O16  1  0.85072300  0.06622900  0.68442600  1
  O  O17  1  0.14927700  0.56622900  0.31557400  1
  O  O18  1  0.84009200  0.46302300  0.98652800  1
  O  O19  1  0.15990800  0.96302300  0.01347200  1
  O  O20  1  0.77518700  0.00139800  0.93953400  1
  O  O21  1  0.22481300  0.50139800  0.06046600  1
  O  O22  1  0.75776400  0.52756500  0.68091300  1
  O  O23  1  0.24223600  0.02756500  0.31908700  1
  O  O24  1  0.47789500  0.06250600  0.66581400  1
  O  O25  1  0.52210500  0.56250600  0.33418600  1
  O  O26  1  0.47163500  0.42440100  0.83527600  1
  O  O27  1  0.52836500  0.92440100  0.16472400  1
  O  O28  1  0.25582600  0.43446900  0.60026300  1
  O  O29  1  0.74417400  0.93446900  0.39973700  1
  O  O30  1  0.23361000  0.08034600  0.77249700  1
  O  O31  1  0.76639000  0.58034600  0.22750300  1
