# generated using pymatgen
data_Pm2O3
_symmetry_space_group_name_H-M   'P 1'
_cell_length_a   14.48081800
_cell_length_b   3.65504800
_cell_length_c   8.97328184
_cell_angle_alpha   90.00000000
_cell_angle_beta   100.28691261
_cell_angle_gamma   90.00000000
_symmetry_Int_Tables_number   1
_chemical_formula_structural   Pm2O3
_chemical_formula_sum   'Pm12 O18'
_cell_volume   467.30439015
_cell_formula_units_Z   6
loop_
 _symmetry_equiv_pos_site_id
 _symmetry_equiv_pos_as_xyz
  1  'x, y, z'
loop_
 _atom_site_type_symbol
 _atom_site_label
 _atom_site_symmetry_multiplicity
 _atom_site_fract_x
 _atom_site_fract_y
 _atom_site_fract_z
 _atom_site_occupancy
  Pm  Pm0  1  0.53222100  0.50000000  0.81342300  1
  Pm  Pm1  1  0.63381300  0.00000000  0.48939000  1
  Pm  Pm2  1  0.96777900  0.00000000  0.18657700  1
  Pm  Pm3  1  0.80755500  0.50000000  0.86096700  1
  Pm  Pm4  1  0.86618700  0.50000000  0.51061000  1
  Pm  Pm5  1  0.69244500  0.00000000  0.13903300  1
  Pm  Pm6  1  0.03222100  0.00000000  0.81342300  1
  Pm  Pm7  1  0.13381300  0.50000000  0.48939000  1
  Pm  Pm8  1  0.46777900  0.50000000  0.18657700  1
  Pm  Pm9  1  0.30755500  0.00000000  0.86096700  1
  Pm  Pm10  1  0.36618700  0.00000000  0.51061000  1
  Pm  Pm11  1  0.19244500  0.50000000  0.13903300  1
  O  O12  1  0.87066900  0.00000000  0.71468200  1
  O  O13  1  0.97342000  0.50000000  0.34352000  1
  O  O14  1  0.79794200  0.00000000  0.37398500  1
  O  O15  1  0.70205800  0.50000000  0.62601500  1
  O  O16  1  0.00000000  0.50000000  0.00000000  1
  O  O17  1  0.62933100  0.50000000  0.28531800  1
  O  O18  1  0.67486900  0.50000000  0.97327100  1
  O  O19  1  0.82513100  0.00000000  0.02672900  1
  O  O20  1  0.52658000  0.00000000  0.65648000  1
  O  O21  1  0.37066900  0.50000000  0.71468200  1
  O  O22  1  0.47342000  0.00000000  0.34352000  1
  O  O23  1  0.29794200  0.50000000  0.37398500  1
  O  O24  1  0.20205800  0.00000000  0.62601500  1
  O  O25  1  0.50000000  0.00000000  0.00000000  1
  O  O26  1  0.12933100  0.00000000  0.28531800  1
  O  O27  1  0.17486900  0.00000000  0.97327100  1
  O  O28  1  0.32513100  0.50000000  0.02672900  1
  O  O29  1  0.02658000  0.50000000  0.65648000  1
