# generated using pymatgen
data_Cs2Zr7CI18
_symmetry_space_group_name_H-M   'P 1'
_cell_length_a   11.08345999
_cell_length_b   11.08345999
_cell_length_c   29.99816591
_cell_angle_alpha   90.00000000
_cell_angle_beta   90.00000000
_cell_angle_gamma   120.00000000
_symmetry_Int_Tables_number   1
_chemical_formula_structural   Cs2Zr7CI18
_chemical_formula_sum   'Cs6 Zr21 C3 I54'
_cell_volume   3191.36185884
_cell_formula_units_Z   3
loop_
 _symmetry_equiv_pos_site_id
 _symmetry_equiv_pos_as_xyz
  1  'x, y, z'
loop_
 _atom_site_type_symbol
 _atom_site_label
 _atom_site_symmetry_multiplicity
 _atom_site_fract_x
 _atom_site_fract_y
 _atom_site_fract_z
 _atom_site_occupancy
  Cs  Cs0  1  0.66666667  0.33333333  0.10907233  1
  Cs  Cs1  1  0.00000000  0.00000000  0.22426100  1
  Cs  Cs2  1  0.33333333  0.66666667  0.44240567  1
  Cs  Cs3  1  0.66666667  0.33333333  0.55759433  1
  Cs  Cs4  1  0.00000000  0.00000000  0.77573900  1
  Cs  Cs5  1  0.33333333  0.66666667  0.89092767  1
  Zr  Zr6  1  0.62186867  0.14621533  0.28966533  1
  Zr  Zr7  1  0.04479800  0.18711800  0.04366800  1
  Zr  Zr8  1  0.14232000  0.95520200  0.04366800  1
  Zr  Zr9  1  0.81288200  0.85768000  0.04366800  1
  Zr  Zr10  1  0.52434667  0.37813133  0.28966533  1
  Zr  Zr11  1  0.85378467  0.47565333  0.28966533  1
  Zr  Zr12  1  0.33333333  0.66666667  0.16666667  1
  Zr  Zr13  1  0.28853533  0.47954867  0.62299867  1
  Zr  Zr14  1  0.71146467  0.52045133  0.37700133  1
  Zr  Zr15  1  0.80898667  0.28853533  0.37700133  1
  Zr  Zr16  1  0.47954867  0.19101333  0.37700133  1
  Zr  Zr17  1  0.19101333  0.71146467  0.62299867  1
  Zr  Zr18  1  0.52045133  0.80898667  0.62299867  1
  Zr  Zr19  1  1.00000000  0.00000000  0.50000000  1
  Zr  Zr20  1  0.95520200  0.81288200  0.95633200  1
  Zr  Zr21  1  0.37813133  0.85378467  0.71033467  1
  Zr  Zr22  1  0.47565333  0.62186867  0.71033467  1
  Zr  Zr23  1  0.14621533  0.52434667  0.71033467  1
  Zr  Zr24  1  0.85768000  0.04479800  0.95633200  1
  Zr  Zr25  1  0.18711800  0.14232000  0.95633200  1
  Zr  Zr26  1  0.66666667  0.33333333  0.83333333  1
  C  C27  1  0.00000000  0.00000000  0.00000000  1
  C  C28  1  0.66666667  0.33333333  0.33333333  1
  C  C29  1  0.33333333  0.66666667  0.66666667  1
  I  I30  1  0.35985000  0.89309100  0.11123100  1
  I  I31  1  0.30681667  0.44024233  0.22210233  1
  I  I32  1  0.94431467  0.76676233  0.11009833  1
  I  I33  1  0.72235200  0.56657100  0.22323500  1
  I  I34  1  0.23323767  0.17755233  0.11009833  1
  I  I35  1  0.87604633  0.28774767  0.00030467  1
  I  I36  1  0.55975767  0.86657433  0.22210233  1
  I  I37  1  0.95441433  0.74503467  0.33302867  1
  I  I38  1  0.79062033  0.04558567  0.33302867  1
  I  I39  1  0.25496533  0.20937967  0.33302867  1
  I  I40  1  0.84421900  0.27764800  0.22323500  1
  I  I41  1  0.71225233  0.58829867  0.00030467  1
  I  I42  1  0.41170133  0.12395367  0.00030467  1
  I  I43  1  0.43342900  0.15578100  0.22323500  1
  I  I44  1  0.53324100  0.64015000  0.11123100  1
  I  I45  1  0.10690900  0.46675900  0.11123100  1
  I  I46  1  0.13342567  0.69318333  0.22210233  1
  I  I47  1  0.82244767  0.05568533  0.11009833  1
  I  I48  1  0.02651667  0.22642433  0.44456433  1
  I  I49  1  0.97348333  0.77357567  0.55543567  1
  I  I50  1  0.61098133  0.10009567  0.44343167  1
  I  I51  1  0.38901867  0.89990433  0.55656833  1
  I  I52  1  0.89990433  0.51088567  0.44343167  1
  I  I53  1  0.54271300  0.62108100  0.33363800  1
  I  I54  1  0.22642433  0.19990767  0.55543567  1
  I  I55  1  0.62108100  0.07836800  0.66636200  1
  I  I56  1  0.45728700  0.37891900  0.66636200  1
  I  I57  1  0.92163200  0.54271300  0.66636200  1
  I  I58  1  0.51088567  0.61098133  0.55656833  1
  I  I59  1  0.37891900  0.92163200  0.33363800  1
  I  I60  1  0.07836800  0.45728700  0.33363800  1
  I  I61  1  0.10009567  0.48911433  0.55656833  1
  I  I62  1  0.19990767  0.97348333  0.44456433  1
  I  I63  1  0.77357567  0.80009233  0.44456433  1
  I  I64  1  0.80009233  0.02651667  0.55543567  1
  I  I65  1  0.48911433  0.38901867  0.44343167  1
  I  I66  1  0.69318333  0.55975767  0.77789767  1
  I  I67  1  0.64015000  0.10690900  0.88876900  1
  I  I68  1  0.27764800  0.43342900  0.77676500  1
  I  I69  1  0.05568533  0.23323767  0.88990167  1
  I  I70  1  0.56657100  0.84421900  0.77676500  1
  I  I71  1  0.20937967  0.95441433  0.66697133  1
  I  I72  1  0.89309100  0.53324100  0.88876900  1
  I  I73  1  0.28774767  0.41170133  0.99969533  1
  I  I74  1  0.12395367  0.71225233  0.99969533  1
  I  I75  1  0.58829867  0.87604633  0.99969533  1
  I  I76  1  0.17755233  0.94431467  0.88990167  1
  I  I77  1  0.04558567  0.25496533  0.66697133  1
  I  I78  1  0.74503467  0.79062033  0.66697133  1
  I  I79  1  0.76676233  0.82244767  0.88990167  1
  I  I80  1  0.86657433  0.30681667  0.77789767  1
  I  I81  1  0.44024233  0.13342567  0.77789767  1
  I  I82  1  0.46675900  0.35985000  0.88876900  1
  I  I83  1  0.15578100  0.72235200  0.77676500  1
