# generated using pymatgen
data_AlPO4
_symmetry_space_group_name_H-M   'P 1'
_cell_length_a   13.90045800
_cell_length_b   12.86149000
_cell_length_c   18.78603318
_cell_angle_alpha   90.00000000
_cell_angle_beta   90.24316425
_cell_angle_gamma   90.00000000
_symmetry_Int_Tables_number   1
_chemical_formula_structural   AlPO4
_chemical_formula_sum   'Al24 P24 O96'
_cell_volume   3358.54806679
_cell_formula_units_Z   24
loop_
 _symmetry_equiv_pos_site_id
 _symmetry_equiv_pos_as_xyz
  1  'x, y, z'
loop_
 _atom_site_type_symbol
 _atom_site_label
 _atom_site_symmetry_multiplicity
 _atom_site_fract_x
 _atom_site_fract_y
 _atom_site_fract_z
 _atom_site_occupancy
  Al  Al0  1  0.11082300  0.96115600  0.33407600  1
  Al  Al1  1  0.88917700  0.96115600  0.16592400  1
  Al  Al2  1  0.88917700  0.03884400  0.66592400  1
  Al  Al3  1  0.11082300  0.03884400  0.83407600  1
  Al  Al4  1  0.61709400  0.72605800  0.56162800  1
  Al  Al5  1  0.38290600  0.72605800  0.93837200  1
  Al  Al6  1  0.38290600  0.27394200  0.43837200  1
  Al  Al7  1  0.61709400  0.27394200  0.06162800  1
  Al  Al8  1  0.77091300  0.09540400  0.44970800  1
  Al  Al9  1  0.22908700  0.09540400  0.05029200  1
  Al  Al10  1  0.22908700  0.90459600  0.55029200  1
  Al  Al11  1  0.77091300  0.90459600  0.94970800  1
  Al  Al12  1  0.61082300  0.46115600  0.33407600  1
  Al  Al13  1  0.38917700  0.46115600  0.16592400  1
  Al  Al14  1  0.38917700  0.53884400  0.66592400  1
  Al  Al15  1  0.61082300  0.53884400  0.83407600  1
  Al  Al16  1  0.11709400  0.22605800  0.56162800  1
  Al  Al17  1  0.88290600  0.22605800  0.93837200  1
  Al  Al18  1  0.88290600  0.77394200  0.43837200  1
  Al  Al19  1  0.11709400  0.77394200  0.06162800  1
  Al  Al20  1  0.27091300  0.59540400  0.44970800  1
  Al  Al21  1  0.72908700  0.59540400  0.05029200  1
  Al  Al22  1  0.72908700  0.40459600  0.55029200  1
  Al  Al23  1  0.27091300  0.40459600  0.94970800  1
  P  P24  1  0.22912100  0.09693600  0.44594700  1
  P  P25  1  0.77087900  0.09693600  0.05405300  1
  P  P26  1  0.77087900  0.90306400  0.55405300  1
  P  P27  1  0.22912100  0.90306400  0.94594700  1
  P  P28  1  0.38896700  0.73017400  0.56267600  1
  P  P29  1  0.61103300  0.73017400  0.93732400  1
  P  P30  1  0.61103300  0.26982600  0.43732400  1
  P  P31  1  0.38896700  0.26982600  0.06267600  1
  P  P32  1  0.88340000  0.96809900  0.33450600  1
  P  P33  1  0.11660000  0.96809900  0.16549400  1
  P  P34  1  0.11660000  0.03190100  0.66549400  1
  P  P35  1  0.88340000  0.03190100  0.83450600  1
  P  P36  1  0.72912100  0.59693600  0.44594700  1
  P  P37  1  0.27087900  0.59693600  0.05405300  1
  P  P38  1  0.27087900  0.40306400  0.55405300  1
  P  P39  1  0.72912100  0.40306400  0.94594700  1
  P  P40  1  0.88896700  0.23017400  0.56267600  1
  P  P41  1  0.11103300  0.23017400  0.93732400  1
  P  P42  1  0.11103300  0.76982600  0.43732400  1
  P  P43  1  0.88896700  0.76982600  0.06267600  1
  P  P44  1  0.38340000  0.46809900  0.33450600  1
  P  P45  1  0.61660000  0.46809900  0.16549400  1
  P  P46  1  0.61660000  0.53190100  0.66549400  1
  P  P47  1  0.38340000  0.53190100  0.83450600  1
  O  O48  1  0.82110800  0.05188000  0.36985300  1
  O  O49  1  0.17889200  0.05188000  0.13014700  1
  O  O50  1  0.17889200  0.94812000  0.63014700  1
  O  O51  1  0.82110800  0.94812000  0.86985300  1
  O  O52  1  0.35714600  0.66908900  0.49598200  1
  O  O53  1  0.64285400  0.66908900  0.00401800  1
  O  O54  1  0.64285400  0.33091100  0.50401800  1
  O  O55  1  0.35714600  0.33091100  0.99598200  1
  O  O56  1  0.49553850  0.75871250  0.55510800  1
  O  O57  1  0.50446150  0.75871250  0.94489200  1
  O  O58  1  0.50446150  0.24128750  0.44489200  1
  O  O59  1  0.49553850  0.24128750  0.05510800  1
  O  O60  1  0.65368500  0.66726700  0.48187100  1
  O  O61  1  0.34631500  0.66726700  0.01812900  1
  O  O62  1  0.34631500  0.33273300  0.51812900  1
  O  O63  1  0.65368500  0.33273300  0.98187100  1
  O  O64  1  0.18425650  0.04904950  0.37899700  1
  O  O65  1  0.81574350  0.04904950  0.12100300  1
  O  O66  1  0.81574350  0.95095050  0.62100300  1
  O  O67  1  0.18425650  0.95095050  0.87899700  1
  O  O68  1  0.99008600  0.99787800  0.34435800  1
  O  O69  1  0.00991400  0.99787800  0.15564200  1
  O  O70  1  0.00991400  0.00212200  0.65564200  1
  O  O71  1  0.99008600  0.00212200  0.84435800  1
  O  O72  1  0.36371600  0.36090700  0.36792600  1
  O  O73  1  0.63628400  0.36090700  0.13207400  1
  O  O74  1  0.63628400  0.63909300  0.63207400  1
  O  O75  1  0.36371600  0.63909300  0.86792600  1
  O  O76  1  0.66891800  0.16905600  0.43028900  1
  O  O77  1  0.33108200  0.16905600  0.06971100  1
  O  O78  1  0.33108200  0.83094400  0.56971100  1
  O  O79  1  0.66891800  0.83094400  0.93028900  1
  O  O80  1  0.14308150  0.96259050  0.24462900  1
  O  O81  1  0.85691850  0.96259050  0.25537100  1
  O  O82  1  0.85691850  0.03740950  0.75537100  1
  O  O83  1  0.14308150  0.03740950  0.74462900  1
  O  O84  1  0.68300450  0.83935050  0.57679800  1
  O  O85  1  0.31699550  0.83935050  0.92320200  1
  O  O86  1  0.31699550  0.16064950  0.42320200  1
  O  O87  1  0.68300450  0.16064950  0.07679800  1
  O  O88  1  0.37350400  0.66410600  0.63022300  1
  O  O89  1  0.62649600  0.66410600  0.86977700  1
  O  O90  1  0.62649600  0.33589400  0.36977700  1
  O  O91  1  0.37350400  0.33589400  0.13022300  1
  O  O92  1  0.73741150  0.98875750  0.50225200  1
  O  O93  1  0.26258850  0.98875750  0.99774800  1
  O  O94  1  0.26258850  0.01124250  0.49774800  1
  O  O95  1  0.73741150  0.01124250  0.00225200  1
  O  O96  1  0.32110800  0.55188000  0.36985300  1
  O  O97  1  0.67889200  0.55188000  0.13014700  1
  O  O98  1  0.67889200  0.44812000  0.63014700  1
  O  O99  1  0.32110800  0.44812000  0.86985300  1
  O  O100  1  0.85714600  0.16908900  0.49598200  1
  O  O101  1  0.14285400  0.16908900  0.00401800  1
  O  O102  1  0.14285400  0.83091100  0.50401800  1
  O  O103  1  0.85714600  0.83091100  0.99598200  1
  O  O104  1  0.99553850  0.25871250  0.55510800  1
  O  O105  1  0.00446150  0.25871250  0.94489200  1
  O  O106  1  0.00446150  0.74128750  0.44489200  1
  O  O107  1  0.99553850  0.74128750  0.05510800  1
  O  O108  1  0.15368500  0.16726700  0.48187100  1
  O  O109  1  0.84631500  0.16726700  0.01812900  1
  O  O110  1  0.84631500  0.83273300  0.51812900  1
  O  O111  1  0.15368500  0.83273300  0.98187100  1
  O  O112  1  0.68425650  0.54904950  0.37899700  1
  O  O113  1  0.31574350  0.54904950  0.12100300  1
  O  O114  1  0.31574350  0.45095050  0.62100300  1
  O  O115  1  0.68425650  0.45095050  0.87899700  1
  O  O116  1  0.49008600  0.49787800  0.34435800  1
  O  O117  1  0.50991400  0.49787800  0.15564200  1
  O  O118  1  0.50991400  0.50212200  0.65564200  1
  O  O119  1  0.49008600  0.50212200  0.84435800  1
  O  O120  1  0.86371600  0.86090700  0.36792600  1
  O  O121  1  0.13628400  0.86090700  0.13207400  1
  O  O122  1  0.13628400  0.13909300  0.63207400  1
  O  O123  1  0.86371600  0.13909300  0.86792600  1
  O  O124  1  0.16891800  0.66905600  0.43028900  1
  O  O125  1  0.83108200  0.66905600  0.06971100  1
  O  O126  1  0.83108200  0.33094400  0.56971100  1
  O  O127  1  0.16891800  0.33094400  0.93028900  1
  O  O128  1  0.64308150  0.46259050  0.24462900  1
  O  O129  1  0.35691850  0.46259050  0.25537100  1
  O  O130  1  0.35691850  0.53740950  0.75537100  1
  O  O131  1  0.64308150  0.53740950  0.74462900  1
  O  O132  1  0.18300450  0.33935050  0.57679800  1
  O  O133  1  0.81699550  0.33935050  0.92320200  1
  O  O134  1  0.81699550  0.66064950  0.42320200  1
  O  O135  1  0.18300450  0.66064950  0.07679800  1
  O  O136  1  0.87350400  0.16410600  0.63022300  1
  O  O137  1  0.12649600  0.16410600  0.86977700  1
  O  O138  1  0.12649600  0.83589400  0.36977700  1
  O  O139  1  0.87350400  0.83589400  0.13022300  1
  O  O140  1  0.23741150  0.48875750  0.50225200  1
  O  O141  1  0.76258850  0.48875750  0.99774800  1
  O  O142  1  0.76258850  0.51124250  0.49774800  1
  O  O143  1  0.23741150  0.51124250  0.00225200  1
