# generated using pymatgen
data_Rb4P2Se9
_symmetry_space_group_name_H-M   'P 1'
_cell_length_a   9.97296200
_cell_length_b   10.77980800
_cell_length_c   19.60804242
_cell_angle_alpha   90.00000000
_cell_angle_beta   93.26292296
_cell_angle_gamma   90.00000000
_symmetry_Int_Tables_number   1
_chemical_formula_structural   Rb4P2Se9
_chemical_formula_sum   'Rb16 P8 Se36'
_cell_volume   2104.57692022
_cell_formula_units_Z   4
loop_
 _symmetry_equiv_pos_site_id
 _symmetry_equiv_pos_as_xyz
  1  'x, y, z'
loop_
 _atom_site_type_symbol
 _atom_site_label
 _atom_site_symmetry_multiplicity
 _atom_site_fract_x
 _atom_site_fract_y
 _atom_site_fract_z
 _atom_site_occupancy
  Rb  Rb0  1  0.53148250  0.75105750  0.47460700  1
  Rb  Rb1  1  0.46851750  0.24894250  0.52539300  1
  Rb  Rb2  1  0.65825750  0.09376250  0.32089100  1
  Rb  Rb3  1  0.34174250  0.90623750  0.67910900  1
  Rb  Rb4  1  0.34174250  0.09376250  0.17910900  1
  Rb  Rb5  1  0.53148250  0.24894250  0.97460700  1
  Rb  Rb6  1  0.46851750  0.75105750  0.02539300  1
  Rb  Rb7  1  0.65825750  0.90623750  0.82089100  1
  Rb  Rb8  1  0.03148250  0.25105750  0.47460700  1
  Rb  Rb9  1  0.96851750  0.74894250  0.52539300  1
  Rb  Rb10  1  0.15825750  0.59376250  0.32089100  1
  Rb  Rb11  1  0.84174250  0.40623750  0.67910900  1
  Rb  Rb12  1  0.84174250  0.59376250  0.17910900  1
  Rb  Rb13  1  0.03148250  0.74894250  0.97460700  1
  Rb  Rb14  1  0.96851750  0.25105750  0.02539300  1
  Rb  Rb15  1  0.15825750  0.40623750  0.82089100  1
  P  P16  1  0.26176250  0.00727950  0.38151700  1
  P  P17  1  0.73823750  0.00727950  0.11848300  1
  P  P18  1  0.73823750  0.99272050  0.61848300  1
  P  P19  1  0.26176250  0.99272050  0.88151700  1
  P  P20  1  0.76176250  0.50727950  0.38151700  1
  P  P21  1  0.23823750  0.50727950  0.11848300  1
  P  P22  1  0.23823750  0.49272050  0.61848300  1
  P  P23  1  0.76176250  0.49272050  0.88151700  1
  Se  Se24  1  0.97061000  0.01819300  0.64738300  1
  Se  Se25  1  0.31856600  0.80179000  0.85841200  1
  Se  Se26  1  0.02939000  0.98180700  0.35261700  1
  Se  Se27  1  0.37258500  0.87292700  0.32315300  1
  Se  Se28  1  0.24406650  0.96778050  0.49103700  1
  Se  Se29  1  0.75593350  0.03221950  0.50896300  1
  Se  Se30  1  0.68143400  0.19821000  0.14158800  1
  Se  Se31  1  0.02939000  0.01819300  0.85261700  1
  Se  Se32  1  0.62741500  0.87292700  0.17684700  1
  Se  Se33  1  0.97061000  0.98180700  0.14738300  1
  Se  Se34  1  0.24406650  0.03221950  0.99103700  1
  Se  Se35  1  0.62741500  0.12707300  0.67684700  1
  Se  Se36  1  0.37258500  0.12707300  0.82315300  1
  Se  Se37  1  0.75593350  0.96778050  0.00896300  1
  Se  Se38  1  0.50000000  0.59899100  0.25000000  1
  Se  Se39  1  0.31856600  0.19821000  0.35841200  1
  Se  Se40  1  0.68143400  0.80179000  0.64158800  1
  Se  Se41  1  0.50000000  0.40100900  0.75000000  1
  Se  Se42  1  0.47061000  0.51819300  0.64738300  1
  Se  Se43  1  0.81856600  0.30179000  0.85841200  1
  Se  Se44  1  0.52939000  0.48180700  0.35261700  1
  Se  Se45  1  0.87258500  0.37292700  0.32315300  1
  Se  Se46  1  0.74406650  0.46778050  0.49103700  1
  Se  Se47  1  0.25593350  0.53221950  0.50896300  1
  Se  Se48  1  0.18143400  0.69821000  0.14158800  1
  Se  Se49  1  0.52939000  0.51819300  0.85261700  1
  Se  Se50  1  0.12741500  0.37292700  0.17684700  1
  Se  Se51  1  0.47061000  0.48180700  0.14738300  1
  Se  Se52  1  0.74406650  0.53221950  0.99103700  1
  Se  Se53  1  0.12741500  0.62707300  0.67684700  1
  Se  Se54  1  0.87258500  0.62707300  0.82315300  1
  Se  Se55  1  0.25593350  0.46778050  0.00896300  1
  Se  Se56  1  0.00000000  0.09899100  0.25000000  1
  Se  Se57  1  0.81856600  0.69821000  0.35841200  1
  Se  Se58  1  0.18143400  0.30179000  0.64158800  1
  Se  Se59  1  0.00000000  0.90100900  0.75000000  1
