# generated using pymatgen
data_ReSbOF10
_symmetry_space_group_name_H-M   'P 1'
_cell_length_a   8.20329700
_cell_length_b   6.69807500
_cell_length_c   8.22039538
_cell_angle_alpha   90.00000000
_cell_angle_beta   94.51176828
_cell_angle_gamma   90.00000000
_symmetry_Int_Tables_number   1
_chemical_formula_structural   ReSbOF10
_chemical_formula_sum   'Re2 Sb2 O2 F20'
_cell_volume   450.28063083
_cell_formula_units_Z   2
loop_
 _symmetry_equiv_pos_site_id
 _symmetry_equiv_pos_as_xyz
  1  'x, y, z'
loop_
 _atom_site_type_symbol
 _atom_site_label
 _atom_site_symmetry_multiplicity
 _atom_site_fract_x
 _atom_site_fract_y
 _atom_site_fract_z
 _atom_site_occupancy
  Re  Re0  1  0.19195700  0.98901400  0.18972100  1
  Re  Re1  1  0.80804300  0.98901400  0.81027900  1
  Sb  Sb2  1  0.67074200  0.48645000  0.32512600  1
  Sb  Sb3  1  0.32925800  0.48645000  0.67487400  1
  O  O4  1  0.65677200  0.97360500  0.66005400  1
  O  O5  1  0.34322800  0.97360500  0.33994600  1
  F  F6  1  0.23840100  0.71787600  0.56845500  1
  F  F7  1  0.98379400  0.99326100  0.68323200  1
  F  F8  1  0.00000000  0.01068900  0.00000000  1
  F  F9  1  0.51841900  0.65008700  0.19990900  1
  F  F10  1  0.68254600  0.98644100  0.98713000  1
  F  F11  1  0.84515500  0.71952700  0.84323400  1
  F  F12  1  0.50000000  0.49198500  0.50000000  1
  F  F13  1  0.17967300  0.26321600  0.17304700  1
  F  F14  1  0.01620600  0.99326100  0.31676800  1
  F  F15  1  0.82617200  0.48221000  0.16624400  1
  F  F16  1  0.44206100  0.25568000  0.75908800  1
  F  F17  1  0.15484500  0.71952700  0.15676600  1
  F  F18  1  0.79640700  0.32249600  0.47663400  1
  F  F19  1  0.31745400  0.98644100  0.01287000  1
  F  F20  1  0.82032700  0.26321600  0.82695300  1
  F  F21  1  0.17382800  0.48221000  0.83375600  1
  F  F22  1  0.20359300  0.32249600  0.52336600  1
  F  F23  1  0.48158100  0.65008700  0.80009100  1
  F  F24  1  0.55793900  0.25568000  0.24091200  1
  F  F25  1  0.76159900  0.71787600  0.43154500  1
