# generated using pymatgen
data_AsS2NF10
_symmetry_space_group_name_H-M   'P 1'
_cell_length_a   10.08460100
_cell_length_b   12.31436600
_cell_length_c   15.15133300
_cell_angle_alpha   90.00000000
_cell_angle_beta   90.00000000
_cell_angle_gamma   90.00000000
_symmetry_Int_Tables_number   1
_chemical_formula_structural   AsS2NF10
_chemical_formula_sum   'As8 S16 N8 F80'
_cell_volume   1881.57537455
_cell_formula_units_Z   8
loop_
 _symmetry_equiv_pos_site_id
 _symmetry_equiv_pos_as_xyz
  1  'x, y, z'
loop_
 _atom_site_type_symbol
 _atom_site_label
 _atom_site_symmetry_multiplicity
 _atom_site_fract_x
 _atom_site_fract_y
 _atom_site_fract_z
 _atom_site_occupancy
  As  As0  1  0.23451100  0.11305200  0.91732400  1
  As  As1  1  0.26548900  0.61305200  0.91732400  1
  As  As2  1  0.76548900  0.61305200  0.58267600  1
  As  As3  1  0.26548900  0.88694800  0.41732400  1
  As  As4  1  0.23451100  0.38694800  0.41732400  1
  As  As5  1  0.73451100  0.11305200  0.58267600  1
  As  As6  1  0.76548900  0.88694800  0.08267600  1
  As  As7  1  0.73451100  0.38694800  0.08267600  1
  S  S8  1  0.98573100  0.83474500  0.83481900  1
  S  S9  1  0.01426900  0.33474500  0.66518100  1
  S  S10  1  0.64087700  0.34413300  0.40268000  1
  S  S11  1  0.01426900  0.16525500  0.16518100  1
  S  S12  1  0.85912300  0.65586700  0.90268000  1
  S  S13  1  0.35912300  0.65586700  0.59732000  1
  S  S14  1  0.35912300  0.84413300  0.09732000  1
  S  S15  1  0.48573100  0.83474500  0.66518100  1
  S  S16  1  0.98573100  0.66525500  0.33481900  1
  S  S17  1  0.14087700  0.34413300  0.09732000  1
  S  S18  1  0.64087700  0.15586700  0.90268000  1
  S  S19  1  0.85912300  0.84413300  0.40268000  1
  S  S20  1  0.48573100  0.66525500  0.16518100  1
  S  S21  1  0.14087700  0.15586700  0.59732000  1
  S  S22  1  0.51426900  0.16525500  0.33481900  1
  S  S23  1  0.51426900  0.33474500  0.83481900  1
  N  N24  1  0.89779500  0.73083600  0.82278000  1
  N  N25  1  0.39779500  0.73083600  0.67722000  1
  N  N26  1  0.10220500  0.23083600  0.67722000  1
  N  N27  1  0.10220500  0.26916400  0.17722000  1
  N  N28  1  0.60220500  0.26916400  0.32278000  1
  N  N29  1  0.60220500  0.23083600  0.82278000  1
  N  N30  1  0.89779500  0.76916400  0.32278000  1
  N  N31  1  0.39779500  0.76916400  0.17722000  1
  F  F32  1  0.20358500  0.64999600  0.61084000  1
  F  F33  1  0.30309500  0.10018800  0.81098200  1
  F  F34  1  0.30309500  0.39981200  0.31098200  1
  F  F35  1  0.30335200  0.51321200  0.44925100  1
  F  F36  1  0.80335200  0.98678800  0.55074900  1
  F  F37  1  0.32850500  0.87104200  0.52790200  1
  F  F38  1  0.88859700  0.95889100  0.35998500  1
  F  F39  1  0.91971400  0.17749900  0.24821900  1
  F  F40  1  0.29641500  0.35000400  0.11084000  1
  F  F41  1  0.89317900  0.92276500  0.79039800  1
  F  F42  1  0.58028600  0.67749900  0.24821900  1
  F  F43  1  0.88445700  0.17938800  0.54656200  1
  F  F44  1  0.16765300  0.25877800  0.39115500  1
  F  F45  1  0.91338100  0.95212800  0.11541000  1
  F  F46  1  0.88445700  0.32061200  0.04656200  1
  F  F47  1  0.19690500  0.89981200  0.31098200  1
  F  F48  1  0.10682100  0.42276500  0.70960200  1
  F  F49  1  0.30335200  0.98678800  0.94925100  1
  F  F50  1  0.41971400  0.17749900  0.25178100  1
  F  F51  1  0.60682100  0.07723500  0.29039800  1
  F  F52  1  0.67149500  0.37104200  0.97209800  1
  F  F53  1  0.19664800  0.48678800  0.94925100  1
  F  F54  1  0.08028600  0.67749900  0.25178100  1
  F  F55  1  0.61554300  0.82061200  0.04656200  1
  F  F56  1  0.80309500  0.10018800  0.68901800  1
  F  F57  1  0.89317900  0.57723500  0.29039800  1
  F  F58  1  0.10682100  0.07723500  0.20960200  1
  F  F59  1  0.58661900  0.04787200  0.61541000  1
  F  F60  1  0.20358500  0.85000400  0.11084000  1
  F  F61  1  0.32850500  0.62895800  0.02790200  1
  F  F62  1  0.19664800  0.01321200  0.44925100  1
  F  F63  1  0.33234700  0.74122200  0.89115500  1
  F  F64  1  0.69690500  0.89981200  0.18901800  1
  F  F65  1  0.66765300  0.25877800  0.10884500  1
  F  F66  1  0.39317900  0.92276500  0.70960200  1
  F  F67  1  0.11140300  0.04110900  0.64001500  1
  F  F68  1  0.38445700  0.17938800  0.95343800  1
  F  F69  1  0.69664800  0.01321200  0.05074900  1
  F  F70  1  0.19690500  0.60018800  0.81098200  1
  F  F71  1  0.41338100  0.54787200  0.88459000  1
  F  F72  1  0.39317900  0.57723500  0.20960200  1
  F  F73  1  0.08661900  0.04787200  0.88459000  1
  F  F74  1  0.91971400  0.32250100  0.74821900  1
  F  F75  1  0.79641500  0.35000400  0.38916000  1
  F  F76  1  0.29641500  0.14999600  0.61084000  1
  F  F77  1  0.38859700  0.54110900  0.64001500  1
  F  F78  1  0.66765300  0.24122200  0.60884500  1
  F  F79  1  0.17149500  0.37104200  0.52790200  1
  F  F80  1  0.91338100  0.54787200  0.61541000  1
  F  F81  1  0.33234700  0.75877800  0.39115500  1
  F  F82  1  0.60682100  0.42276500  0.79039800  1
  F  F83  1  0.41971400  0.32250100  0.75178100  1
  F  F84  1  0.69664800  0.48678800  0.55074900  1
  F  F85  1  0.41338100  0.95212800  0.38459000  1
  F  F86  1  0.61140300  0.04110900  0.85998500  1
  F  F87  1  0.70358500  0.85000400  0.38916000  1
  F  F88  1  0.61140300  0.45889100  0.35998500  1
  F  F89  1  0.80335200  0.51321200  0.05074900  1
  F  F90  1  0.38445700  0.32061200  0.45343800  1
  F  F91  1  0.83234700  0.75877800  0.10884500  1
  F  F92  1  0.58661900  0.45212800  0.11541000  1
  F  F93  1  0.58028600  0.82250100  0.74821900  1
  F  F94  1  0.67149500  0.12895800  0.47209800  1
  F  F95  1  0.80309500  0.39981200  0.18901800  1
  F  F96  1  0.38859700  0.95889100  0.14001500  1
  F  F97  1  0.82850500  0.87104200  0.97209800  1
  F  F98  1  0.69690500  0.60018800  0.68901800  1
  F  F99  1  0.11140300  0.45889100  0.14001500  1
  F  F100  1  0.70358500  0.64999600  0.88916000  1
  F  F101  1  0.08661900  0.45212800  0.38459000  1
  F  F102  1  0.08028600  0.82250100  0.75178100  1
  F  F103  1  0.83234700  0.74122200  0.60884500  1
  F  F104  1  0.16765300  0.24122200  0.89115500  1
  F  F105  1  0.61554300  0.67938800  0.54656200  1
  F  F106  1  0.17149500  0.12895800  0.02790200  1
  F  F107  1  0.11554300  0.82061200  0.45343800  1
  F  F108  1  0.82850500  0.62895800  0.47209800  1
  F  F109  1  0.79641500  0.14999600  0.88916000  1
  F  F110  1  0.11554300  0.67938800  0.95343800  1
  F  F111  1  0.88859700  0.54110900  0.85998500  1
