# generated using pymatgen
data_K2PO4
_symmetry_space_group_name_H-M   'P 1'
_cell_length_a   5.97723000
_cell_length_b   10.38388200
_cell_length_c   7.49120263
_cell_angle_alpha   90.00000000
_cell_angle_beta   99.12457758
_cell_angle_gamma   90.00000000
_symmetry_Int_Tables_number   1
_chemical_formula_structural   K2PO4
_chemical_formula_sum   'K8 P4 O16'
_cell_volume   459.07175332
_cell_formula_units_Z   4
loop_
 _symmetry_equiv_pos_site_id
 _symmetry_equiv_pos_as_xyz
  1  'x, y, z'
loop_
 _atom_site_type_symbol
 _atom_site_label
 _atom_site_symmetry_multiplicity
 _atom_site_fract_x
 _atom_site_fract_y
 _atom_site_fract_z
 _atom_site_occupancy
  K  K0  1  0.25176500  0.08449500  0.82781700  1
  K  K1  1  0.74823500  0.58449500  0.67218300  1
  K  K2  1  0.74823500  0.91550500  0.17218300  1
  K  K3  1  0.25176500  0.41550500  0.32781700  1
  K  K4  1  0.76299400  0.23142300  0.52605800  1
  K  K5  1  0.23700600  0.73142300  0.97394200  1
  K  K6  1  0.23700600  0.76857700  0.47394200  1
  K  K7  1  0.76299400  0.26857700  0.02605800  1
  P  P8  1  0.27905800  0.07502800  0.28043900  1
  P  P9  1  0.72094200  0.92497200  0.71956100  1
  P  P10  1  0.27905800  0.42497200  0.78043900  1
  P  P11  1  0.72094200  0.57502800  0.21956100  1
  O  O12  1  0.54212200  0.84597000  0.79540700  1
  O  O13  1  0.54212200  0.65403000  0.29540700  1
  O  O14  1  0.22506000  0.94721600  0.18138300  1
  O  O15  1  0.38998200  0.46177700  0.99804100  1
  O  O16  1  0.61001800  0.96177700  0.50195900  1
  O  O17  1  0.77494000  0.44721600  0.31861700  1
  O  O18  1  0.92711100  0.84926000  0.68092400  1
  O  O19  1  0.92711100  0.65074000  0.18092400  1
  O  O20  1  0.45787800  0.15403000  0.20459300  1
  O  O21  1  0.07288900  0.34926000  0.81907600  1
  O  O22  1  0.38998200  0.03822300  0.49804100  1
  O  O23  1  0.61001800  0.53822300  0.00195900  1
  O  O24  1  0.45787800  0.34597000  0.70459300  1
  O  O25  1  0.77494000  0.05278400  0.81861700  1
  O  O26  1  0.07288900  0.15074000  0.31907600  1
  O  O27  1  0.22506000  0.55278400  0.68138300  1
