# generated using pymatgen
data_Y(PO3)3
_symmetry_space_group_name_H-M   'P 1'
_cell_length_a   21.44626469
_cell_length_b   21.44626469
_cell_length_c   12.39919661
_cell_angle_alpha   90.00000000
_cell_angle_beta   90.00000000
_cell_angle_gamma   120.00000000
_symmetry_Int_Tables_number   1
_chemical_formula_structural   Y(PO3)3
_chemical_formula_sum   'Y24 P72 O216'
_cell_volume   4938.86894076
_cell_formula_units_Z   24
loop_
 _symmetry_equiv_pos_site_id
 _symmetry_equiv_pos_as_xyz
  1  'x, y, z'
loop_
 _atom_site_type_symbol
 _atom_site_label
 _atom_site_symmetry_multiplicity
 _atom_site_fract_x
 _atom_site_fract_y
 _atom_site_fract_z
 _atom_site_occupancy
  Y  Y0  1  0.00000000  0.00000000  0.50000000  1
  Y  Y1  1  0.96822467  0.22568333  0.76316833  1
  Y  Y2  1  0.74254133  0.96822467  0.23683167  1
  Y  Y3  1  0.55901667  0.92412533  0.90349833  1
  Y  Y4  1  0.10765000  0.40920800  0.42983500  1
  Y  Y5  1  0.00000000  0.00000000  0.00000000  1
  Y  Y6  1  0.69844200  0.10765000  0.57016500  1
  Y  Y7  1  0.92412533  0.36510867  0.09650167  1
  Y  Y8  1  0.66666667  0.33333333  0.83333333  1
  Y  Y9  1  0.63489133  0.55901667  0.09650167  1
  Y  Y10  1  0.40920800  0.30155800  0.57016500  1
  Y  Y11  1  0.22568333  0.25745867  0.23683167  1
  Y  Y12  1  0.77431667  0.74254133  0.76316833  1
  Y  Y13  1  0.66666667  0.33333333  0.33333333  1
  Y  Y14  1  0.36510867  0.44098333  0.90349833  1
  Y  Y15  1  0.59079200  0.69844200  0.42983500  1
  Y  Y16  1  0.33333333  0.66666667  0.16666667  1
  Y  Y17  1  0.30155800  0.89235000  0.42983500  1
  Y  Y18  1  0.07587467  0.63489133  0.90349833  1
  Y  Y19  1  0.89235000  0.59079200  0.57016500  1
  Y  Y20  1  0.44098333  0.07587467  0.09650167  1
  Y  Y21  1  0.33333333  0.66666667  0.66666667  1
  Y  Y22  1  0.03177533  0.77431667  0.23683167  1
  Y  Y23  1  0.25745867  0.03177533  0.76316833  1
  P  P24  1  0.63846267  0.05942533  0.29267433  1
  P  P25  1  0.78835900  0.16284400  0.83591700  1
  P  P26  1  0.83317067  0.91768233  0.64773533  1
  P  P27  1  0.83349600  0.41565100  0.68559800  1
  P  P28  1  0.16284400  0.37448500  0.16408300  1
  P  P29  1  0.91768233  0.08451167  0.35226467  1
  P  P30  1  0.41784500  0.83349600  0.31440200  1
  P  P31  1  0.60724133  0.91237067  0.62600767  1
  P  P32  1  0.17859833  0.53989667  0.83899267  1
  P  P33  1  0.91237067  0.30512933  0.37399233  1
  P  P34  1  0.79343667  0.30536833  0.50565933  1
  P  P35  1  0.95884833  0.45502567  0.83074967  1
  P  P36  1  0.70781833  0.87830767  0.50258367  1
  P  P37  1  0.74898433  0.24882167  0.98106867  1
  P  P38  1  0.05942533  0.42096267  0.70732567  1
  P  P39  1  0.02820400  0.27390800  0.04065900  1
  P  P40  1  0.75429600  0.02820400  0.95934100  1
  P  P41  1  0.24882167  0.49983733  0.01893133  1
  P  P42  1  0.50382267  0.95884833  0.16925033  1
  P  P43  1  0.63870167  0.17859833  0.16100733  1
  P  P44  1  0.87830767  0.17048933  0.49741633  1
  P  P45  1  0.02796500  0.15473500  0.17232600  1
  P  P46  1  0.87323000  0.02796500  0.82767400  1
  P  P47  1  0.48806833  0.79343667  0.49434067  1
  P  P48  1  0.30512933  0.39275867  0.62600767  1
  P  P49  1  0.45502567  0.49617733  0.16925033  1
  P  P50  1  0.49983733  0.25101567  0.98106867  1
  P  P51  1  0.50016267  0.74898433  0.01893133  1
  P  P52  1  0.82951067  0.70781833  0.49741633  1
  P  P53  1  0.58434900  0.41784500  0.68559800  1
  P  P54  1  0.08451167  0.16682933  0.64773533  1
  P  P55  1  0.27390800  0.24570400  0.95934100  1
  P  P56  1  0.84526500  0.87323000  0.17232600  1
  P  P57  1  0.57903733  0.63846267  0.70732567  1
  P  P58  1  0.46010333  0.63870167  0.83899267  1
  P  P59  1  0.62551500  0.78835900  0.16408300  1
  P  P60  1  0.37448500  0.21164100  0.83591700  1
  P  P61  1  0.41565100  0.58215500  0.31440200  1
  P  P62  1  0.72609200  0.75429600  0.04065900  1
  P  P63  1  0.69487067  0.60724133  0.37399233  1
  P  P64  1  0.42096267  0.36153733  0.29267433  1
  P  P65  1  0.91548833  0.83317067  0.35226467  1
  P  P66  1  0.17048933  0.29218167  0.50258367  1
  P  P67  1  0.30536833  0.51193167  0.49434067  1
  P  P68  1  0.54497433  0.50382267  0.83074967  1
  P  P69  1  0.69463167  0.48806833  0.50565933  1
  P  P70  1  0.53989667  0.36129833  0.16100733  1
  P  P71  1  0.15473500  0.12677000  0.82767400  1
  P  P72  1  0.97179600  0.72609200  0.95934100  1
  P  P73  1  0.12169233  0.82951067  0.50258367  1
  P  P74  1  0.16650400  0.58434900  0.31440200  1
  P  P75  1  0.16682933  0.08231767  0.35226467  1
  P  P76  1  0.49617733  0.04115167  0.83074967  1
  P  P77  1  0.25101567  0.75117833  0.01893133  1
  P  P78  1  0.75117833  0.50016267  0.98106867  1
  P  P79  1  0.94057467  0.57903733  0.29267433  1
  P  P80  1  0.51193167  0.20656333  0.50565933  1
  P  P81  1  0.24570400  0.97179600  0.04065900  1
  P  P82  1  0.12677000  0.97203500  0.17232600  1
  P  P83  1  0.29218167  0.12169233  0.49741633  1
  P  P84  1  0.04115167  0.54497433  0.16925033  1
  P  P85  1  0.08231767  0.91548833  0.64773533  1
  P  P86  1  0.39275867  0.08762933  0.37399233  1
  P  P87  1  0.36153733  0.94057467  0.70732567  1
  P  P88  1  0.08762933  0.69487067  0.62600767  1
  P  P89  1  0.58215500  0.16650400  0.68559800  1
  P  P90  1  0.83715600  0.62551500  0.83591700  1
  P  P91  1  0.97203500  0.84526500  0.82767400  1
  P  P92  1  0.21164100  0.83715600  0.16408300  1
  P  P93  1  0.36129833  0.82140167  0.83899267  1
  P  P94  1  0.20656333  0.69463167  0.49434067  1
  P  P95  1  0.82140167  0.46010333  0.16100733  1
  O  O96  1  0.84602600  0.98685100  0.71497000  1
  O  O97  1  0.78795967  0.92478233  0.54991133  1
  O  O98  1  0.00152800  0.20558100  0.11847400  1
  O  O99  1  0.98980533  0.34596267  0.40684667  1
  O  O100  1  0.11255967  0.31150533  0.48958233  1
  O  O101  1  0.98685100  0.14082500  0.28503000  1
  O  O102  1  0.91937333  0.21359467  0.59392367  1
  O  O103  1  0.80227067  0.90912033  0.19647833  1
  O  O104  1  0.66513867  0.12775233  0.21485933  1
  O  O105  1  0.67686133  0.98737067  0.92648667  1
  O  O106  1  0.74729333  0.11973867  0.73940967  1
  O  O107  1  0.54509967  0.81750833  0.95809433  1
  O  O108  1  0.93135167  0.02729333  0.39594533  1
  O  O109  1  0.19651067  0.45462633  0.11675533  1
  O  O110  1  0.53891433  0.87071967  0.54819267  1
  O  O111  1  0.41989933  0.75272767  0.55845167  1
  O  O112  1  0.23739167  0.59801833  0.27072133  1
  O  O113  1  0.02182800  0.46772100  0.15624900  1
  O  O114  1  0.58301667  0.89387633  0.74048633  1
  O  O115  1  0.87071967  0.33180533  0.45180733  1
  O  O116  1  0.78740167  0.11226533  0.93348433  1
  O  O117  1  0.00846967  0.45406833  0.73318233  1
  O  O118  1  0.22648367  0.46893733  0.47018833  1
  O  O119  1  0.00050500  0.08656600  0.10821500  1
  O  O120  1  0.75272767  0.33282833  0.44154833  1
  O  O121  1  0.47415833  0.82064067  0.38163667  1
  O  O122  1  0.73531500  0.30604000  0.93738800  1
  O  O123  1  0.08365000  0.43945700  0.59284700  1
  O  O124  1  0.70577867  0.91937333  0.40607633  1
  O  O125  1  0.02247367  0.24968333  0.92618033  1
  O  O126  1  0.44018300  0.86439600  0.86314500  1
  O  O127  1  0.64419300  0.08365000  0.40715300  1
  O  O128  1  0.86561233  0.22077367  0.82291567  1
  O  O129  1  0.67929600  0.02282400  0.25982000  1
  O  O130  1  0.12156700  0.51582500  0.37523900  1
  O  O131  1  0.64384267  0.98980533  0.59315333  1
  O  O132  1  0.19250833  0.51269267  0.95169667  1
  O  O133  1  0.82064067  0.34648233  0.61836333  1
  O  O134  1  0.81750833  0.27240867  0.04190567  1
  O  O135  1  0.96088800  0.41396000  0.92725700  1
  O  O136  1  0.64483867  0.86561233  0.17708433  1
  O  O137  1  0.02282400  0.34352800  0.74018000  1
  O  O138  1  0.80105433  0.11255967  0.51041767  1
  O  O139  1  0.63937333  0.23739167  0.72927867  1
  O  O140  1  0.66616167  0.24676733  0.22511833  1
  O  O141  1  0.98737067  0.31050933  0.07351333  1
  O  O142  1  0.77279033  0.02247367  0.07381967  1
  O  O143  1  0.75754633  0.22648367  0.52981167  1
  O  O144  1  0.92478233  0.13682267  0.45008867  1
  O  O145  1  0.86439600  0.42421300  0.13685500  1
  O  O146  1  0.65819700  0.87926500  0.60015100  1
  O  O147  1  0.11226533  0.32486367  0.06651567  1
  O  O148  1  0.12775233  0.46261367  0.78514067  1
  O  O149  1  0.55440133  0.00846967  0.26681767  1
  O  O150  1  0.24676733  0.58060567  0.77488167  1
  O  O151  1  0.87870700  0.40855100  0.78342200  1
  O  O152  1  0.74188433  0.19651067  0.88324467  1
  O  O153  1  0.47015600  0.87870700  0.21657800  1
  O  O154  1  0.90912033  0.10684967  0.80352167  1
  O  O155  1  0.06092467  0.21176633  0.70857233  1
  O  O156  1  0.87926500  0.22106800  0.39984900  1
  O  O157  1  0.79594700  0.00152800  0.88152600  1
  O  O158  1  0.67981567  0.19250833  0.04830333  1
  O  O159  1  0.84915833  0.06092467  0.29142767  1
  O  O160  1  0.11973867  0.37244533  0.26059033  1
  O  O161  1  0.02729333  0.09594167  0.60405467  1
  O  O162  1  0.42927500  0.73531500  0.06261200  1
  O  O163  1  0.54692800  0.96088800  0.07274300  1
  O  O164  1  0.89387633  0.31085967  0.25951367  1
  O  O165  1  0.55410700  0.02182800  0.84375100  1
  O  O166  1  0.60574200  0.12156700  0.62476100  1
  O  O167  1  0.91393900  0.00050500  0.89178500  1
  O  O168  1  0.51269267  0.32018433  0.04830333  1
  O  O169  1  0.45462633  0.25811567  0.88324467  1
  O  O170  1  0.66819467  0.53891433  0.45180733  1
  O  O171  1  0.65647200  0.67929600  0.74018000  1
  O  O172  1  0.77922633  0.64483867  0.82291567  1
  O  O173  1  0.65351767  0.47415833  0.61836333  1
  O  O174  1  0.58604000  0.54692800  0.92725700  1
  O  O175  1  0.46893733  0.24245367  0.52981167  1
  O  O176  1  0.33180533  0.46108567  0.54819267  1
  O  O177  1  0.34352800  0.32070400  0.25982000  1
  O  O178  1  0.41396000  0.45307200  0.07274300  1
  O  O179  1  0.21176633  0.15084167  0.29142767  1
  O  O180  1  0.59801833  0.36062667  0.72927867  1
  O  O181  1  0.86317733  0.78795967  0.45008867  1
  O  O182  1  0.20558100  0.20405300  0.88152600  1
  O  O183  1  0.08656600  0.08606100  0.89178500  1
  O  O184  1  0.90405833  0.93135167  0.60405467  1
  O  O185  1  0.68849467  0.80105433  0.48958233  1
  O  O186  1  0.24968333  0.22720967  0.07381967  1
  O  O187  1  0.53738633  0.66513867  0.78514067  1
  O  O188  1  0.45406833  0.44559867  0.26681767  1
  O  O189  1  0.67513633  0.78740167  0.06651567  1
  O  O190  1  0.89315033  0.80227067  0.80352167  1
  O  O191  1  0.66717167  0.41989933  0.44154833  1
  O  O192  1  0.41939433  0.66616167  0.77488167  1
  O  O193  1  0.14082500  0.15397400  0.71497000  1
  O  O194  1  0.40198167  0.63937333  0.27072133  1
  O  O195  1  0.75031667  0.77279033  0.92618033  1
  O  O196  1  0.37244533  0.25270667  0.73940967  1
  O  O197  1  0.68914033  0.58301667  0.25951367  1
  O  O198  1  0.10684967  0.19772933  0.19647833  1
  O  O199  1  0.31085967  0.41698333  0.74048633  1
  O  O200  1  0.53227900  0.55410700  0.15624900  1
  O  O201  1  0.34596267  0.35615733  0.59315333  1
  O  O202  1  0.78823367  0.84915833  0.70857233  1
  O  O203  1  0.31050933  0.32313867  0.92648667  1
  O  O204  1  0.85917500  0.84602600  0.28503000  1
  O  O205  1  0.48730733  0.67981567  0.95169667  1
  O  O206  1  0.48417500  0.60574200  0.37523900  1
  O  O207  1  0.62755467  0.74729333  0.26059033  1
  O  O208  1  0.31150533  0.19894567  0.51041767  1
  O  O209  1  0.68949067  0.67686133  0.07351333  1
  O  O210  1  0.46772100  0.44589300  0.84375100  1
  O  O211  1  0.30604000  0.57072500  0.06261200  1
  O  O212  1  0.33282833  0.58010067  0.55845167  1
  O  O213  1  0.65403733  0.64384267  0.40684667  1
  O  O214  1  0.43945700  0.35580700  0.40715300  1
  O  O215  1  0.42421300  0.55981700  0.86314500  1
  O  O216  1  0.59144900  0.47015600  0.78342200  1
  O  O217  1  0.53106267  0.75754633  0.47018833  1
  O  O218  1  0.32486367  0.21259833  0.93348433  1
  O  O219  1  0.77893200  0.65819700  0.39984900  1
  O  O220  1  0.79441900  0.79594700  0.11847400  1
  O  O221  1  0.22106800  0.34180300  0.60015100  1
  O  O222  1  0.91343400  0.91393900  0.10821500  1
  O  O223  1  0.54537367  0.74188433  0.11675533  1
  O  O224  1  0.40855100  0.52984400  0.21657800  1
  O  O225  1  0.13682267  0.21204033  0.54991133  1
  O  O226  1  0.57578700  0.44018300  0.13685500  1
  O  O227  1  0.72759133  0.54509967  0.04190567  1
  O  O228  1  0.54593167  0.55440133  0.73318233  1
  O  O229  1  0.46261367  0.33486133  0.21485933  1
  O  O230  1  0.34648233  0.52584167  0.38163667  1
  O  O231  1  0.51582500  0.39425800  0.62476100  1
  O  O232  1  0.78640533  0.70577867  0.59392367  1
  O  O233  1  0.69396000  0.42927500  0.93738800  1
  O  O234  1  0.09594167  0.06864833  0.39594533  1
  O  O235  1  0.21359467  0.29422133  0.40607633  1
  O  O236  1  0.56054300  0.64419300  0.59284700  1
  O  O237  1  0.22077367  0.35516133  0.17708433  1
  O  O238  1  0.27240867  0.45490033  0.95809433  1
  O  O239  1  0.58060567  0.33383833  0.22511833  1
  O  O240  1  0.17935933  0.65351767  0.38163667  1
  O  O241  1  0.12129300  0.59144900  0.21657800  1
  O  O242  1  0.33486133  0.87224767  0.78514067  1
  O  O243  1  0.32313867  0.01262933  0.07351333  1
  O  O244  1  0.44589300  0.97817200  0.15624900  1
  O  O245  1  0.32018433  0.80749167  0.95169667  1
  O  O246  1  0.25270667  0.88026133  0.26059033  1
  O  O247  1  0.13560400  0.57578700  0.86314500  1
  O  O248  1  0.99847200  0.79441900  0.88152600  1
  O  O249  1  0.01019467  0.65403733  0.59315333  1
  O  O250  1  0.08062667  0.78640533  0.40607633  1
  O  O251  1  0.87843300  0.48417500  0.62476100  1
  O  O252  1  0.26468500  0.69396000  0.06261200  1
  O  O253  1  0.52984400  0.12129300  0.78342200  1
  O  O254  1  0.87224767  0.53738633  0.21485933  1
  O  O255  1  0.75323267  0.41939433  0.22511833  1
  O  O256  1  0.57072500  0.26468500  0.93738800  1
  O  O257  1  0.35516133  0.13438767  0.82291567  1
  O  O258  1  0.91635000  0.56054300  0.40715300  1
  O  O259  1  0.20405300  0.99847200  0.11847400  1
  O  O260  1  0.12073500  0.77893200  0.60015100  1
  O  O261  1  0.34180300  0.12073500  0.39984900  1
  O  O262  1  0.55981700  0.13560400  0.13685500  1
  O  O263  1  0.33383833  0.75323267  0.77488167  1
  O  O264  1  0.08606100  0.99949500  0.10821500  1
  O  O265  1  0.80749167  0.48730733  0.04830333  1
  O  O266  1  0.06864833  0.97270667  0.60405467  1
  O  O267  1  0.41698333  0.10612367  0.25951367  1
  O  O268  1  0.03911200  0.58604000  0.07274300  1
  O  O269  1  0.35580700  0.91635000  0.59284700  1
  O  O270  1  0.77351633  0.53106267  0.52981167  1
  O  O271  1  0.97752633  0.75031667  0.07381967  1
  O  O272  1  0.19894567  0.88744033  0.48958233  1
  O  O273  1  0.01262933  0.68949067  0.92648667  1
  O  O274  1  0.45490033  0.18249167  0.04190567  1
  O  O275  1  0.97717600  0.65647200  0.25982000  1
  O  O276  1  0.52584167  0.17935933  0.61836333  1
  O  O277  1  0.15397400  0.01314900  0.28503000  1
  O  O278  1  0.15084167  0.93907533  0.70857233  1
  O  O279  1  0.29422133  0.08062667  0.59392367  1
  O  O280  1  0.97817200  0.53227900  0.84375100  1
  O  O281  1  0.35615733  0.01019467  0.40684667  1
  O  O282  1  0.13438767  0.77922633  0.17708433  1
  O  O283  1  0.97270667  0.90405833  0.39594533  1
  O  O284  1  0.99949500  0.91343400  0.89178500  1
  O  O285  1  0.32070400  0.97717600  0.74018000  1
  O  O286  1  0.10612367  0.68914033  0.74048633  1
  O  O287  1  0.09087967  0.89315033  0.19647833  1
  O  O288  1  0.25811567  0.80348933  0.11675533  1
  O  O289  1  0.19772933  0.09087967  0.80352167  1
  O  O290  1  0.99153033  0.54593167  0.26681767  1
  O  O291  1  0.44559867  0.99153033  0.73318233  1
  O  O292  1  0.46108567  0.12928033  0.45180733  1
  O  O293  1  0.88773467  0.67513633  0.93348433  1
  O  O294  1  0.58010067  0.24727233  0.44154833  1
  O  O295  1  0.21204033  0.07521767  0.45008867  1
  O  O296  1  0.07521767  0.86317733  0.54991133  1
  O  O297  1  0.80348933  0.54537367  0.88324467  1
  O  O298  1  0.24245367  0.77351633  0.47018833  1
  O  O299  1  0.39425800  0.87843300  0.37523900  1
  O  O300  1  0.21259833  0.88773467  0.06651567  1
  O  O301  1  0.12928033  0.66819467  0.54819267  1
  O  O302  1  0.01314900  0.85917500  0.71497000  1
  O  O303  1  0.18249167  0.72759133  0.95809433  1
  O  O304  1  0.45307200  0.03911200  0.92725700  1
  O  O305  1  0.36062667  0.76260833  0.27072133  1
  O  O306  1  0.76260833  0.40198167  0.72927867  1
  O  O307  1  0.88026133  0.62755467  0.73940967  1
  O  O308  1  0.22720967  0.97752633  0.92618033  1
  O  O309  1  0.88744033  0.68849467  0.51041767  1
  O  O310  1  0.93907533  0.78823367  0.29142767  1
  O  O311  1  0.24727233  0.66717167  0.55845167  1
