# generated using pymatgen
data_CsCr5S8
_symmetry_space_group_name_H-M   'P 1'
_cell_length_a   18.10725800
_cell_length_b   3.52542400
_cell_length_c   8.84117671
_cell_angle_alpha   90.00000000
_cell_angle_beta   104.90490579
_cell_angle_gamma   90.00000000
_symmetry_Int_Tables_number   1
_chemical_formula_structural   CsCr5S8
_chemical_formula_sum   'Cs2 Cr10 S16'
_cell_volume   545.39404603
_cell_formula_units_Z   2
loop_
 _symmetry_equiv_pos_site_id
 _symmetry_equiv_pos_as_xyz
  1  'x, y, z'
loop_
 _atom_site_type_symbol
 _atom_site_label
 _atom_site_symmetry_multiplicity
 _atom_site_fract_x
 _atom_site_fract_y
 _atom_site_fract_z
 _atom_site_occupancy
  Cs  Cs0  1  0.00000000  0.50000000  0.50000000  1
  Cs  Cs1  1  0.50000000  0.00000000  0.50000000  1
  Cr  Cr2  1  0.00000000  0.00000000  0.00000000  1
  Cr  Cr3  1  0.34003400  0.00000000  0.02037300  1
  Cr  Cr4  1  0.15996600  0.50000000  0.97962700  1
  Cr  Cr5  1  0.29540300  0.00000000  0.66532200  1
  Cr  Cr6  1  0.20459700  0.50000000  0.33467800  1
  Cr  Cr7  1  0.50000000  0.50000000  0.00000000  1
  Cr  Cr8  1  0.84003400  0.50000000  0.02037300  1
  Cr  Cr9  1  0.65996600  0.00000000  0.97962700  1
  Cr  Cr10  1  0.79540300  0.50000000  0.66532200  1
  Cr  Cr11  1  0.70459700  0.00000000  0.33467800  1
  S  S12  1  0.07647100  0.50000000  0.14869300  1
  S  S13  1  0.42352900  0.00000000  0.85130700  1
  S  S14  1  0.08884800  0.00000000  0.83917800  1
  S  S15  1  0.41115200  0.50000000  0.16082200  1
  S  S16  1  0.17364200  0.00000000  0.48536200  1
  S  S17  1  0.32635800  0.50000000  0.51463800  1
  S  S18  1  0.23881900  0.00000000  0.15728900  1
  S  S19  1  0.26118100  0.50000000  0.84271100  1
  S  S20  1  0.57647100  0.00000000  0.14869300  1
  S  S21  1  0.92352900  0.50000000  0.85130700  1
  S  S22  1  0.58884800  0.50000000  0.83917800  1
  S  S23  1  0.91115200  0.00000000  0.16082200  1
  S  S24  1  0.67364200  0.50000000  0.48536200  1
  S  S25  1  0.82635800  0.00000000  0.51463800  1
  S  S26  1  0.73881900  0.50000000  0.15728900  1
  S  S27  1  0.76118100  0.00000000  0.84271100  1
