# generated using pymatgen
data_CSCl(OF)3
_symmetry_space_group_name_H-M   'P 1'
_cell_length_a   5.28213700
_cell_length_b   23.67984400
_cell_length_c   5.39716356
_cell_angle_alpha   90.00000000
_cell_angle_beta   113.00356585
_cell_angle_gamma   90.00000000
_symmetry_Int_Tables_number   1
_chemical_formula_structural   CSCl(OF)3
_chemical_formula_sum   'C4 S4 Cl4 O12 F12'
_cell_volume   621.39633369
_cell_formula_units_Z   4
loop_
 _symmetry_equiv_pos_site_id
 _symmetry_equiv_pos_as_xyz
  1  'x, y, z'
loop_
 _atom_site_type_symbol
 _atom_site_label
 _atom_site_symmetry_multiplicity
 _atom_site_fract_x
 _atom_site_fract_y
 _atom_site_fract_z
 _atom_site_occupancy
  C  C0  1  0.28852300  0.42907900  0.17901000  1
  C  C1  1  0.28852300  0.07092100  0.67901000  1
  C  C2  1  0.71147700  0.92907900  0.32099000  1
  C  C3  1  0.71147700  0.57092100  0.82099000  1
  S  S4  1  0.46950200  0.16233800  0.50850400  1
  S  S5  1  0.46950200  0.33766200  0.00850400  1
  S  S6  1  0.53049800  0.83766200  0.49149600  1
  S  S7  1  0.53049800  0.66233800  0.99149600  1
  Cl  Cl8  1  0.88309800  0.68886000  0.28341100  1
  Cl  Cl9  1  0.11690200  0.18886000  0.21658900  1
  Cl  Cl10  1  0.88309800  0.81114000  0.78341100  1
  Cl  Cl11  1  0.11690200  0.31114000  0.71658900  1
  O  O12  1  0.60094800  0.12330900  0.39580200  1
  O  O13  1  0.65169100  0.62892100  0.79319800  1
  O  O14  1  0.60094800  0.37669100  0.89580200  1
  O  O15  1  0.39450000  0.70999500  0.83472600  1
  O  O16  1  0.34830900  0.12892100  0.70680200  1
  O  O17  1  0.60550000  0.20999500  0.66527400  1
  O  O18  1  0.34830900  0.37107900  0.20680200  1
  O  O19  1  0.39905200  0.62330900  0.10419800  1
  O  O20  1  0.39905200  0.87669100  0.60419800  1
  O  O21  1  0.65169100  0.87107900  0.29319800  1
  O  O22  1  0.60550000  0.29000500  0.16527400  1
  O  O23  1  0.39450000  0.79000500  0.33472600  1
  F  F24  1  0.85012300  0.56020400  0.66425600  1
  F  F25  1  0.86720800  0.94355800  0.57722800  1
  F  F26  1  0.14987700  0.43979600  0.33574400  1
  F  F27  1  0.86720800  0.55644200  0.07722800  1
  F  F28  1  0.47929200  0.96011300  0.23536900  1
  F  F29  1  0.14987700  0.06020400  0.83574400  1
  F  F30  1  0.13279200  0.05644200  0.42277200  1
  F  F31  1  0.52070800  0.03988700  0.76463100  1
  F  F32  1  0.52070800  0.46011300  0.26463100  1
  F  F33  1  0.47929200  0.53988700  0.73536900  1
  F  F34  1  0.85012300  0.93979600  0.16425600  1
  F  F35  1  0.13279200  0.44355800  0.92277200  1
