# generated using pymatgen
data_SiO2
_symmetry_space_group_name_H-M   'P 1'
_cell_length_a   14.15053000
_cell_length_b   14.15053000
_cell_length_c   9.06504600
_cell_angle_alpha   90.00000000
_cell_angle_beta   90.00000000
_cell_angle_gamma   90.00000000
_symmetry_Int_Tables_number   1
_chemical_formula_structural   SiO2
_chemical_formula_sum   'Si32 O64'
_cell_volume   1815.16214191
_cell_formula_units_Z   32
loop_
 _symmetry_equiv_pos_site_id
 _symmetry_equiv_pos_as_xyz
  1  'x, y, z'
loop_
 _atom_site_type_symbol
 _atom_site_label
 _atom_site_symmetry_multiplicity
 _atom_site_fract_x
 _atom_site_fract_y
 _atom_site_fract_z
 _atom_site_occupancy
  Si  Si0  1  0.60088950  0.25990150  0.82501650  1
  Si  Si1  1  0.75990150  0.89911050  0.32501650  1
  Si  Si2  1  0.60088950  0.74009850  0.67498350  1
  Si  Si3  1  0.24009850  0.89911050  0.17498350  1
  Si  Si4  1  0.75990150  0.10088950  0.17498350  1
  Si  Si5  1  0.39911050  0.25990150  0.67498350  1
  Si  Si6  1  0.39911050  0.25990150  0.32501650  1
  Si  Si7  1  0.75990150  0.10088950  0.82501650  1
  Si  Si8  1  0.39911050  0.74009850  0.17498350  1
  Si  Si9  1  0.75990150  0.89911050  0.67498350  1
  Si  Si10  1  0.60088950  0.74009850  0.32501650  1
  Si  Si11  1  0.39911050  0.74009850  0.82501650  1
  Si  Si12  1  0.60088950  0.25990150  0.17498350  1
  Si  Si13  1  0.24009850  0.10088950  0.67498350  1
  Si  Si14  1  0.24009850  0.10088950  0.32501650  1
  Si  Si15  1  0.24009850  0.89911050  0.82501650  1
  Si  Si16  1  0.10088950  0.75990150  0.32501650  1
  Si  Si17  1  0.25990150  0.39911050  0.82501650  1
  Si  Si18  1  0.10088950  0.24009850  0.17498350  1
  Si  Si19  1  0.74009850  0.39911050  0.67498350  1
  Si  Si20  1  0.25990150  0.60088950  0.67498350  1
  Si  Si21  1  0.89911050  0.75990150  0.17498350  1
  Si  Si22  1  0.89911050  0.75990150  0.82501650  1
  Si  Si23  1  0.25990150  0.60088950  0.32501650  1
  Si  Si24  1  0.89911050  0.24009850  0.67498350  1
  Si  Si25  1  0.25990150  0.39911050  0.17498350  1
  Si  Si26  1  0.10088950  0.24009850  0.82501650  1
  Si  Si27  1  0.89911050  0.24009850  0.32501650  1
  Si  Si28  1  0.10088950  0.75990150  0.67498350  1
  Si  Si29  1  0.74009850  0.60088950  0.17498350  1
  Si  Si30  1  0.74009850  0.60088950  0.82501650  1
  Si  Si31  1  0.74009850  0.39911050  0.32501650  1
  O  O32  1  0.33003350  0.83003350  0.79745550  1
  O  O33  1  0.85429300  0.85429300  0.25000000  1
  O  O34  1  0.50000000  0.23611100  0.75000000  1
  O  O35  1  0.41333200  0.27875400  0.50000000  1
  O  O36  1  0.66996650  0.83003350  0.70254450  1
  O  O37  1  0.66996650  0.16996650  0.20254450  1
  O  O38  1  0.64570700  0.35429300  0.75000000  1
  O  O39  1  0.50000000  0.76388900  0.75000000  1
  O  O40  1  0.77875400  0.08666800  0.00000000  1
  O  O41  1  0.85429300  0.14570700  0.75000000  1
  O  O42  1  0.58666800  0.72124600  0.50000000  1
  O  O43  1  0.50000000  0.23611100  0.25000000  1
  O  O44  1  0.66996650  0.83003350  0.29745550  1
  O  O45  1  0.64570700  0.64570700  0.75000000  1
  O  O46  1  0.64570700  0.35429300  0.25000000  1
  O  O47  1  0.73611100  0.00000000  0.75000000  1
  O  O48  1  0.66996650  0.16996650  0.79745550  1
  O  O49  1  0.50000000  0.76388900  0.25000000  1
  O  O50  1  0.58666800  0.27875400  0.00000000  1
  O  O51  1  0.22124600  0.08666800  0.50000000  1
  O  O52  1  0.33003350  0.16996650  0.70254450  1
  O  O53  1  0.77875400  0.91333200  0.50000000  1
  O  O54  1  0.33003350  0.16996650  0.29745550  1
  O  O55  1  0.41333200  0.72124600  0.00000000  1
  O  O56  1  0.22124600  0.91333200  0.00000000  1
  O  O57  1  0.26388900  0.00000000  0.25000000  1
  O  O58  1  0.26388900  0.00000000  0.75000000  1
  O  O59  1  0.85429300  0.85429300  0.75000000  1
  O  O60  1  0.73611100  0.00000000  0.25000000  1
  O  O61  1  0.64570700  0.64570700  0.25000000  1
  O  O62  1  0.33003350  0.83003350  0.20254450  1
  O  O63  1  0.85429300  0.14570700  0.25000000  1
  O  O64  1  0.83003350  0.33003350  0.29745550  1
  O  O65  1  0.35429300  0.35429300  0.75000000  1
  O  O66  1  0.00000000  0.73611100  0.25000000  1
  O  O67  1  0.91333200  0.77875400  0.00000000  1
  O  O68  1  0.16996650  0.33003350  0.20254450  1
  O  O69  1  0.16996650  0.66996650  0.70254450  1
  O  O70  1  0.14570700  0.85429300  0.25000000  1
  O  O71  1  0.00000000  0.26388900  0.25000000  1
  O  O72  1  0.27875400  0.58666800  0.50000000  1
  O  O73  1  0.35429300  0.64570700  0.25000000  1
  O  O74  1  0.08666800  0.22124600  0.00000000  1
  O  O75  1  0.00000000  0.73611100  0.75000000  1
  O  O76  1  0.16996650  0.33003350  0.79745550  1
  O  O77  1  0.14570700  0.14570700  0.25000000  1
  O  O78  1  0.14570700  0.85429300  0.75000000  1
  O  O79  1  0.23611100  0.50000000  0.25000000  1
  O  O80  1  0.16996650  0.66996650  0.29745550  1
  O  O81  1  0.00000000  0.26388900  0.75000000  1
  O  O82  1  0.08666800  0.77875400  0.50000000  1
  O  O83  1  0.72124600  0.58666800  0.00000000  1
  O  O84  1  0.83003350  0.66996650  0.20254450  1
  O  O85  1  0.27875400  0.41333200  0.00000000  1
  O  O86  1  0.83003350  0.66996650  0.79745550  1
  O  O87  1  0.91333200  0.22124600  0.50000000  1
  O  O88  1  0.72124600  0.41333200  0.50000000  1
  O  O89  1  0.76388900  0.50000000  0.75000000  1
  O  O90  1  0.76388900  0.50000000  0.25000000  1
  O  O91  1  0.35429300  0.35429300  0.25000000  1
  O  O92  1  0.23611100  0.50000000  0.75000000  1
  O  O93  1  0.14570700  0.14570700  0.75000000  1
  O  O94  1  0.83003350  0.33003350  0.70254450  1
  O  O95  1  0.35429300  0.64570700  0.75000000  1
