# generated using pymatgen
data_Tl2O
_symmetry_space_group_name_H-M   'P 1'
_cell_length_a   6.27419800
_cell_length_b   3.63526800
_cell_length_c   13.17192488
_cell_angle_alpha   90.00000000
_cell_angle_beta   99.01268823
_cell_angle_gamma   90.00000000
_symmetry_Int_Tables_number   1
_chemical_formula_structural   Tl2O
_chemical_formula_sum   'Tl8 O4'
_cell_volume   296.72120383
_cell_formula_units_Z   4
loop_
 _symmetry_equiv_pos_site_id
 _symmetry_equiv_pos_as_xyz
  1  'x, y, z'
loop_
 _atom_site_type_symbol
 _atom_site_label
 _atom_site_symmetry_multiplicity
 _atom_site_fract_x
 _atom_site_fract_y
 _atom_site_fract_z
 _atom_site_occupancy
  Tl  Tl0  1  0.12621900  0.00000000  0.36467000  1
  Tl  Tl1  1  0.28417600  0.00000000  0.86719800  1
  Tl  Tl2  1  0.87378100  0.00000000  0.63533000  1
  Tl  Tl3  1  0.71582400  0.00000000  0.13280200  1
  Tl  Tl4  1  0.62621900  0.50000000  0.36467000  1
  Tl  Tl5  1  0.78417600  0.50000000  0.86719800  1
  Tl  Tl6  1  0.37378100  0.50000000  0.63533000  1
  Tl  Tl7  1  0.21582400  0.50000000  0.13280200  1
  O  O8  1  0.57647400  0.00000000  0.75100700  1
  O  O9  1  0.42352600  0.00000000  0.24899300  1
  O  O10  1  0.07647400  0.50000000  0.75100700  1
  O  O11  1  0.92352600  0.50000000  0.24899300  1
