# generated using pymatgen
data_CdI2
_symmetry_space_group_name_H-M   'P 1'
_cell_length_a   4.33225171
_cell_length_b   4.33225171
_cell_length_c   66.08622475
_cell_angle_alpha   90.00000000
_cell_angle_beta   90.00000000
_cell_angle_gamma   120.00000000
_symmetry_Int_Tables_number   1
_chemical_formula_structural   CdI2
_chemical_formula_sum   'Cd9 I18'
_cell_volume   1074.15990871
_cell_formula_units_Z   9
loop_
 _symmetry_equiv_pos_site_id
 _symmetry_equiv_pos_as_xyz
  1  'x, y, z'
loop_
 _atom_site_type_symbol
 _atom_site_label
 _atom_site_symmetry_multiplicity
 _atom_site_fract_x
 _atom_site_fract_y
 _atom_site_fract_z
 _atom_site_occupancy
  Cd  Cd0  1  0.33333333  0.66666667  0.22221667  1
  Cd  Cd1  1  0.00000000  0.00000000  0.00000000  1
  Cd  Cd2  1  0.33333333  0.66666667  0.11111667  1
  Cd  Cd3  1  0.00000000  0.00000000  0.55555000  1
  Cd  Cd4  1  0.66666667  0.33333333  0.33333333  1
  Cd  Cd5  1  0.00000000  0.00000000  0.44445000  1
  Cd  Cd6  1  0.66666667  0.33333333  0.88888333  1
  Cd  Cd7  1  0.33333333  0.66666667  0.66666667  1
  Cd  Cd8  1  0.66666667  0.33333333  0.77778333  1
  I  I9  1  0.33333333  0.66666667  0.30718467  1
  I  I10  1  0.33333333  0.66666667  0.02614867  1
  I  I11  1  0.66666667  0.33333333  0.19606733  1
  I  I12  1  0.00000000  0.00000000  0.13726600  1
  I  I13  1  0.66666667  0.33333333  0.08497133  1
  I  I14  1  0.00000000  0.00000000  0.24836200  1
  I  I15  1  0.00000000  0.00000000  0.64051800  1
  I  I16  1  0.00000000  0.00000000  0.35948200  1
  I  I17  1  0.33333333  0.66666667  0.52940067  1
  I  I18  1  0.66666667  0.33333333  0.47059933  1
  I  I19  1  0.33333333  0.66666667  0.41830467  1
  I  I20  1  0.66666667  0.33333333  0.58169533  1
  I  I21  1  0.66666667  0.33333333  0.97385133  1
  I  I22  1  0.66666667  0.33333333  0.69281533  1
  I  I23  1  0.00000000  0.00000000  0.86273400  1
  I  I24  1  0.33333333  0.66666667  0.80393267  1
  I  I25  1  0.00000000  0.00000000  0.75163800  1
  I  I26  1  0.33333333  0.66666667  0.91502867  1
