# generated using pymatgen
data_BaU(SiO4)2
_symmetry_space_group_name_H-M   'P 1'
_cell_length_a   5.73499400
_cell_length_b   16.79019600
_cell_length_c   7.70589400
_cell_angle_alpha   90.00000000
_cell_angle_beta   90.00000000
_cell_angle_gamma   90.00000000
_symmetry_Int_Tables_number   1
_chemical_formula_structural   BaU(SiO4)2
_chemical_formula_sum   'Ba4 U4 Si8 O32'
_cell_volume   742.01342768
_cell_formula_units_Z   4
loop_
 _symmetry_equiv_pos_site_id
 _symmetry_equiv_pos_as_xyz
  1  'x, y, z'
loop_
 _atom_site_type_symbol
 _atom_site_label
 _atom_site_symmetry_multiplicity
 _atom_site_fract_x
 _atom_site_fract_y
 _atom_site_fract_z
 _atom_site_occupancy
  Ba  Ba0  1  0.00000000  0.78899900  0.75000000  1
  Ba  Ba1  1  0.50000000  0.71100100  0.25000000  1
  Ba  Ba2  1  0.50000000  0.28899900  0.75000000  1
  Ba  Ba3  1  0.00000000  0.21100100  0.25000000  1
  U  U4  1  0.50000000  0.62201100  0.75000000  1
  U  U5  1  0.00000000  0.87798900  0.25000000  1
  U  U6  1  0.00000000  0.12201100  0.75000000  1
  U  U7  1  0.50000000  0.37798900  0.25000000  1
  Si  Si8  1  0.00000000  0.59450900  0.04037500  1
  Si  Si9  1  0.50000000  0.90549100  0.95962500  1
  Si  Si10  1  0.00000000  0.59450900  0.45962500  1
  Si  Si11  1  0.50000000  0.90549100  0.54037500  1
  Si  Si12  1  0.50000000  0.09450900  0.04037500  1
  Si  Si13  1  0.00000000  0.40549100  0.95962500  1
  Si  Si14  1  0.50000000  0.09450900  0.45962500  1
  Si  Si15  1  0.00000000  0.40549100  0.54037500  1
  O  O16  1  0.23092750  0.63908050  0.53751900  1
  O  O17  1  0.00000000  0.98711700  0.25000000  1
  O  O18  1  0.26907250  0.86091950  0.03751900  1
  O  O19  1  0.50000000  0.51288300  0.75000000  1
  O  O20  1  0.76907250  0.63908050  0.96248100  1
  O  O21  1  0.23092750  0.63908050  0.96248100  1
  O  O22  1  0.73092750  0.86091950  0.03751900  1
  O  O23  1  0.76907250  0.63908050  0.53751900  1
  O  O24  1  0.73092750  0.86091950  0.46248100  1
  O  O25  1  0.50000000  0.73298400  0.75000000  1
  O  O26  1  0.50000000  0.89382500  0.75000000  1
  O  O27  1  0.50000000  0.00000000  0.50000000  1
  O  O28  1  0.26907250  0.86091950  0.46248100  1
  O  O29  1  0.00000000  0.76701600  0.25000000  1
  O  O30  1  0.50000000  0.00000000  0.00000000  1
  O  O31  1  0.00000000  0.60617500  0.25000000  1
  O  O32  1  0.73092750  0.13908050  0.53751900  1
  O  O33  1  0.50000000  0.48711700  0.25000000  1
  O  O34  1  0.76907250  0.36091950  0.03751900  1
  O  O35  1  0.00000000  0.01288300  0.75000000  1
  O  O36  1  0.26907250  0.13908050  0.96248100  1
  O  O37  1  0.73092750  0.13908050  0.96248100  1
  O  O38  1  0.23092750  0.36091950  0.03751900  1
  O  O39  1  0.26907250  0.13908050  0.53751900  1
  O  O40  1  0.23092750  0.36091950  0.46248100  1
  O  O41  1  0.00000000  0.23298400  0.75000000  1
  O  O42  1  0.00000000  0.39382500  0.75000000  1
  O  O43  1  0.00000000  0.50000000  0.50000000  1
  O  O44  1  0.76907250  0.36091950  0.46248100  1
  O  O45  1  0.50000000  0.26701600  0.25000000  1
  O  O46  1  0.00000000  0.50000000  0.00000000  1
  O  O47  1  0.50000000  0.10617500  0.25000000  1
