# generated using pymatgen
data_K2Ti(SiO3)3
_symmetry_space_group_name_H-M   'P 1'
_cell_length_a   10.16874597
_cell_length_b   10.16874597
_cell_length_c   15.01949366
_cell_angle_alpha   90.00000000
_cell_angle_beta   90.00000000
_cell_angle_gamma   120.00000000
_symmetry_Int_Tables_number   1
_chemical_formula_structural   K2Ti(SiO3)3
_chemical_formula_sum   'K12 Ti6 Si18 O54'
_cell_volume   1344.99515591
_cell_formula_units_Z   6
loop_
 _symmetry_equiv_pos_site_id
 _symmetry_equiv_pos_as_xyz
  1  'x, y, z'
loop_
 _atom_site_type_symbol
 _atom_site_label
 _atom_site_symmetry_multiplicity
 _atom_site_fract_x
 _atom_site_fract_y
 _atom_site_fract_z
 _atom_site_occupancy
  K  K0  1  0.43870567  0.10269933  0.33091133  1
  K  K1  1  0.66399367  0.56129433  0.33091133  1
  K  K2  1  0.89730067  0.33600633  0.33091133  1
  K  K3  1  0.33333333  0.66666667  0.16316667  1
  K  K4  1  0.10537233  0.43603267  0.66424467  1
  K  K5  1  0.33066033  0.89462767  0.66424467  1
  K  K6  1  0.56396733  0.66933967  0.66424467  1
  K  K7  1  0.00000000  0.00000000  0.49650000  1
  K  K8  1  0.77203900  0.76936600  0.99757800  1
  K  K9  1  0.99732700  0.22796100  0.99757800  1
  K  K10  1  0.23063400  0.00267300  0.99757800  1
  K  K11  1  0.66666667  0.33333333  0.82983333  1
  Ti  Ti12  1  0.33333333  0.66666667  0.88907067  1
  Ti  Ti13  1  0.33333333  0.66666667  0.40744467  1
  Ti  Ti14  1  0.00000000  0.00000000  0.22240400  1
  Ti  Ti15  1  0.00000000  0.00000000  0.74077800  1
  Ti  Ti16  1  0.66666667  0.33333333  0.55573733  1
  Ti  Ti17  1  0.66666667  0.33333333  0.07411133  1
  Si  Si18  1  0.34380067  0.27562133  0.16617933  1
  Si  Si19  1  0.72437867  0.06817933  0.16617933  1
  Si  Si20  1  0.93182067  0.65619933  0.16617933  1
  Si  Si21  1  0.54885233  0.98498667  0.00019667  1
  Si  Si22  1  0.01501333  0.56386567  0.00019667  1
  Si  Si23  1  0.43613433  0.45114767  0.00019667  1
  Si  Si24  1  0.01046733  0.60895467  0.49951267  1
  Si  Si25  1  0.39104533  0.40151267  0.49951267  1
  Si  Si26  1  0.59848733  0.98953267  0.49951267  1
  Si  Si27  1  0.21551900  0.31832000  0.33353000  1
  Si  Si28  1  0.68168000  0.89719900  0.33353000  1
  Si  Si29  1  0.10280100  0.78448100  0.33353000  1
  Si  Si30  1  0.67713400  0.94228800  0.83284600  1
  Si  Si31  1  0.05771200  0.73484600  0.83284600  1
  Si  Si32  1  0.26515400  0.32286600  0.83284600  1
  Si  Si33  1  0.88218567  0.65165333  0.66686333  1
  Si  Si34  1  0.34834667  0.23053233  0.66686333  1
  Si  Si35  1  0.76946767  0.11781433  0.66686333  1
  O  O36  1  0.28618267  0.48991033  0.81378733  1
  O  O37  1  0.05450600  0.63571700  0.10274400  1
  O  O38  1  0.36428300  0.41878900  0.10274400  1
  O  O39  1  0.67075267  0.02790833  0.27166433  1
  O  O40  1  0.35715567  0.32924733  0.27166433  1
  O  O41  1  0.51722867  0.74305433  0.33062833  1
  O  O42  1  0.42845933  0.85055867  0.48215967  1
  O  O43  1  0.42209933  0.57154067  0.48215967  1
  O  O44  1  0.25694567  0.77417433  0.33062833  1
  O  O45  1  0.97209167  0.64284433  0.27166433  1
  O  O46  1  0.14944133  0.57790067  0.48215967  1
  O  O47  1  0.22582567  0.48277133  0.33062833  1
  O  O48  1  0.58121100  0.94549400  0.10274400  1
  O  O49  1  0.15377967  0.54087433  0.96727233  1
  O  O50  1  0.45912567  0.61290533  0.96727233  1
  O  O51  1  0.20372767  0.71381733  0.81378733  1
  O  O52  1  0.38709467  0.84622033  0.96727233  1
  O  O53  1  0.51008967  0.79627233  0.81378733  1
  O  O54  1  0.95284933  0.82324367  0.14712067  1
  O  O55  1  0.72117267  0.96905033  0.43607733  1
  O  O56  1  0.03094967  0.75212233  0.43607733  1
  O  O57  1  0.33741933  0.36124167  0.60499767  1
  O  O58  1  0.02382233  0.66258067  0.60499767  1
  O  O59  1  0.18389533  0.07638767  0.66396167  1
  O  O60  1  0.09512600  0.18389200  0.81549300  1
  O  O61  1  0.08876600  0.90487400  0.81549300  1
  O  O62  1  0.92361233  0.10750767  0.66396167  1
  O  O63  1  0.63875833  0.97617767  0.60499767  1
  O  O64  1  0.81610800  0.91123400  0.81549300  1
  O  O65  1  0.89249233  0.81610467  0.66396167  1
  O  O66  1  0.24787767  0.27882733  0.43607733  1
  O  O67  1  0.82044633  0.87420767  0.30060567  1
  O  O68  1  0.12579233  0.94623867  0.30060567  1
  O  O69  1  0.87039433  0.04715067  0.14712067  1
  O  O70  1  0.05376133  0.17955367  0.30060567  1
  O  O71  1  0.17675633  0.12960567  0.14712067  1
  O  O72  1  0.61951600  0.15657700  0.48045400  1
  O  O73  1  0.38783933  0.30238367  0.76941067  1
  O  O74  1  0.69761633  0.08545567  0.76941067  1
  O  O75  1  0.00408600  0.69457500  0.93833100  1
  O  O76  1  0.69048900  0.99591400  0.93833100  1
  O  O77  1  0.85056200  0.40972100  0.99729500  1
  O  O78  1  0.76179267  0.51722533  0.14882633  1
  O  O79  1  0.75543267  0.23820733  0.14882633  1
  O  O80  1  0.59027900  0.44084100  0.99729500  1
  O  O81  1  0.30542500  0.30951100  0.93833100  1
  O  O82  1  0.48277467  0.24456733  0.14882633  1
  O  O83  1  0.55915900  0.14943800  0.99729500  1
  O  O84  1  0.91454433  0.61216067  0.76941067  1
  O  O85  1  0.48711300  0.20754100  0.63393900  1
  O  O86  1  0.79245900  0.27957200  0.63393900  1
  O  O87  1  0.53706100  0.38048400  0.48045400  1
  O  O88  1  0.72042800  0.51288700  0.63393900  1
  O  O89  1  0.84342300  0.46293900  0.48045400  1
