# generated using pymatgen
data_BaMnF4
_symmetry_space_group_name_H-M   'P 1'
_cell_length_a   4.28106400
_cell_length_b   15.45168400
_cell_length_c   6.09806100
_cell_angle_alpha   90.00000000
_cell_angle_beta   90.00000000
_cell_angle_gamma   90.00000000
_symmetry_Int_Tables_number   1
_chemical_formula_structural   BaMnF4
_chemical_formula_sum   'Ba4 Mn4 F16'
_cell_volume   403.38458931
_cell_formula_units_Z   4
loop_
 _symmetry_equiv_pos_site_id
 _symmetry_equiv_pos_as_xyz
  1  'x, y, z'
loop_
 _atom_site_type_symbol
 _atom_site_label
 _atom_site_symmetry_multiplicity
 _atom_site_fract_x
 _atom_site_fract_y
 _atom_site_fract_z
 _atom_site_occupancy
  Ba  Ba0  1  0.00000000  0.84234600  0.05352300  1
  Ba  Ba1  1  0.50000000  0.65765400  0.55352300  1
  Ba  Ba2  1  0.50000000  0.34234600  0.05352300  1
  Ba  Ba3  1  0.00000000  0.15765400  0.55352300  1
  Mn  Mn4  1  0.50000000  0.91644900  0.50267600  1
  Mn  Mn5  1  0.00000000  0.58355100  0.00267600  1
  Mn  Mn6  1  0.00000000  0.41644900  0.50267600  1
  Mn  Mn7  1  0.50000000  0.08355100  0.00267600  1
  F  F8  1  0.00000000  0.91865700  0.47599700  1
  F  F9  1  0.50000000  0.58134300  0.97599700  1
  F  F10  1  0.50000000  0.96235300  0.15883800  1
  F  F11  1  0.00000000  0.53764700  0.65883800  1
  F  F12  1  0.00000000  0.70102700  0.80834100  1
  F  F13  1  0.50000000  0.79897300  0.30834100  1
  F  F14  1  0.00000000  0.66450300  0.28102400  1
  F  F15  1  0.50000000  0.83549700  0.78102400  1
  F  F16  1  0.50000000  0.41865700  0.47599700  1
  F  F17  1  0.00000000  0.08134300  0.97599700  1
  F  F18  1  0.00000000  0.46235300  0.15883800  1
  F  F19  1  0.50000000  0.03764700  0.65883800  1
  F  F20  1  0.50000000  0.20102700  0.80834100  1
  F  F21  1  0.00000000  0.29897300  0.30834100  1
  F  F22  1  0.50000000  0.16450300  0.28102400  1
  F  F23  1  0.00000000  0.33549700  0.78102400  1
