# generated using pymatgen
data_In2Ag2GeS6
_symmetry_space_group_name_H-M   'P 1'
_cell_length_a   12.42726600
_cell_length_b   7.38948200
_cell_length_c   12.41255408
_cell_angle_alpha   90.00000000
_cell_angle_beta   109.57025689
_cell_angle_gamma   90.00000000
_symmetry_Int_Tables_number   1
_chemical_formula_structural   In2Ag2GeS6
_chemical_formula_sum   'In8 Ag8 Ge4 S24'
_cell_volume   1074.01005188
_cell_formula_units_Z   4
loop_
 _symmetry_equiv_pos_site_id
 _symmetry_equiv_pos_as_xyz
  1  'x, y, z'
loop_
 _atom_site_type_symbol
 _atom_site_label
 _atom_site_symmetry_multiplicity
 _atom_site_fract_x
 _atom_site_fract_y
 _atom_site_fract_z
 _atom_site_occupancy
  In  In0  1  0.91490050  0.40749350  0.56039400  1
  In  In1  1  0.73574000  0.43849600  0.75462400  1
  In  In2  1  0.73574000  0.56150400  0.25462400  1
  In  In3  1  0.91490050  0.59250650  0.06039400  1
  In  In4  1  0.41490050  0.90749350  0.56039400  1
  In  In5  1  0.23574000  0.93849600  0.75462400  1
  In  In6  1  0.23574000  0.06150400  0.25462400  1
  In  In7  1  0.41490050  0.09250650  0.06039400  1
  Ag  Ag8  1  0.39730750  0.41559950  0.75716300  1
  Ag  Ag9  1  0.09967200  0.70923300  0.41202000  1
  Ag  Ag10  1  0.09967200  0.29076700  0.91202000  1
  Ag  Ag11  1  0.39730750  0.58440050  0.25716300  1
  Ag  Ag12  1  0.89730750  0.91559950  0.75716300  1
  Ag  Ag13  1  0.59967200  0.20923300  0.41202000  1
  Ag  Ag14  1  0.59967200  0.79076700  0.91202000  1
  Ag  Ag15  1  0.89730750  0.08440050  0.25716300  1
  Ge  Ge16  1  0.16889300  0.76827100  0.99931000  1
  Ge  Ge17  1  0.16889300  0.23172900  0.49931000  1
  Ge  Ge18  1  0.66889300  0.26827100  0.99931000  1
  Ge  Ge19  1  0.66889300  0.73172900  0.49931000  1
  S  S20  1  0.78992000  0.72389500  0.87200800  1
  S  S21  1  0.85798300  0.73921100  0.55470800  1
  S  S22  1  0.90639700  0.26400300  0.74167100  1
  S  S23  1  0.09624000  0.74703200  0.81011200  1
  S  S24  1  0.11742800  0.47860300  0.57454100  1
  S  S25  1  0.11742800  0.52139700  0.07454100  1
  S  S26  1  0.85798300  0.26078900  0.05470800  1
  S  S27  1  0.09624000  0.25296800  0.31011200  1
  S  S28  1  0.90639700  0.73599700  0.24167100  1
  S  S29  1  0.78992000  0.27610500  0.37200800  1
  S  S30  1  0.59501950  0.49163650  0.55625000  1
  S  S31  1  0.59501950  0.50836350  0.05625000  1
  S  S32  1  0.28992000  0.22389500  0.87200800  1
  S  S33  1  0.35798300  0.23921100  0.55470800  1
  S  S34  1  0.40639700  0.76400300  0.74167100  1
  S  S35  1  0.59624000  0.24703200  0.81011200  1
  S  S36  1  0.61742800  0.97860300  0.57454100  1
  S  S37  1  0.61742800  0.02139700  0.07454100  1
  S  S38  1  0.35798300  0.76078900  0.05470800  1
  S  S39  1  0.59624000  0.75296800  0.31011200  1
  S  S40  1  0.40639700  0.23599700  0.24167100  1
  S  S41  1  0.28992000  0.77610500  0.37200800  1
  S  S42  1  0.09501950  0.99163650  0.55625000  1
  S  S43  1  0.09501950  0.00836350  0.05625000  1
