# generated using pymatgen
data_Na5(InTe3)2
_symmetry_space_group_name_H-M   'P 1'
_cell_length_a   9.14054600
_cell_length_b   15.49062200
_cell_length_c   23.88539600
_cell_angle_alpha   90.00000000
_cell_angle_beta   90.00000000
_cell_angle_gamma   90.00000000
_symmetry_Int_Tables_number   1
_chemical_formula_structural   Na5(InTe3)2
_chemical_formula_sum   'Na40 In16 Te48'
_cell_volume   3381.99873632
_cell_formula_units_Z   8
loop_
 _symmetry_equiv_pos_site_id
 _symmetry_equiv_pos_as_xyz
  1  'x, y, z'
loop_
 _atom_site_type_symbol
 _atom_site_label
 _atom_site_symmetry_multiplicity
 _atom_site_fract_x
 _atom_site_fract_y
 _atom_site_fract_z
 _atom_site_occupancy
  Na  Na0  1  0.74847400  0.00294600  0.75164700  1
  Na  Na1  1  0.25152600  0.99705400  0.25164700  1
  Na  Na2  1  0.25152600  0.00294600  0.75164700  1
  Na  Na3  1  0.74847400  0.99705400  0.25164700  1
  Na  Na4  1  0.25570400  0.75187800  0.74888300  1
  Na  Na5  1  0.74429600  0.24812200  0.24888300  1
  Na  Na6  1  0.74429600  0.75187800  0.74888300  1
  Na  Na7  1  0.25570400  0.24812200  0.24888300  1
  Na  Na8  1  0.74116550  0.17642450  0.91213100  1
  Na  Na9  1  0.25883450  0.82357550  0.41213100  1
  Na  Na10  1  0.25883450  0.17642450  0.91213100  1
  Na  Na11  1  0.74116550  0.82357550  0.41213100  1
  Na  Na12  1  0.23881000  0.92036800  0.58665400  1
  Na  Na13  1  0.76119000  0.07963200  0.08665400  1
  Na  Na14  1  0.76119000  0.92036800  0.58665400  1
  Na  Na15  1  0.23881000  0.07963200  0.08665400  1
  Na  Na16  1  0.30823300  0.87555300  0.99984600  1
  Na  Na17  1  0.69176700  0.12444700  0.49984600  1
  Na  Na18  1  0.69176700  0.87555300  0.99984600  1
  Na  Na19  1  0.30823300  0.12444700  0.49984600  1
  Na  Na20  1  0.24847400  0.50294600  0.75164700  1
  Na  Na21  1  0.75152600  0.49705400  0.25164700  1
  Na  Na22  1  0.75152600  0.50294600  0.75164700  1
  Na  Na23  1  0.24847400  0.49705400  0.25164700  1
  Na  Na24  1  0.75570400  0.25187800  0.74888300  1
  Na  Na25  1  0.24429600  0.74812200  0.24888300  1
  Na  Na26  1  0.24429600  0.25187800  0.74888300  1
  Na  Na27  1  0.75570400  0.74812200  0.24888300  1
  Na  Na28  1  0.24116550  0.67642450  0.91213100  1
  Na  Na29  1  0.75883450  0.32357550  0.41213100  1
  Na  Na30  1  0.75883450  0.67642450  0.91213100  1
  Na  Na31  1  0.24116550  0.32357550  0.41213100  1
  Na  Na32  1  0.73881000  0.42036800  0.58665400  1
  Na  Na33  1  0.26119000  0.57963200  0.08665400  1
  Na  Na34  1  0.26119000  0.42036800  0.58665400  1
  Na  Na35  1  0.73881000  0.57963200  0.08665400  1
  Na  Na36  1  0.80823300  0.37555300  0.99984600  1
  Na  Na37  1  0.19176700  0.62444700  0.49984600  1
  Na  Na38  1  0.19176700  0.37555300  0.99984600  1
  Na  Na39  1  0.80823300  0.62444700  0.49984600  1
  In  In40  1  0.50000000  0.46618500  0.88015500  1
  In  In41  1  0.50000000  0.53381500  0.38015500  1
  In  In42  1  0.50000000  0.23410700  0.62232000  1
  In  In43  1  0.50000000  0.76589300  0.12232000  1
  In  In44  1  0.50000000  0.71623200  0.61719200  1
  In  In45  1  0.50000000  0.28376800  0.11719200  1
  In  In46  1  0.50000000  0.98765200  0.87978300  1
  In  In47  1  0.50000000  0.01234800  0.37978300  1
  In  In48  1  0.00000000  0.96618500  0.88015500  1
  In  In49  1  0.00000000  0.03381500  0.38015500  1
  In  In50  1  0.00000000  0.73410700  0.62232000  1
  In  In51  1  0.00000000  0.26589300  0.12232000  1
  In  In52  1  0.00000000  0.21623200  0.61719200  1
  In  In53  1  0.00000000  0.78376800  0.11719200  1
  In  In54  1  0.00000000  0.48765200  0.87978300  1
  In  In55  1  0.00000000  0.51234800  0.37978300  1
  Te  Te56  1  0.50000000  0.28026700  0.99656600  1
  Te  Te57  1  0.50000000  0.71973300  0.49656600  1
  Te  Te58  1  0.50000000  0.37768000  0.69227500  1
  Te  Te59  1  0.50000000  0.62232000  0.19227500  1
  Te  Te60  1  0.50000000  0.12963100  0.80890900  1
  Te  Te61  1  0.50000000  0.87036900  0.30890900  1
  Te  Te62  1  0.50000000  0.46933000  0.00076100  1
  Te  Te63  1  0.50000000  0.53067000  0.50076100  1
  Te  Te64  1  0.74165100  0.11778700  0.64018100  1
  Te  Te65  1  0.25834900  0.88221300  0.14018100  1
  Te  Te66  1  0.25834900  0.11778700  0.64018100  1
  Te  Te67  1  0.74165100  0.88221300  0.14018100  1
  Te  Te68  1  0.26248300  0.86981000  0.85895900  1
  Te  Te69  1  0.73751700  0.13019000  0.35895900  1
  Te  Te70  1  0.73751700  0.86981000  0.85895900  1
  Te  Te71  1  0.26248300  0.13019000  0.35895900  1
  Te  Te72  1  0.50000000  0.04748200  0.99168200  1
  Te  Te73  1  0.50000000  0.95251800  0.49168200  1
  Te  Te74  1  0.50000000  0.87078300  0.67500000  1
  Te  Te75  1  0.50000000  0.12921700  0.17500000  1
  Te  Te76  1  0.50000000  0.37764800  0.32385100  1
  Te  Te77  1  0.50000000  0.62235200  0.82385100  1
  Te  Te78  1  0.50000000  0.29570300  0.51010400  1
  Te  Te79  1  0.50000000  0.70429700  0.01010400  1
  Te  Te80  1  0.00000000  0.78026700  0.99656600  1
  Te  Te81  1  0.00000000  0.21973300  0.49656600  1
  Te  Te82  1  0.00000000  0.87768000  0.69227500  1
  Te  Te83  1  0.00000000  0.12232000  0.19227500  1
  Te  Te84  1  0.00000000  0.62963100  0.80890900  1
  Te  Te85  1  0.00000000  0.37036900  0.30890900  1
  Te  Te86  1  0.00000000  0.96933000  0.00076100  1
  Te  Te87  1  0.00000000  0.03067000  0.50076100  1
  Te  Te88  1  0.24165100  0.61778700  0.64018100  1
  Te  Te89  1  0.75834900  0.38221300  0.14018100  1
  Te  Te90  1  0.75834900  0.61778700  0.64018100  1
  Te  Te91  1  0.24165100  0.38221300  0.14018100  1
  Te  Te92  1  0.76248300  0.36981000  0.85895900  1
  Te  Te93  1  0.23751700  0.63019000  0.35895900  1
  Te  Te94  1  0.23751700  0.36981000  0.85895900  1
  Te  Te95  1  0.76248300  0.63019000  0.35895900  1
  Te  Te96  1  0.00000000  0.54748200  0.99168200  1
  Te  Te97  1  0.00000000  0.45251800  0.49168200  1
  Te  Te98  1  0.00000000  0.37078300  0.67500000  1
  Te  Te99  1  0.00000000  0.62921700  0.17500000  1
  Te  Te100  1  0.00000000  0.87764800  0.32385100  1
  Te  Te101  1  0.00000000  0.12235200  0.82385100  1
  Te  Te102  1  0.00000000  0.79570300  0.51010400  1
  Te  Te103  1  0.00000000  0.20429700  0.01010400  1
