# generated using pymatgen
data_MgAl2O4
_symmetry_space_group_name_H-M   'P 1'
_cell_length_a   5.77085413
_cell_length_b   5.77085413
_cell_length_c   70.82442312
_cell_angle_alpha   90.00000000
_cell_angle_beta   90.00000000
_cell_angle_gamma   120.00000000
_symmetry_Int_Tables_number   1
_chemical_formula_structural   MgAl2O4
_chemical_formula_sum   'Mg30 Al60 O120'
_cell_volume   2042.64958828
_cell_formula_units_Z   30
loop_
 _symmetry_equiv_pos_site_id
 _symmetry_equiv_pos_as_xyz
  1  'x, y, z'
loop_
 _atom_site_type_symbol
 _atom_site_label
 _atom_site_symmetry_multiplicity
 _atom_site_fract_x
 _atom_site_fract_y
 _atom_site_fract_z
 _atom_site_occupancy
  Mg  Mg0  1  0.00000000  0.00000000  0.17582000  1
  Mg  Mg1  1  0.33333333  0.66666667  0.24265167  1
  Mg  Mg2  1  0.33333333  0.66666667  0.16698667  1
  Mg  Mg3  1  0.66666667  0.33333333  0.30851533  1
  Mg  Mg4  1  0.66666667  0.33333333  0.23401333  1
  Mg  Mg5  1  0.33333333  0.66666667  0.04148367  1
  Mg  Mg6  1  0.66666667  0.33333333  0.10828933  1
  Mg  Mg7  1  0.33333333  0.66666667  0.29086867  1
  Mg  Mg8  1  0.00000000  0.00000000  0.02488500  1
  Mg  Mg9  1  0.33333333  0.66666667  0.09187267  1
  Mg  Mg10  1  0.66666667  0.33333333  0.50915333  1
  Mg  Mg11  1  0.00000000  0.00000000  0.57598500  1
  Mg  Mg12  1  0.00000000  0.00000000  0.50032000  1
  Mg  Mg13  1  0.33333333  0.66666667  0.64184867  1
  Mg  Mg14  1  0.33333333  0.66666667  0.56734667  1
  Mg  Mg15  1  0.00000000  0.00000000  0.37481700  1
  Mg  Mg16  1  0.33333333  0.66666667  0.44162267  1
  Mg  Mg17  1  0.00000000  0.00000000  0.62420200  1
  Mg  Mg18  1  0.66666667  0.33333333  0.35821833  1
  Mg  Mg19  1  0.00000000  0.00000000  0.42520600  1
  Mg  Mg20  1  0.33333333  0.66666667  0.84248667  1
  Mg  Mg21  1  0.66666667  0.33333333  0.90931833  1
  Mg  Mg22  1  0.66666667  0.33333333  0.83365333  1
  Mg  Mg23  1  0.00000000  0.00000000  0.97518200  1
  Mg  Mg24  1  0.00000000  0.00000000  0.90068000  1
  Mg  Mg25  1  0.66666667  0.33333333  0.70815033  1
  Mg  Mg26  1  0.00000000  0.00000000  0.77495600  1
  Mg  Mg27  1  0.66666667  0.33333333  0.95753533  1
  Mg  Mg28  1  0.33333333  0.66666667  0.69155167  1
  Mg  Mg29  1  0.66666667  0.33333333  0.75853933  1
  Al  Al30  1  0.49528267  0.50471733  0.19995733  1
  Al  Al31  1  0.49528267  0.99056533  0.19995733  1
  Al  Al32  1  0.00943467  0.50471733  0.19995733  1
  Al  Al33  1  0.83049367  0.16950633  0.26678533  1
  Al  Al34  1  0.16656167  0.33312333  0.33316433  1
  Al  Al35  1  0.00000000  0.00000000  0.22396600  1
  Al  Al36  1  0.00000000  0.00000000  0.29981900  1
  Al  Al37  1  0.83049367  0.66098733  0.26678533  1
  Al  Al38  1  0.33901267  0.16950633  0.26678533  1
  Al  Al39  1  0.16656167  0.83343833  0.33316433  1
  Al  Al40  1  0.83296000  0.66592000  0.06654700  1
  Al  Al41  1  0.66666667  0.33333333  0.03313433  1
  Al  Al42  1  0.66687667  0.83343833  0.33316433  1
  Al  Al43  1  0.83296000  0.16704000  0.06654700  1
  Al  Al44  1  0.16402033  0.32804067  0.13315767  1
  Al  Al45  1  0.00000000  0.00000000  0.09961000  1
  Al  Al46  1  0.16402033  0.83597967  0.13315767  1
  Al  Al47  1  0.33408000  0.16704000  0.06654700  1
  Al  Al48  1  0.67195933  0.83597967  0.13315767  1
  Al  Al49  1  0.66666667  0.33333333  0.15803733  1
  Al  Al50  1  0.16194933  0.83805067  0.53329067  1
  Al  Al51  1  0.16194933  0.32389867  0.53329067  1
  Al  Al52  1  0.67610133  0.83805067  0.53329067  1
  Al  Al53  1  0.49716033  0.50283967  0.60011867  1
  Al  Al54  1  0.83322833  0.66645667  0.66649767  1
  Al  Al55  1  0.66666667  0.33333333  0.55729933  1
  Al  Al56  1  0.66666667  0.33333333  0.63315233  1
  Al  Al57  1  0.49716033  0.99432067  0.60011867  1
  Al  Al58  1  0.00567933  0.50283967  0.60011867  1
  Al  Al59  1  0.83322833  0.16677167  0.66649767  1
  Al  Al60  1  0.49962667  0.99925333  0.39988033  1
  Al  Al61  1  0.33333333  0.66666667  0.36646767  1
  Al  Al62  1  0.33354333  0.16677167  0.66649767  1
  Al  Al63  1  0.49962667  0.50037333  0.39988033  1
  Al  Al64  1  0.83068700  0.66137400  0.46649100  1
  Al  Al65  1  0.66666667  0.33333333  0.43294333  1
  Al  Al66  1  0.83068700  0.16931300  0.46649100  1
  Al  Al67  1  0.00074667  0.50037333  0.39988033  1
  Al  Al68  1  0.33862600  0.16931300  0.46649100  1
  Al  Al69  1  0.33333333  0.66666667  0.49137067  1
  Al  Al70  1  0.82861600  0.17138400  0.86662400  1
  Al  Al71  1  0.82861600  0.65723200  0.86662400  1
  Al  Al72  1  0.34276800  0.17138400  0.86662400  1
  Al  Al73  1  0.16382700  0.83617300  0.93345200  1
  Al  Al74  1  0.49989500  0.99979000  0.99983100  1
  Al  Al75  1  0.33333333  0.66666667  0.89063267  1
  Al  Al76  1  0.33333333  0.66666667  0.96648567  1
  Al  Al77  1  0.16382700  0.32765400  0.93345200  1
  Al  Al78  1  0.67234600  0.83617300  0.93345200  1
  Al  Al79  1  0.49989500  0.50010500  0.99983100  1
  Al  Al80  1  0.16629333  0.33258667  0.73321367  1
  Al  Al81  1  0.00000000  0.00000000  0.69980100  1
  Al  Al82  1  0.00021000  0.50010500  0.99983100  1
  Al  Al83  1  0.16629333  0.83370667  0.73321367  1
  Al  Al84  1  0.49735367  0.99470733  0.79982433  1
  Al  Al85  1  0.33333333  0.66666667  0.76627667  1
  Al  Al86  1  0.49735367  0.50264633  0.79982433  1
  Al  Al87  1  0.66741333  0.83370667  0.73321367  1
  Al  Al88  1  0.00529267  0.50264633  0.79982433  1
  Al  Al89  1  0.00000000  0.00000000  0.82470400  1
  O  O90  1  0.18063433  0.81936567  0.18532767  1
  O  O91  1  0.33333333  0.66666667  0.21464467  1
  O  O92  1  0.18063433  0.36126867  0.18532767  1
  O  O93  1  0.63873133  0.81936567  0.18532767  1
  O  O94  1  0.34675733  0.17337867  0.21493567  1
  O  O95  1  0.51286700  0.48713300  0.25251900  1
  O  O96  1  0.66666667  0.33333333  0.18424033  1
  O  O97  1  0.66666667  0.33333333  0.28128933  1
  O  O98  1  0.82662133  0.65324267  0.21493567  1
  O  O99  1  0.51286700  0.02573400  0.25251900  1
  O  O100  1  0.82662133  0.17337867  0.21493567  1
  O  O101  1  0.97426600  0.48713300  0.25251900  1
  O  O102  1  0.70841933  0.85420967  0.28226367  1
  O  O103  1  0.85152533  0.14847467  0.31769067  1
  O  O104  1  0.14579033  0.29158067  0.28226367  1
  O  O105  1  0.00000000  0.00000000  0.24993600  1
  O  O106  1  0.33333333  0.66666667  0.01397367  1
  O  O107  1  0.85152533  0.70305067  0.31769067  1
  O  O108  1  0.14579033  0.85420967  0.28226367  1
  O  O109  1  0.29694933  0.14847467  0.31769067  1
  O  O110  1  0.37003800  0.18501900  0.01581400  1
  O  O111  1  0.51802367  0.48197633  0.05100033  1
  O  O112  1  0.81498100  0.62996200  0.01581400  1
  O  O113  1  0.51802367  0.03604733  0.05100033  1
  O  O114  1  0.33333333  0.66666667  0.31915767  1
  O  O115  1  0.66666667  0.33333333  0.08068133  1
  O  O116  1  0.81498100  0.18501900  0.01581400  1
  O  O117  1  0.96395267  0.48197633  0.05100033  1
  O  O118  1  0.70222867  0.85111433  0.08250533  1
  O  O119  1  0.85241200  0.14758800  0.11733200  1
  O  O120  1  0.14888567  0.29777133  0.08250533  1
  O  O121  1  0.00000000  0.00000000  0.14743600  1
  O  O122  1  0.00000000  0.00000000  0.05280500  1
  O  O123  1  0.85241200  0.70482400  0.11733200  1
  O  O124  1  0.14888567  0.85111433  0.08250533  1
  O  O125  1  0.29517600  0.14758800  0.11733200  1
  O  O126  1  0.00580800  0.50290400  0.14841700  1
  O  O127  1  0.33333333  0.66666667  0.12029867  1
  O  O128  1  0.49709600  0.99419200  0.14841700  1
  O  O129  1  0.49709600  0.50290400  0.14841700  1
  O  O130  1  0.84730100  0.15269900  0.51866100  1
  O  O131  1  0.00000000  0.00000000  0.54797800  1
  O  O132  1  0.84730100  0.69460200  0.51866100  1
  O  O133  1  0.30539800  0.15269900  0.51866100  1
  O  O134  1  0.01342400  0.50671200  0.54826900  1
  O  O135  1  0.17953367  0.82046633  0.58585233  1
  O  O136  1  0.33333333  0.66666667  0.51757367  1
  O  O137  1  0.33333333  0.66666667  0.61462267  1
  O  O138  1  0.49328800  0.98657600  0.54826900  1
  O  O139  1  0.17953367  0.35906733  0.58585233  1
  O  O140  1  0.49328800  0.50671200  0.54826900  1
  O  O141  1  0.64093267  0.82046633  0.58585233  1
  O  O142  1  0.37508600  0.18754300  0.61559700  1
  O  O143  1  0.51819200  0.48180800  0.65102400  1
  O  O144  1  0.81245700  0.62491400  0.61559700  1
  O  O145  1  0.66666667  0.33333333  0.58326933  1
  O  O146  1  0.00000000  0.00000000  0.34730700  1
  O  O147  1  0.51819200  0.03638400  0.65102400  1
  O  O148  1  0.81245700  0.18754300  0.61559700  1
  O  O149  1  0.96361600  0.48180800  0.65102400  1
  O  O150  1  0.03670467  0.51835233  0.34914733  1
  O  O151  1  0.18469033  0.81530967  0.38433367  1
  O  O152  1  0.48164767  0.96329533  0.34914733  1
  O  O153  1  0.18469033  0.36938067  0.38433367  1
  O  O154  1  0.00000000  0.00000000  0.65249100  1
  O  O155  1  0.33333333  0.66666667  0.41401467  1
  O  O156  1  0.48164767  0.51835233  0.34914733  1
  O  O157  1  0.63061933  0.81530967  0.38433367  1
  O  O158  1  0.36889533  0.18444767  0.41583867  1
  O  O159  1  0.51907867  0.48092133  0.45066533  1
  O  O160  1  0.81555233  0.63110467  0.41583867  1
  O  O161  1  0.66666667  0.33333333  0.48076933  1
  O  O162  1  0.66666667  0.33333333  0.38613833  1
  O  O163  1  0.51907867  0.03815733  0.45066533  1
  O  O164  1  0.81555233  0.18444767  0.41583867  1
  O  O165  1  0.96184267  0.48092133  0.45066533  1
  O  O166  1  0.67247467  0.83623733  0.48175033  1
  O  O167  1  0.00000000  0.00000000  0.45363200  1
  O  O168  1  0.16376267  0.32752533  0.48175033  1
  O  O169  1  0.16376267  0.83623733  0.48175033  1
  O  O170  1  0.51396767  0.48603233  0.85199433  1
  O  O171  1  0.66666667  0.33333333  0.88131133  1
  O  O172  1  0.51396767  0.02793533  0.85199433  1
  O  O173  1  0.97206467  0.48603233  0.85199433  1
  O  O174  1  0.68009067  0.84004533  0.88160233  1
  O  O175  1  0.84620033  0.15379967  0.91918567  1
  O  O176  1  0.00000000  0.00000000  0.85090700  1
  O  O177  1  0.00000000  0.00000000  0.94795600  1
  O  O178  1  0.15995467  0.31990933  0.88160233  1
  O  O179  1  0.84620033  0.69240067  0.91918567  1
  O  O180  1  0.15995467  0.84004533  0.88160233  1
  O  O181  1  0.30759933  0.15379967  0.91918567  1
  O  O182  1  0.04175267  0.52087633  0.94893033  1
  O  O183  1  0.18485867  0.81514133  0.98435733  1
  O  O184  1  0.47912367  0.95824733  0.94893033  1
  O  O185  1  0.33333333  0.66666667  0.91660267  1
  O  O186  1  0.66666667  0.33333333  0.68064033  1
  O  O187  1  0.18485867  0.36971733  0.98435733  1
  O  O188  1  0.47912367  0.52087633  0.94893033  1
  O  O189  1  0.63028267  0.81514133  0.98435733  1
  O  O190  1  0.70337133  0.85168567  0.68248067  1
  O  O191  1  0.85135700  0.14864300  0.71766700  1
  O  O192  1  0.14831433  0.29662867  0.68248067  1
  O  O193  1  0.85135700  0.70271400  0.71766700  1
  O  O194  1  0.66666667  0.33333333  0.98582433  1
  O  O195  1  0.00000000  0.00000000  0.74734800  1
  O  O196  1  0.14831433  0.85168567  0.68248067  1
  O  O197  1  0.29728600  0.14864300  0.71766700  1
  O  O198  1  0.03556200  0.51778100  0.74917200  1
  O  O199  1  0.18574533  0.81425467  0.78399867  1
  O  O200  1  0.48221900  0.96443800  0.74917200  1
  O  O201  1  0.33333333  0.66666667  0.81410267  1
  O  O202  1  0.33333333  0.66666667  0.71947167  1
  O  O203  1  0.18574533  0.37149067  0.78399867  1
  O  O204  1  0.48221900  0.51778100  0.74917200  1
  O  O205  1  0.62850933  0.81425467  0.78399867  1
  O  O206  1  0.33914133  0.16957067  0.81508367  1
  O  O207  1  0.66666667  0.33333333  0.78696533  1
  O  O208  1  0.83042933  0.66085867  0.81508367  1
  O  O209  1  0.83042933  0.16957067  0.81508367  1
