# generated using pymatgen
data_SbC2N(OF3)2
_symmetry_space_group_name_H-M   'P 1'
_cell_length_a   9.02008200
_cell_length_b   5.59679800
_cell_length_c   15.59140902
_cell_angle_alpha   90.00000000
_cell_angle_beta   101.04098381
_cell_angle_gamma   90.00000000
_symmetry_Int_Tables_number   1
_chemical_formula_structural   SbC2N(OF3)2
_chemical_formula_sum   'Sb4 C8 N4 O8 F24'
_cell_volume   772.54103973
_cell_formula_units_Z   4
loop_
 _symmetry_equiv_pos_site_id
 _symmetry_equiv_pos_as_xyz
  1  'x, y, z'
loop_
 _atom_site_type_symbol
 _atom_site_label
 _atom_site_symmetry_multiplicity
 _atom_site_fract_x
 _atom_site_fract_y
 _atom_site_fract_z
 _atom_site_occupancy
  Sb  Sb0  1  0.29479600  0.75886900  0.09840500  1
  Sb  Sb1  1  0.70520400  0.25886900  0.40159500  1
  Sb  Sb2  1  0.70520400  0.24113100  0.90159500  1
  Sb  Sb3  1  0.29479600  0.74113100  0.59840500  1
  C  C4  1  0.64368500  0.64946300  0.64233400  1
  C  C5  1  0.64368500  0.85053700  0.14233400  1
  C  C6  1  0.14880500  0.09345400  0.33144100  1
  C  C7  1  0.35631500  0.14946300  0.85766600  1
  C  C8  1  0.14880500  0.40654600  0.83144100  1
  C  C9  1  0.35631500  0.35053700  0.35766600  1
  C  C10  1  0.85119500  0.90654600  0.66855900  1
  C  C11  1  0.85119500  0.59345400  0.16855900  1
  N  N12  1  0.78963600  0.79203400  0.16059800  1
  N  N13  1  0.21036400  0.29203400  0.33940200  1
  N  N14  1  0.78963600  0.70796600  0.66059800  1
  N  N15  1  0.21036400  0.20796600  0.83940200  1
  O  O16  1  0.92489700  0.07789100  0.67960200  1
  O  O17  1  0.92489700  0.42210900  0.17960200  1
  O  O18  1  0.53623700  0.79241000  0.62503600  1
  O  O19  1  0.07510300  0.57789100  0.82039800  1
  O  O20  1  0.07510300  0.92210900  0.32039800  1
  O  O21  1  0.53623700  0.70759000  0.12503600  1
  O  O22  1  0.46376300  0.20759000  0.37496400  1
  O  O23  1  0.46376300  0.29241000  0.87496400  1
  F  F24  1  0.67634400  0.44630700  0.29732400  1
  F  F25  1  0.29755000  0.56664800  0.99795000  1
  F  F26  1  0.29561900  0.02206600  0.66716700  1
  F  F27  1  0.32592700  0.03375500  0.03198700  1
  F  F28  1  0.29561900  0.47793400  0.16716700  1
  F  F29  1  0.61963900  0.41721500  0.64416700  1
  F  F30  1  0.70438100  0.97793400  0.33283300  1
  F  F31  1  0.70438100  0.52206600  0.83283300  1
  F  F32  1  0.70245000  0.06664800  0.50205000  1
  F  F33  1  0.38036100  0.91721500  0.85583300  1
  F  F34  1  0.91846800  0.20926900  0.92248600  1
  F  F35  1  0.32365600  0.94630700  0.20267600  1
  F  F36  1  0.32365600  0.55369300  0.70267600  1
  F  F37  1  0.08153200  0.70926900  0.57751400  1
  F  F38  1  0.08153200  0.79073100  0.07751400  1
  F  F39  1  0.38036100  0.58278500  0.35583300  1
  F  F40  1  0.61963900  0.08278500  0.14416700  1
  F  F41  1  0.91846800  0.29073100  0.42248600  1
  F  F42  1  0.67634400  0.05369300  0.79732400  1
  F  F43  1  0.32592700  0.46624500  0.53198700  1
  F  F44  1  0.70245000  0.43335200  0.00205000  1
  F  F45  1  0.67407300  0.53375500  0.46801300  1
  F  F46  1  0.67407300  0.96624500  0.96801300  1
  F  F47  1  0.29755000  0.93335200  0.49795000  1
