# generated using pymatgen
data_Nd2AlNO3
_symmetry_space_group_name_H-M   'P 1'
_cell_length_a   3.73607400
_cell_length_b   3.73607400
_cell_length_c   12.58710600
_cell_angle_alpha   90.00000000
_cell_angle_beta   90.00000000
_cell_angle_gamma   90.00000000
_symmetry_Int_Tables_number   1
_chemical_formula_structural   Nd2AlNO3
_chemical_formula_sum   'Nd4 Al2 N2 O6'
_cell_volume   175.69395890
_cell_formula_units_Z   2
loop_
 _symmetry_equiv_pos_site_id
 _symmetry_equiv_pos_as_xyz
  1  'x, y, z'
loop_
 _atom_site_type_symbol
 _atom_site_label
 _atom_site_symmetry_multiplicity
 _atom_site_fract_x
 _atom_site_fract_y
 _atom_site_fract_z
 _atom_site_occupancy
  Nd  Nd0  1  0.50000000  0.50000000  0.13838700  1
  Nd  Nd1  1  0.00000000  0.00000000  0.34958700  1
  Nd  Nd2  1  0.00000000  0.00000000  0.63838700  1
  Nd  Nd3  1  0.50000000  0.50000000  0.84958700  1
  Al  Al4  1  0.50000000  0.50000000  0.48753900  1
  Al  Al5  1  0.00000000  0.00000000  0.98753900  1
  N  N6  1  0.50000000  0.50000000  0.32678500  1
  N  N7  1  0.00000000  0.00000000  0.82678500  1
  O  O8  1  0.00000000  0.00000000  0.16001000  1
  O  O9  1  0.50000000  0.00000000  0.00019600  1
  O  O10  1  0.00000000  0.50000000  0.00019600  1
  O  O11  1  0.50000000  0.50000000  0.66001000  1
  O  O12  1  0.00000000  0.50000000  0.50019600  1
  O  O13  1  0.50000000  0.00000000  0.50019600  1
