# generated using pymatgen
data_K3NdH6(C2O5)3
_symmetry_space_group_name_H-M   'P 1'
_cell_length_a   8.66359000
_cell_length_b   9.44765837
_cell_length_c   9.94491094
_cell_angle_alpha   98.29556632
_cell_angle_beta   91.38336312
_cell_angle_gamma   95.94498575
_symmetry_Int_Tables_number   1
_chemical_formula_structural   K3NdH6(C2O5)3
_chemical_formula_sum   'K6 Nd2 H12 C12 O30'
_cell_volume   800.51640783
_cell_formula_units_Z   2
loop_
 _symmetry_equiv_pos_site_id
 _symmetry_equiv_pos_as_xyz
  1  'x, y, z'
loop_
 _atom_site_type_symbol
 _atom_site_label
 _atom_site_symmetry_multiplicity
 _atom_site_fract_x
 _atom_site_fract_y
 _atom_site_fract_z
 _atom_site_occupancy
  K  K0  1  0.65035700  0.20810400  0.69630200  1
  K  K1  1  0.95583300  0.68368500  0.61369800  1
  K  K2  1  0.34964300  0.79189600  0.30369800  1
  K  K3  1  0.71111500  0.86040000  0.88767500  1
  K  K4  1  0.28888500  0.13960000  0.11232500  1
  K  K5  1  0.04416700  0.31631500  0.38630200  1
  Nd  Nd6  1  0.22852500  0.35759300  0.77914800  1
  Nd  Nd7  1  0.77147500  0.64240700  0.22085200  1
  H  H8  1  0.73181700  0.88923700  0.47397700  1
  H  H9  1  0.37080800  0.24774500  0.49684400  1
  H  H10  1  0.27584500  0.76133300  0.99351400  1
  H  H11  1  0.37951200  0.00430200  0.79465000  1
  H  H12  1  0.26818300  0.11076300  0.52602300  1
  H  H13  1  0.62919200  0.75225500  0.50315600  1
  H  H14  1  0.57252100  0.11712500  0.31432400  1
  H  H15  1  0.72415500  0.23866700  0.00648600  1
  H  H16  1  0.14734500  0.85752200  0.96523800  1
  H  H17  1  0.85265500  0.14247800  0.03476200  1
  H  H18  1  0.62048800  0.99569800  0.20535000  1
  H  H19  1  0.42747900  0.88287500  0.68567600  1
  C  C20  1  0.52842000  0.42412700  0.99853100  1
  C  C21  1  0.96484400  0.07594500  0.68105900  1
  C  C22  1  0.32677900  0.61554700  0.60264600  1
  C  C23  1  0.07225100  0.02233300  0.78770000  1
  C  C24  1  0.67322100  0.38445300  0.39735400  1
  C  C25  1  0.96698400  0.54161200  0.94541600  1
  C  C26  1  0.48969100  0.57747700  0.65099700  1
  C  C27  1  0.03515600  0.92405500  0.31894100  1
  C  C28  1  0.03301600  0.45838800  0.05458400  1
  C  C29  1  0.92774900  0.97766700  0.21230000  1
  C  C30  1  0.51030900  0.42252300  0.34900300  1
  C  C31  1  0.47158000  0.57587300  0.00146900  1
  O  O32  1  0.78679100  0.48357900  0.39769800  1
  O  O33  1  0.60827900  0.66483600  0.64179400  1
  O  O34  1  0.96922600  0.09599000  0.17299600  1
  O  O35  1  0.77785700  0.15815300  0.96266000  1
  O  O36  1  0.12544100  0.36700700  0.01533900  1
  O  O37  1  0.39172100  0.33516400  0.35820600  1
  O  O38  1  0.99836100  0.20605200  0.66044200  1
  O  O39  1  0.98882500  0.48902400  0.17528000  1
  O  O40  1  0.33139200  0.19709500  0.57314200  1
  O  O41  1  0.68474700  0.26242400  0.43011900  1
  O  O42  1  0.48829800  0.45888000  0.69745600  1
  O  O43  1  0.00163900  0.79394800  0.33955800  1
  O  O44  1  0.80325200  0.89526100  0.17276100  1
  O  O45  1  0.85320100  0.98933300  0.62655900  1
  O  O46  1  0.47085000  0.96053100  0.75841500  1
  O  O47  1  0.65124600  0.41579300  0.06691300  1
  O  O48  1  0.03077400  0.90401000  0.82700400  1
  O  O49  1  0.21320900  0.51642100  0.60230200  1
  O  O50  1  0.87455900  0.63299300  0.98466100  1
  O  O51  1  0.55207400  0.68206400  0.07201000  1
  O  O52  1  0.34875400  0.58420700  0.93308700  1
  O  O53  1  0.44792600  0.31793600  0.92799000  1
  O  O54  1  0.19674800  0.10473900  0.82723900  1
  O  O55  1  0.52915000  0.03946900  0.24158500  1
  O  O56  1  0.22214300  0.84184700  0.03734000  1
  O  O57  1  0.51170200  0.54112000  0.30254400  1
  O  O58  1  0.14679900  0.01066700  0.37344100  1
  O  O59  1  0.01117500  0.51097600  0.82472000  1
  O  O60  1  0.66860800  0.80290500  0.42685800  1
  O  O61  1  0.31525300  0.73757600  0.56988100  1
