# generated using pymatgen
data_Sb2N5F11
_symmetry_space_group_name_H-M   'P 1'
_cell_length_a   11.19186000
_cell_length_b   12.91167600
_cell_length_c   17.11307881
_cell_angle_alpha   90.00000000
_cell_angle_beta   104.57493251
_cell_angle_gamma   90.00000000
_symmetry_Int_Tables_number   1
_chemical_formula_structural   Sb2N5F11
_chemical_formula_sum   'Sb16 N40 F88'
_cell_volume   2393.35623174
_cell_formula_units_Z   8
loop_
 _symmetry_equiv_pos_site_id
 _symmetry_equiv_pos_as_xyz
  1  'x, y, z'
loop_
 _atom_site_type_symbol
 _atom_site_label
 _atom_site_symmetry_multiplicity
 _atom_site_fract_x
 _atom_site_fract_y
 _atom_site_fract_z
 _atom_site_occupancy
  Sb  Sb0  1  0.73292000  0.02738200  0.09676300  1
  Sb  Sb1  1  0.26708000  0.02738200  0.40323700  1
  Sb  Sb2  1  0.26708000  0.97261800  0.90323700  1
  Sb  Sb3  1  0.73292000  0.97261800  0.59676300  1
  Sb  Sb4  1  0.62295950  0.73395750  0.12004600  1
  Sb  Sb5  1  0.37704050  0.73395750  0.37995400  1
  Sb  Sb6  1  0.37704050  0.26604250  0.87995400  1
  Sb  Sb7  1  0.62295950  0.26604250  0.62004600  1
  Sb  Sb8  1  0.23292000  0.52738200  0.09676300  1
  Sb  Sb9  1  0.76708000  0.52738200  0.40323700  1
  Sb  Sb10  1  0.76708000  0.47261800  0.90323700  1
  Sb  Sb11  1  0.23292000  0.47261800  0.59676300  1
  Sb  Sb12  1  0.12295950  0.23395750  0.12004600  1
  Sb  Sb13  1  0.87704050  0.23395750  0.37995400  1
  Sb  Sb14  1  0.87704050  0.76604250  0.87995400  1
  Sb  Sb15  1  0.12295950  0.76604250  0.62004600  1
  N  N16  1  0.47580500  0.31360100  0.34154200  1
  N  N17  1  0.52419500  0.31360100  0.15845800  1
  N  N18  1  0.52419500  0.68639900  0.65845800  1
  N  N19  1  0.47580500  0.68639900  0.84154200  1
  N  N20  1  0.39401500  0.35228400  0.35654400  1
  N  N21  1  0.60598500  0.35228400  0.14345600  1
  N  N22  1  0.60598500  0.64771600  0.64345600  1
  N  N23  1  0.39401500  0.64771600  0.85654400  1
  N  N24  1  0.81308350  0.88822050  0.39077600  1
  N  N25  1  0.18691650  0.88822050  0.10922400  1
  N  N26  1  0.18691650  0.11177950  0.60922400  1
  N  N27  1  0.81308350  0.11177950  0.89077600  1
  N  N28  1  0.72394650  0.93751950  0.34338600  1
  N  N29  1  0.27605350  0.93751950  0.15661400  1
  N  N30  1  0.27605350  0.06248050  0.65661400  1
  N  N31  1  0.72394650  0.06248050  0.84338600  1
  N  N32  1  0.63818650  0.98351750  0.31551100  1
  N  N33  1  0.36181350  0.98351750  0.18448900  1
  N  N34  1  0.36181350  0.01648250  0.68448900  1
  N  N35  1  0.63818650  0.01648250  0.81551100  1
  N  N36  1  0.97580500  0.81360100  0.34154200  1
  N  N37  1  0.02419500  0.81360100  0.15845800  1
  N  N38  1  0.02419500  0.18639900  0.65845800  1
  N  N39  1  0.97580500  0.18639900  0.84154200  1
  N  N40  1  0.89401500  0.85228400  0.35654400  1
  N  N41  1  0.10598500  0.85228400  0.14345600  1
  N  N42  1  0.10598500  0.14771600  0.64345600  1
  N  N43  1  0.89401500  0.14771600  0.85654400  1
  N  N44  1  0.31308350  0.38822050  0.39077600  1
  N  N45  1  0.68691650  0.38822050  0.10922400  1
  N  N46  1  0.68691650  0.61177950  0.60922400  1
  N  N47  1  0.31308350  0.61177950  0.89077600  1
  N  N48  1  0.22394650  0.43751950  0.34338600  1
  N  N49  1  0.77605350  0.43751950  0.15661400  1
  N  N50  1  0.77605350  0.56248050  0.65661400  1
  N  N51  1  0.22394650  0.56248050  0.84338600  1
  N  N52  1  0.13818650  0.48351750  0.31551100  1
  N  N53  1  0.86181350  0.48351750  0.18448900  1
  N  N54  1  0.86181350  0.51648250  0.68448900  1
  N  N55  1  0.13818650  0.51648250  0.81551100  1
  F  F56  1  0.59332000  0.05440400  0.13820500  1
  F  F57  1  0.40668000  0.05440400  0.36179500  1
  F  F58  1  0.40668000  0.94559600  0.86179500  1
  F  F59  1  0.59332000  0.94559600  0.63820500  1
  F  F60  1  0.82080950  0.98111250  0.20161400  1
  F  F61  1  0.17919050  0.98111250  0.29838600  1
  F  F62  1  0.17919050  0.01888750  0.79838600  1
  F  F63  1  0.82080950  0.01888750  0.70161400  1
  F  F64  1  0.86563850  0.97780650  0.05562700  1
  F  F65  1  0.13436150  0.97780650  0.44437300  1
  F  F66  1  0.13436150  0.02219350  0.94437300  1
  F  F67  1  0.86563850  0.02219350  0.55562700  1
  F  F68  1  0.63738450  0.04669350  0.98890400  1
  F  F69  1  0.36261550  0.04669350  0.51109600  1
  F  F70  1  0.36261550  0.95330650  0.01109600  1
  F  F71  1  0.63738450  0.95330650  0.48890400  1
  F  F72  1  0.78892550  0.16555850  0.10987800  1
  F  F73  1  0.21107450  0.16555850  0.39012200  1
  F  F74  1  0.21107450  0.83444150  0.89012200  1
  F  F75  1  0.78892550  0.83444150  0.60987800  1
  F  F76  1  0.66778800  0.87598500  0.08001700  1
  F  F77  1  0.33221200  0.87598500  0.41998300  1
  F  F78  1  0.33221200  0.12401500  0.91998300  1
  F  F79  1  0.66778800  0.12401500  0.58001700  1
  F  F80  1  0.49820550  0.80580850  0.15568200  1
  F  F81  1  0.50179450  0.80580850  0.34431800  1
  F  F82  1  0.50179450  0.19419150  0.84431800  1
  F  F83  1  0.49820550  0.19419150  0.65568200  1
  F  F84  1  0.73382600  0.76704800  0.22202100  1
  F  F85  1  0.26617400  0.76704800  0.27797900  1
  F  F86  1  0.26617400  0.23295200  0.77797900  1
  F  F87  1  0.73382600  0.23295200  0.72202100  1
  F  F88  1  0.26022100  0.18321100  0.08489800  1
  F  F89  1  0.73977900  0.18321100  0.41510200  1
  F  F90  1  0.73977900  0.81678900  0.91510200  1
  F  F91  1  0.26022100  0.81678900  0.58489800  1
  F  F92  1  0.51735950  0.72143350  0.01436000  1
  F  F93  1  0.48264050  0.72143350  0.48564000  1
  F  F94  1  0.48264050  0.27856650  0.98564000  1
  F  F95  1  0.51735950  0.27856650  0.51436000  1
  F  F96  1  0.58514650  0.60075850  0.15352900  1
  F  F97  1  0.41485350  0.60075850  0.34647100  1
  F  F98  1  0.41485350  0.39924150  0.84647100  1
  F  F99  1  0.58514650  0.39924150  0.65352900  1
  F  F100  1  0.09332000  0.55440400  0.13820500  1
  F  F101  1  0.90668000  0.55440400  0.36179500  1
  F  F102  1  0.90668000  0.44559600  0.86179500  1
  F  F103  1  0.09332000  0.44559600  0.63820500  1
  F  F104  1  0.32080950  0.48111250  0.20161400  1
  F  F105  1  0.67919050  0.48111250  0.29838600  1
  F  F106  1  0.67919050  0.51888750  0.79838600  1
  F  F107  1  0.32080950  0.51888750  0.70161400  1
  F  F108  1  0.36563850  0.47780650  0.05562700  1
  F  F109  1  0.63436150  0.47780650  0.44437300  1
  F  F110  1  0.63436150  0.52219350  0.94437300  1
  F  F111  1  0.36563850  0.52219350  0.55562700  1
  F  F112  1  0.13738450  0.54669350  0.98890400  1
  F  F113  1  0.86261550  0.54669350  0.51109600  1
  F  F114  1  0.86261550  0.45330650  0.01109600  1
  F  F115  1  0.13738450  0.45330650  0.48890400  1
  F  F116  1  0.28892550  0.66555850  0.10987800  1
  F  F117  1  0.71107450  0.66555850  0.39012200  1
  F  F118  1  0.71107450  0.33444150  0.89012200  1
  F  F119  1  0.28892550  0.33444150  0.60987800  1
  F  F120  1  0.16778800  0.37598500  0.08001700  1
  F  F121  1  0.83221200  0.37598500  0.41998300  1
  F  F122  1  0.83221200  0.62401500  0.91998300  1
  F  F123  1  0.16778800  0.62401500  0.58001700  1
  F  F124  1  0.99820550  0.30580850  0.15568200  1
  F  F125  1  0.00179450  0.30580850  0.34431800  1
  F  F126  1  0.00179450  0.69419150  0.84431800  1
  F  F127  1  0.99820550  0.69419150  0.65568200  1
  F  F128  1  0.23382600  0.26704800  0.22202100  1
  F  F129  1  0.76617400  0.26704800  0.27797900  1
  F  F130  1  0.76617400  0.73295200  0.77797900  1
  F  F131  1  0.23382600  0.73295200  0.72202100  1
  F  F132  1  0.76022100  0.68321100  0.08489800  1
  F  F133  1  0.23977900  0.68321100  0.41510200  1
  F  F134  1  0.23977900  0.31678900  0.91510200  1
  F  F135  1  0.76022100  0.31678900  0.58489800  1
  F  F136  1  0.01735950  0.22143350  0.01436000  1
  F  F137  1  0.98264050  0.22143350  0.48564000  1
  F  F138  1  0.98264050  0.77856650  0.98564000  1
  F  F139  1  0.01735950  0.77856650  0.51436000  1
  F  F140  1  0.08514650  0.10075850  0.15352900  1
  F  F141  1  0.91485350  0.10075850  0.34647100  1
  F  F142  1  0.91485350  0.89924150  0.84647100  1
  F  F143  1  0.08514650  0.89924150  0.65352900  1
