# generated using pymatgen
data_SiO2
_symmetry_space_group_name_H-M   'P 1'
_cell_length_a   5.11086821
_cell_length_b   5.11086821
_cell_length_c   8.62666400
_cell_angle_alpha   90.00000000
_cell_angle_beta   90.00000000
_cell_angle_gamma   120.00000000
_symmetry_Int_Tables_number   1
_chemical_formula_structural   SiO2
_chemical_formula_sum   'Si4 O8'
_cell_volume   195.14744909
_cell_formula_units_Z   4
loop_
 _symmetry_equiv_pos_site_id
 _symmetry_equiv_pos_as_xyz
  1  'x, y, z'
loop_
 _atom_site_type_symbol
 _atom_site_label
 _atom_site_symmetry_multiplicity
 _atom_site_fract_x
 _atom_site_fract_y
 _atom_site_fract_z
 _atom_site_occupancy
  Si  Si0  1  0.33333333  0.66666667  0.43719500  1
  Si  Si1  1  0.33333333  0.66666667  0.06280500  1
  Si  Si2  1  0.66666667  0.33333333  0.56280500  1
  Si  Si3  1  0.66666667  0.33333333  0.93719500  1
  O  O4  1  0.42063650  0.42063650  0.50000000  1
  O  O5  1  0.42063650  0.00000000  0.00000000  1
  O  O6  1  0.00000000  0.42063650  0.00000000  1
  O  O7  1  0.57936350  0.00000000  0.50000000  1
  O  O8  1  0.57936350  0.57936350  0.00000000  1
  O  O9  1  0.33333333  0.66666667  0.25000000  1
  O  O10  1  0.66666667  0.33333333  0.75000000  1
  O  O11  1  0.00000000  0.57936350  0.50000000  1
