# generated using pymatgen
data_NaGe4(PO4)3
_symmetry_space_group_name_H-M   'P 1'
_cell_length_a   9.65502726
_cell_length_b   9.65502726
_cell_length_c   24.12415535
_cell_angle_alpha   90.00000000
_cell_angle_beta   90.00000000
_cell_angle_gamma   120.00000000
_symmetry_Int_Tables_number   1
_chemical_formula_structural   NaGe4(PO4)3
_chemical_formula_sum   'Na6 Ge24 P18 O72'
_cell_volume   1947.55511366
_cell_formula_units_Z   6
loop_
 _symmetry_equiv_pos_site_id
 _symmetry_equiv_pos_as_xyz
  1  'x, y, z'
loop_
 _atom_site_type_symbol
 _atom_site_label
 _atom_site_symmetry_multiplicity
 _atom_site_fract_x
 _atom_site_fract_y
 _atom_site_fract_z
 _atom_site_occupancy
  Na  Na0  1  0.66666667  0.33333333  0.11768333  1
  Na  Na1  1  0.00000000  0.00000000  0.28435000  1
  Na  Na2  1  0.33333333  0.66666667  0.45101667  1
  Na  Na3  1  0.66666667  0.33333333  0.61768333  1
  Na  Na4  1  0.00000000  0.00000000  0.78435000  1
  Na  Na5  1  0.33333333  0.66666667  0.95101667  1
  Ge  Ge6  1  0.66666667  0.33333333  0.25842833  1
  Ge  Ge7  1  0.60962933  0.74804567  0.23100667  1
  Ge  Ge8  1  0.27629600  0.19491700  0.06434000  1
  Ge  Ge9  1  0.33333333  0.66666667  0.09176167  1
  Ge  Ge10  1  0.91862100  0.72370400  0.06434000  1
  Ge  Ge11  1  0.13841633  0.39037067  0.23100667  1
  Ge  Ge12  1  0.80508300  0.08137900  0.06434000  1
  Ge  Ge13  1  0.25195433  0.86158367  0.23100667  1
  Ge  Ge14  1  0.33333333  0.66666667  0.59176167  1
  Ge  Ge15  1  0.27629600  0.08137900  0.56434000  1
  Ge  Ge16  1  0.94296267  0.52825033  0.39767333  1
  Ge  Ge17  1  0.00000000  0.00000000  0.42509500  1
  Ge  Ge18  1  0.58528767  0.05703733  0.39767333  1
  Ge  Ge19  1  0.80508300  0.72370400  0.56434000  1
  Ge  Ge20  1  0.47174967  0.41471233  0.39767333  1
  Ge  Ge21  1  0.91862100  0.19491700  0.56434000  1
  Ge  Ge22  1  0.00000000  0.00000000  0.92509500  1
  Ge  Ge23  1  0.94296267  0.41471233  0.89767333  1
  Ge  Ge24  1  0.60962933  0.86158367  0.73100667  1
  Ge  Ge25  1  0.66666667  0.33333333  0.75842833  1
  Ge  Ge26  1  0.25195433  0.39037067  0.73100667  1
  Ge  Ge27  1  0.47174967  0.05703733  0.89767333  1
  Ge  Ge28  1  0.13841633  0.74804567  0.73100667  1
  Ge  Ge29  1  0.58528767  0.52825033  0.89767333  1
  P  P30  1  0.45536767  0.99820233  0.02514933  1
  P  P31  1  0.00179767  0.45716533  0.02514933  1
  P  P32  1  0.87616800  0.66486900  0.19181600  1
  P  P33  1  0.54283467  0.54463233  0.02514933  1
  P  P34  1  0.33513100  0.21129900  0.19181600  1
  P  P35  1  0.78870100  0.12383200  0.19181600  1
  P  P36  1  0.12203433  0.33153567  0.35848267  1
  P  P37  1  0.66846433  0.79049867  0.35848267  1
  P  P38  1  0.54283467  0.99820233  0.52514933  1
  P  P39  1  0.20950133  0.87796567  0.35848267  1
  P  P40  1  0.00179767  0.54463233  0.52514933  1
  P  P41  1  0.45536767  0.45716533  0.52514933  1
  P  P42  1  0.78870100  0.66486900  0.69181600  1
  P  P43  1  0.33513100  0.12383200  0.69181600  1
  P  P44  1  0.20950133  0.33153567  0.85848267  1
  P  P45  1  0.87616800  0.21129900  0.69181600  1
  P  P46  1  0.66846433  0.87796567  0.85848267  1
  P  P47  1  0.12203433  0.79049867  0.85848267  1
  O  O48  1  0.47946200  0.40392300  0.06716300  1
  O  O49  1  0.83367967  0.49413233  0.21075633  1
  O  O50  1  0.72627933  0.62299867  0.01894567  1
  O  O51  1  0.92446100  0.52053800  0.06716300  1
  O  O52  1  0.05961267  0.76994733  0.18561233  1
  O  O53  1  0.50034633  0.67288067  0.04408967  1
  O  O54  1  0.79759000  0.65111700  0.13396900  1
  O  O55  1  0.92941033  0.18720467  0.23382967  1
  O  O56  1  0.23005267  0.28966533  0.18561233  1
  O  O57  1  0.85352700  0.20241000  0.13396900  1
  O  O58  1  0.25779433  0.07058967  0.23382967  1
  O  O59  1  0.37700133  0.10328067  0.01894567  1
  O  O60  1  0.13092333  0.81313967  0.30063567  1
  O  O61  1  0.89671933  0.27372067  0.01894567  1
  O  O62  1  0.17253433  0.49965367  0.04408967  1
  O  O63  1  0.71033467  0.94038733  0.18561233  1
  O  O64  1  0.59607700  0.07553900  0.06716300  1
  O  O65  1  0.32711933  0.82746567  0.04408967  1
  O  O66  1  0.18686033  0.31778367  0.30063567  1
  O  O67  1  0.66045267  0.16632033  0.21075633  1
  O  O68  1  0.68221633  0.86907667  0.30063567  1
  O  O69  1  0.34888300  0.14647300  0.13396900  1
  O  O70  1  0.50586767  0.33954733  0.21075633  1
  O  O71  1  0.81279533  0.74220567  0.23382967  1
  O  O72  1  0.14612867  0.73725633  0.40049633  1
  O  O73  1  0.50034633  0.82746567  0.54408967  1
  O  O74  1  0.39294600  0.95633200  0.35227900  1
  O  O75  1  0.59112767  0.85387133  0.40049633  1
  O  O76  1  0.72627933  0.10328067  0.51894567  1
  O  O77  1  0.16701300  0.00621400  0.37742300  1
  O  O78  1  0.46425667  0.98445033  0.46730233  1
  O  O79  1  0.59607700  0.52053800  0.56716300  1
  O  O80  1  0.89671933  0.62299867  0.51894567  1
  O  O81  1  0.52019367  0.53574333  0.46730233  1
  O  O82  1  0.92446100  0.40392300  0.56716300  1
  O  O83  1  0.04366800  0.43661400  0.35227900  1
  O  O84  1  0.79759000  0.14647300  0.63396900  1
  O  O85  1  0.56338600  0.60705400  0.35227900  1
  O  O86  1  0.83920100  0.83298700  0.37742300  1
  O  O87  1  0.37700133  0.27372067  0.51894567  1
  O  O88  1  0.26274367  0.40887233  0.40049633  1
  O  O89  1  0.99378600  0.16079900  0.37742300  1
  O  O90  1  0.85352700  0.65111700  0.63396900  1
  O  O91  1  0.32711933  0.49965367  0.54408967  1
  O  O92  1  0.34888300  0.20241000  0.63396900  1
  O  O93  1  0.01554967  0.47980633  0.46730233  1
  O  O94  1  0.17253433  0.67288067  0.54408967  1
  O  O95  1  0.47946200  0.07553900  0.56716300  1
  O  O96  1  0.81279533  0.07058967  0.73382967  1
  O  O97  1  0.16701300  0.16079900  0.87742300  1
  O  O98  1  0.05961267  0.28966533  0.68561233  1
  O  O99  1  0.25779433  0.18720467  0.73382967  1
  O  O100  1  0.39294600  0.43661400  0.85227900  1
  O  O101  1  0.83367967  0.33954733  0.71075633  1
  O  O102  1  0.13092333  0.31778367  0.80063567  1
  O  O103  1  0.26274367  0.85387133  0.90049633  1
  O  O104  1  0.56338600  0.95633200  0.85227900  1
  O  O105  1  0.18686033  0.86907667  0.80063567  1
  O  O106  1  0.59112767  0.73725633  0.90049633  1
  O  O107  1  0.71033467  0.76994733  0.68561233  1
  O  O108  1  0.46425667  0.47980633  0.96730233  1
  O  O109  1  0.23005267  0.94038733  0.68561233  1
  O  O110  1  0.50586767  0.16632033  0.71075633  1
  O  O111  1  0.04366800  0.60705400  0.85227900  1
  O  O112  1  0.92941033  0.74220567  0.73382967  1
  O  O113  1  0.66045267  0.49413233  0.71075633  1
  O  O114  1  0.52019367  0.98445033  0.96730233  1
  O  O115  1  0.99378600  0.83298700  0.87742300  1
  O  O116  1  0.01554967  0.53574333  0.96730233  1
  O  O117  1  0.68221633  0.81313967  0.80063567  1
  O  O118  1  0.83920100  0.00621400  0.87742300  1
  O  O119  1  0.14612867  0.40887233  0.90049633  1
