# generated using pymatgen
data_BaBiClO2
_symmetry_space_group_name_H-M   'P 1'
_cell_length_a   5.99401600
_cell_length_b   13.39184200
_cell_length_c   5.78393000
_cell_angle_alpha   90.00000000
_cell_angle_beta   90.00000000
_cell_angle_gamma   90.00000000
_symmetry_Int_Tables_number   1
_chemical_formula_structural   BaBiClO2
_chemical_formula_sum   'Ba4 Bi4 Cl4 O8'
_cell_volume   464.28135465
_cell_formula_units_Z   4
loop_
 _symmetry_equiv_pos_site_id
 _symmetry_equiv_pos_as_xyz
  1  'x, y, z'
loop_
 _atom_site_type_symbol
 _atom_site_label
 _atom_site_symmetry_multiplicity
 _atom_site_fract_x
 _atom_site_fract_y
 _atom_site_fract_z
 _atom_site_occupancy
  Ba  Ba0  1  0.00000000  0.38255700  0.25000000  1
  Ba  Ba1  1  0.50000000  0.11744300  0.75000000  1
  Ba  Ba2  1  0.50000000  0.88255700  0.25000000  1
  Ba  Ba3  1  0.00000000  0.61744300  0.75000000  1
  Bi  Bi4  1  0.00000000  0.07406800  0.25000000  1
  Bi  Bi5  1  0.50000000  0.42593200  0.75000000  1
  Bi  Bi6  1  0.50000000  0.57406800  0.25000000  1
  Bi  Bi7  1  0.00000000  0.92593200  0.75000000  1
  Cl  Cl8  1  0.50000000  0.24585800  0.25000000  1
  Cl  Cl9  1  0.00000000  0.25414200  0.75000000  1
  Cl  Cl10  1  0.00000000  0.74585800  0.25000000  1
  Cl  Cl11  1  0.50000000  0.75414200  0.75000000  1
  O  O12  1  0.77237400  0.00000000  0.00000000  1
  O  O13  1  0.22762600  0.00000000  0.00000000  1
  O  O14  1  0.77237400  0.00000000  0.50000000  1
  O  O15  1  0.22762600  0.00000000  0.50000000  1
  O  O16  1  0.27237400  0.50000000  0.00000000  1
  O  O17  1  0.72762600  0.50000000  0.00000000  1
  O  O18  1  0.27237400  0.50000000  0.50000000  1
  O  O19  1  0.72762600  0.50000000  0.50000000  1
