# generated using pymatgen
data_Cs3B12H12Br
_symmetry_space_group_name_H-M   'P 1'
_cell_length_a   10.63341138
_cell_length_b   10.63341138
_cell_length_c   12.01408896
_cell_angle_alpha   90.00000000
_cell_angle_beta   90.00000000
_cell_angle_gamma   120.00000000
_symmetry_Int_Tables_number   1
_chemical_formula_structural   Cs3B12H12Br
_chemical_formula_sum   'Cs9 B36 H36 Br3'
_cell_volume   1176.43166864
_cell_formula_units_Z   3
loop_
 _symmetry_equiv_pos_site_id
 _symmetry_equiv_pos_as_xyz
  1  'x, y, z'
loop_
 _atom_site_type_symbol
 _atom_site_label
 _atom_site_symmetry_multiplicity
 _atom_site_fract_x
 _atom_site_fract_y
 _atom_site_fract_z
 _atom_site_occupancy
  Cs  Cs0  1  0.16666667  0.83333333  0.33333333  1
  Cs  Cs1  1  0.66666667  0.83333333  0.33333333  1
  Cs  Cs2  1  0.16666667  0.33333333  0.33333333  1
  Cs  Cs3  1  0.83333333  0.16666667  0.66666667  1
  Cs  Cs4  1  0.33333333  0.16666667  0.66666667  1
  Cs  Cs5  1  0.83333333  0.66666667  0.66666667  1
  Cs  Cs6  1  0.50000000  0.50000000  0.00000000  1
  Cs  Cs7  1  0.00000000  0.50000000  0.00000000  1
  Cs  Cs8  1  0.50000000  0.00000000  0.00000000  1
  B  B9  1  0.05576167  0.11152333  0.88793433  1
  B  B10  1  0.05576167  0.94423833  0.88793433  1
  B  B11  1  0.88847667  0.94423833  0.88793433  1
  B  B12  1  0.11152333  0.05576167  0.11206567  1
  B  B13  1  0.94423833  0.88847667  0.11206567  1
  B  B14  1  0.94423833  0.05576167  0.11206567  1
  B  B15  1  0.75694167  0.51388333  0.35987633  1
  B  B16  1  0.75694167  0.24305833  0.35987633  1
  B  B17  1  0.48611667  0.24305833  0.35987633  1
  B  B18  1  0.51388333  0.75694167  0.64012367  1
  B  B19  1  0.24305833  0.48611667  0.64012367  1
  B  B20  1  0.24305833  0.75694167  0.64012367  1
  B  B21  1  0.72242833  0.44485667  0.22126767  1
  B  B22  1  0.72242833  0.27757167  0.22126767  1
  B  B23  1  0.55514333  0.27757167  0.22126767  1
  B  B24  1  0.77819000  0.38909500  0.44539900  1
  B  B25  1  0.61090500  0.22181000  0.44539900  1
  B  B26  1  0.61090500  0.38909500  0.44539900  1
  B  B27  1  0.42360833  0.84721667  0.69320967  1
  B  B28  1  0.42360833  0.57639167  0.69320967  1
  B  B29  1  0.15278333  0.57639167  0.69320967  1
  B  B30  1  0.18055000  0.09027500  0.97345700  1
  B  B31  1  0.90972500  0.81945000  0.97345700  1
  B  B32  1  0.90972500  0.09027500  0.97345700  1
  B  B33  1  0.38909500  0.77819000  0.55460100  1
  B  B34  1  0.38909500  0.61090500  0.55460100  1
  B  B35  1  0.22181000  0.61090500  0.55460100  1
  B  B36  1  0.44485667  0.72242833  0.77873233  1
  B  B37  1  0.27757167  0.55514333  0.77873233  1
  B  B38  1  0.27757167  0.72242833  0.77873233  1
  B  B39  1  0.09027500  0.18055000  0.02654300  1
  B  B40  1  0.09027500  0.90972500  0.02654300  1
  B  B41  1  0.81945000  0.90972500  0.02654300  1
  B  B42  1  0.84721667  0.42360833  0.30679033  1
  B  B43  1  0.57639167  0.15278333  0.30679033  1
  B  B44  1  0.57639167  0.42360833  0.30679033  1
  H  H45  1  0.90423933  0.80847867  0.19129367  1
  H  H46  1  0.90423933  0.09576067  0.19129367  1
  H  H47  1  0.19152133  0.09576067  0.19129367  1
  H  H48  1  0.80847867  0.90423933  0.80870633  1
  H  H49  1  0.09576067  0.19152133  0.80870633  1
  H  H50  1  0.09576067  0.90423933  0.80870633  1
  H  H51  1  0.82122233  0.64244467  0.37950667  1
  H  H52  1  0.82122233  0.17877767  0.37950667  1
  H  H53  1  0.35755533  0.17877767  0.37950667  1
  H  H54  1  0.64244467  0.82122233  0.62049333  1
  H  H55  1  0.17877767  0.35755533  0.62049333  1
  H  H56  1  0.17877767  0.82122233  0.62049333  1
  H  H57  1  0.57090600  0.14181200  0.52462700  1
  H  H58  1  0.57090600  0.42909400  0.52462700  1
  H  H59  1  0.85818800  0.42909400  0.52462700  1
  H  H60  1  0.47514533  0.23757267  0.14203967  1
  H  H61  1  0.76242733  0.52485467  0.14203967  1
  H  H62  1  0.76242733  0.23757267  0.14203967  1
  H  H63  1  0.48788900  0.97577800  0.71284000  1
  H  H64  1  0.48788900  0.51211100  0.71284000  1
  H  H65  1  0.02422200  0.51211100  0.71284000  1
  H  H66  1  0.30911133  0.15455567  0.95382667  1
  H  H67  1  0.84544433  0.69088867  0.95382667  1
  H  H68  1  0.84544433  0.15455567  0.95382667  1
  H  H69  1  0.23757267  0.47514533  0.85796033  1
  H  H70  1  0.23757267  0.76242733  0.85796033  1
  H  H71  1  0.52485467  0.76242733  0.85796033  1
  H  H72  1  0.14181200  0.57090600  0.47537300  1
  H  H73  1  0.42909400  0.85818800  0.47537300  1
  H  H74  1  0.42909400  0.57090600  0.47537300  1
  H  H75  1  0.15455567  0.30911133  0.04617333  1
  H  H76  1  0.15455567  0.84544433  0.04617333  1
  H  H77  1  0.69088867  0.84544433  0.04617333  1
  H  H78  1  0.97577800  0.48788900  0.28716000  1
  H  H79  1  0.51211100  0.02422200  0.28716000  1
  H  H80  1  0.51211100  0.48788900  0.28716000  1
  Br  Br81  1  0.00000000  0.00000000  0.50000000  1
  Br  Br82  1  0.66666667  0.33333333  0.83333333  1
  Br  Br83  1  0.33333333  0.66666667  0.16666667  1
