# generated using pymatgen
data_Na4TiSe4
_symmetry_space_group_name_H-M   'P 1'
_cell_length_a   28.25370400
_cell_length_b   7.40681600
_cell_length_c   21.71078902
_cell_angle_alpha   90.00000000
_cell_angle_beta   123.71066431
_cell_angle_gamma   90.00000000
_symmetry_Int_Tables_number   1
_chemical_formula_structural   Na4TiSe4
_chemical_formula_sum   'Na64 Ti16 Se64'
_cell_volume   3779.44484171
_cell_formula_units_Z   16
loop_
 _symmetry_equiv_pos_site_id
 _symmetry_equiv_pos_as_xyz
  1  'x, y, z'
loop_
 _atom_site_type_symbol
 _atom_site_label
 _atom_site_symmetry_multiplicity
 _atom_site_fract_x
 _atom_site_fract_y
 _atom_site_fract_z
 _atom_site_occupancy
  Na  Na0  1  0.33553250  0.00903650  0.81548200  1
  Na  Na1  1  0.16446750  0.50903650  0.68451800  1
  Na  Na2  1  0.66446750  0.99096350  0.18451800  1
  Na  Na3  1  0.83553250  0.49096350  0.31548200  1
  Na  Na4  1  0.15534900  0.02247800  0.67366600  1
  Na  Na5  1  0.34465100  0.52247800  0.82633400  1
  Na  Na6  1  0.84465100  0.97752200  0.32633400  1
  Na  Na7  1  0.65534900  0.47752200  0.17366600  1
  Na  Na8  1  0.15095200  0.26931700  0.93667300  1
  Na  Na9  1  0.84904800  0.26931700  0.56332700  1
  Na  Na10  1  0.84904800  0.73068300  0.06332700  1
  Na  Na11  1  0.15095200  0.73068300  0.43667300  1
  Na  Na12  1  0.31488850  0.11749450  0.63597600  1
  Na  Na13  1  0.18511150  0.61749450  0.86402400  1
  Na  Na14  1  0.68511150  0.88250550  0.36402400  1
  Na  Na15  1  0.81488850  0.38250550  0.13597600  1
  Na  Na16  1  0.67027650  0.26324050  0.02011200  1
  Na  Na17  1  0.82972350  0.76324050  0.47988800  1
  Na  Na18  1  0.32972350  0.73675950  0.97988800  1
  Na  Na19  1  0.17027650  0.23675950  0.52011200  1
  Na  Na20  1  0.92740300  0.04257300  0.22321600  1
  Na  Na21  1  0.07259700  0.04257300  0.27678400  1
  Na  Na22  1  0.07259700  0.95742700  0.77678400  1
  Na  Na23  1  0.92740300  0.95742700  0.72321600  1
  Na  Na24  1  0.96163150  0.42224050  0.78897800  1
  Na  Na25  1  0.03836850  0.42224050  0.71102200  1
  Na  Na26  1  0.03836850  0.57775950  0.21102200  1
  Na  Na27  1  0.96163150  0.57775950  0.28897800  1
  Na  Na28  1  0.54891350  0.76382750  0.00712400  1
  Na  Na29  1  0.95108650  0.26382750  0.49287600  1
  Na  Na30  1  0.45108650  0.23617250  0.99287600  1
  Na  Na31  1  0.04891350  0.73617250  0.50712400  1
  Na  Na32  1  0.83553250  0.50903650  0.81548200  1
  Na  Na33  1  0.66446750  0.00903650  0.68451800  1
  Na  Na34  1  0.16446750  0.49096350  0.18451800  1
  Na  Na35  1  0.33553250  0.99096350  0.31548200  1
  Na  Na36  1  0.65534900  0.52247800  0.67366600  1
  Na  Na37  1  0.84465100  0.02247800  0.82633400  1
  Na  Na38  1  0.34465100  0.47752200  0.32633400  1
  Na  Na39  1  0.15534900  0.97752200  0.17366600  1
  Na  Na40  1  0.65095200  0.76931700  0.93667300  1
  Na  Na41  1  0.34904800  0.76931700  0.56332700  1
  Na  Na42  1  0.34904800  0.23068300  0.06332700  1
  Na  Na43  1  0.65095200  0.23068300  0.43667300  1
  Na  Na44  1  0.81488850  0.61749450  0.63597600  1
  Na  Na45  1  0.68511150  0.11749450  0.86402400  1
  Na  Na46  1  0.18511150  0.38250550  0.36402400  1
  Na  Na47  1  0.31488850  0.88250550  0.13597600  1
  Na  Na48  1  0.17027650  0.76324050  0.02011200  1
  Na  Na49  1  0.32972350  0.26324050  0.47988800  1
  Na  Na50  1  0.82972350  0.23675950  0.97988800  1
  Na  Na51  1  0.67027650  0.73675950  0.52011200  1
  Na  Na52  1  0.42740300  0.54257300  0.22321600  1
  Na  Na53  1  0.57259700  0.54257300  0.27678400  1
  Na  Na54  1  0.57259700  0.45742700  0.77678400  1
  Na  Na55  1  0.42740300  0.45742700  0.72321600  1
  Na  Na56  1  0.46163150  0.92224050  0.78897800  1
  Na  Na57  1  0.53836850  0.92224050  0.71102200  1
  Na  Na58  1  0.53836850  0.07775950  0.21102200  1
  Na  Na59  1  0.46163150  0.07775950  0.28897800  1
  Na  Na60  1  0.04891350  0.26382750  0.00712400  1
  Na  Na61  1  0.45108650  0.76382750  0.49287600  1
  Na  Na62  1  0.95108650  0.73617250  0.99287600  1
  Na  Na63  1  0.54891350  0.23617250  0.50712400  1
  Ti  Ti64  1  0.02836650  0.80308150  0.90319800  1
  Ti  Ti65  1  0.97163350  0.80308150  0.59680200  1
  Ti  Ti66  1  0.97163350  0.19691850  0.09680200  1
  Ti  Ti67  1  0.02836650  0.19691850  0.40319800  1
  Ti  Ti68  1  0.75989950  0.91478450  0.12806800  1
  Ti  Ti69  1  0.74010050  0.41478450  0.37193200  1
  Ti  Ti70  1  0.24010050  0.08521550  0.87193200  1
  Ti  Ti71  1  0.25989950  0.58521550  0.62806800  1
  Ti  Ti72  1  0.52836650  0.30308150  0.90319800  1
  Ti  Ti73  1  0.47163350  0.30308150  0.59680200  1
  Ti  Ti74  1  0.47163350  0.69691850  0.09680200  1
  Ti  Ti75  1  0.52836650  0.69691850  0.40319800  1
  Ti  Ti76  1  0.25989950  0.41478450  0.12806800  1
  Ti  Ti77  1  0.24010050  0.91478450  0.37193200  1
  Ti  Ti78  1  0.74010050  0.58521550  0.87193200  1
  Ti  Ti79  1  0.75989950  0.08521550  0.62806800  1
  Se  Se80  1  0.92866050  0.26824250  0.33704300  1
  Se  Se81  1  0.07133950  0.26824250  0.16295700  1
  Se  Se82  1  0.07133950  0.73175750  0.66295700  1
  Se  Se83  1  0.92866050  0.73175750  0.83704300  1
  Se  Se84  1  0.03456650  0.89077250  0.36978800  1
  Se  Se85  1  0.96543350  0.89077250  0.13021200  1
  Se  Se86  1  0.96543350  0.10922750  0.63021200  1
  Se  Se87  1  0.03456650  0.10922750  0.86978800  1
  Se  Se88  1  0.57108300  0.26010900  0.03278700  1
  Se  Se89  1  0.92891700  0.76010900  0.46721300  1
  Se  Se90  1  0.42891700  0.73989100  0.96721300  1
  Se  Se91  1  0.07108300  0.23989100  0.53278700  1
  Se  Se92  1  0.07712950  0.61821250  0.86253300  1
  Se  Se93  1  0.92287050  0.61821250  0.63746700  1
  Se  Se94  1  0.92287050  0.38178750  0.13746700  1
  Se  Se95  1  0.07712950  0.38178750  0.36253300  1
  Se  Se96  1  0.76083700  0.01521600  0.02441500  1
  Se  Se97  1  0.73916300  0.51521600  0.47558500  1
  Se  Se98  1  0.23916300  0.98478400  0.97558500  1
  Se  Se99  1  0.26083700  0.48478400  0.52441500  1
  Se  Se100  1  0.25475900  0.31461200  0.68719500  1
  Se  Se101  1  0.24524100  0.81461200  0.81280500  1
  Se  Se102  1  0.74524100  0.68538800  0.31280500  1
  Se  Se103  1  0.75475900  0.18538800  0.18719500  1
  Se  Se104  1  0.34765750  0.75179050  0.71146200  1
  Se  Se105  1  0.15234250  0.25179050  0.78853800  1
  Se  Se106  1  0.65234250  0.24820950  0.28853800  1
  Se  Se107  1  0.84765750  0.74820950  0.21146200  1
  Se  Se108  1  0.17770700  0.76522200  0.58715900  1
  Se  Se109  1  0.32229300  0.26522200  0.91284100  1
  Se  Se110  1  0.82229300  0.23477800  0.41284100  1
  Se  Se111  1  0.67770700  0.73477800  0.08715900  1
  Se  Se112  1  0.42866050  0.76824250  0.33704300  1
  Se  Se113  1  0.57133950  0.76824250  0.16295700  1
  Se  Se114  1  0.57133950  0.23175750  0.66295700  1
  Se  Se115  1  0.42866050  0.23175750  0.83704300  1
  Se  Se116  1  0.53456650  0.39077250  0.36978800  1
  Se  Se117  1  0.46543350  0.39077250  0.13021200  1
  Se  Se118  1  0.46543350  0.60922750  0.63021200  1
  Se  Se119  1  0.53456650  0.60922750  0.86978800  1
  Se  Se120  1  0.07108300  0.76010900  0.03278700  1
  Se  Se121  1  0.42891700  0.26010900  0.46721300  1
  Se  Se122  1  0.92891700  0.23989100  0.96721300  1
  Se  Se123  1  0.57108300  0.73989100  0.53278700  1
  Se  Se124  1  0.57712950  0.11821250  0.86253300  1
  Se  Se125  1  0.42287050  0.11821250  0.63746700  1
  Se  Se126  1  0.42287050  0.88178750  0.13746700  1
  Se  Se127  1  0.57712950  0.88178750  0.36253300  1
  Se  Se128  1  0.26083700  0.51521600  0.02441500  1
  Se  Se129  1  0.23916300  0.01521600  0.47558500  1
  Se  Se130  1  0.73916300  0.48478400  0.97558500  1
  Se  Se131  1  0.76083700  0.98478400  0.52441500  1
  Se  Se132  1  0.75475900  0.81461200  0.68719500  1
  Se  Se133  1  0.74524100  0.31461200  0.81280500  1
  Se  Se134  1  0.24524100  0.18538800  0.31280500  1
  Se  Se135  1  0.25475900  0.68538800  0.18719500  1
  Se  Se136  1  0.84765750  0.25179050  0.71146200  1
  Se  Se137  1  0.65234250  0.75179050  0.78853800  1
  Se  Se138  1  0.15234250  0.74820950  0.28853800  1
  Se  Se139  1  0.34765750  0.24820950  0.21146200  1
  Se  Se140  1  0.67770700  0.26522200  0.58715900  1
  Se  Se141  1  0.82229300  0.76522200  0.91284100  1
  Se  Se142  1  0.32229300  0.73477800  0.41284100  1
  Se  Se143  1  0.17770700  0.23477800  0.08715900  1
