# generated using pymatgen
data_LiZnPO4
_symmetry_space_group_name_H-M   'P 1'
_cell_length_a   17.51094000
_cell_length_b   9.88729400
_cell_length_c   16.41402029
_cell_angle_alpha   90.00000000
_cell_angle_beta   98.83756157
_cell_angle_gamma   90.00000000
_symmetry_Int_Tables_number   1
_chemical_formula_structural   LiZnPO4
_chemical_formula_sum   'Li32 Zn32 P32 O128'
_cell_volume   2808.11587828
_cell_formula_units_Z   32
loop_
 _symmetry_equiv_pos_site_id
 _symmetry_equiv_pos_as_xyz
  1  'x, y, z'
loop_
 _atom_site_type_symbol
 _atom_site_label
 _atom_site_symmetry_multiplicity
 _atom_site_fract_x
 _atom_site_fract_y
 _atom_site_fract_z
 _atom_site_occupancy
  Li  Li0  1  0.77330250  0.91350950  0.50133500  1
  Li  Li1  1  0.99382350  0.19339050  0.50278700  1
  Li  Li2  1  0.57975600  0.66058400  0.25310800  1
  Li  Li3  1  0.61367900  0.18251300  0.25242200  1
  Li  Li4  1  0.74354750  0.44514550  0.50342800  1
  Li  Li5  1  0.74354750  0.55485450  0.00342800  1
  Li  Li6  1  0.86067550  0.43738450  0.25274200  1
  Li  Li7  1  0.86067550  0.56261550  0.75274200  1
  Li  Li8  1  0.61367900  0.81748700  0.75242200  1
  Li  Li9  1  0.99382350  0.80660950  0.00278700  1
  Li  Li10  1  0.77330250  0.08649050  0.00133500  1
  Li  Li11  1  0.83288850  0.09283450  0.75151100  1
  Li  Li12  1  0.57975600  0.33941600  0.75310800  1
  Li  Li13  1  0.52397500  0.83664100  0.00256100  1
  Li  Li14  1  0.52397500  0.16335900  0.50256100  1
  Li  Li15  1  0.83288850  0.90716550  0.25151100  1
  Li  Li16  1  0.27330250  0.41350950  0.50133500  1
  Li  Li17  1  0.49382350  0.69339050  0.50278700  1
  Li  Li18  1  0.07975600  0.16058400  0.25310800  1
  Li  Li19  1  0.11367900  0.68251300  0.25242200  1
  Li  Li20  1  0.24354750  0.94514550  0.50342800  1
  Li  Li21  1  0.24354750  0.05485450  0.00342800  1
  Li  Li22  1  0.36067550  0.93738450  0.25274200  1
  Li  Li23  1  0.36067550  0.06261550  0.75274200  1
  Li  Li24  1  0.11367900  0.31748700  0.75242200  1
  Li  Li25  1  0.49382350  0.30660950  0.00278700  1
  Li  Li26  1  0.27330250  0.58649050  0.00133500  1
  Li  Li27  1  0.33288850  0.59283450  0.75151100  1
  Li  Li28  1  0.07975600  0.83941600  0.75310800  1
  Li  Li29  1  0.02397500  0.33664100  0.00256100  1
  Li  Li30  1  0.02397500  0.66335900  0.50256100  1
  Li  Li31  1  0.33288850  0.40716550  0.25151100  1
  Zn  Zn32  1  0.64340300  0.58915400  0.62919300  1
  Zn  Zn33  1  0.83511400  0.16061000  0.37776900  1
  Zn  Zn34  1  0.55704850  0.06231750  0.87857800  1
  Zn  Zn35  1  0.80455900  0.68413600  0.37866300  1
  Zn  Zn36  1  0.67371350  0.94428550  0.12725300  1
  Zn  Zn37  1  0.67371350  0.05571450  0.62725300  1
  Zn  Zn38  1  0.80455900  0.31586400  0.87866300  1
  Zn  Zn39  1  0.55704850  0.93768250  0.37857800  1
  Zn  Zn40  1  0.58248300  0.59147000  0.87913900  1
  Zn  Zn41  1  0.64340300  0.41084600  0.12919300  1
  Zn  Zn42  1  0.89260900  0.33811800  0.62742100  1
  Zn  Zn43  1  0.92425350  0.19124650  0.12810600  1
  Zn  Zn44  1  0.89260900  0.66188200  0.12742100  1
  Zn  Zn45  1  0.92425350  0.80875350  0.62810600  1
  Zn  Zn46  1  0.58248300  0.40853000  0.37913900  1
  Zn  Zn47  1  0.83511400  0.83939000  0.87776900  1
  Zn  Zn48  1  0.14340300  0.08915400  0.62919300  1
  Zn  Zn49  1  0.33511400  0.66061000  0.37776900  1
  Zn  Zn50  1  0.05704850  0.56231750  0.87857800  1
  Zn  Zn51  1  0.30455900  0.18413600  0.37866300  1
  Zn  Zn52  1  0.17371350  0.44428550  0.12725300  1
  Zn  Zn53  1  0.17371350  0.55571450  0.62725300  1
  Zn  Zn54  1  0.30455900  0.81586400  0.87866300  1
  Zn  Zn55  1  0.05704850  0.43768250  0.37857800  1
  Zn  Zn56  1  0.08248300  0.09147000  0.87913900  1
  Zn  Zn57  1  0.14340300  0.91084600  0.12919300  1
  Zn  Zn58  1  0.39260900  0.83811800  0.62742100  1
  Zn  Zn59  1  0.42425350  0.69124650  0.12810600  1
  Zn  Zn60  1  0.39260900  0.16188200  0.12742100  1
  Zn  Zn61  1  0.42425350  0.30875350  0.62810600  1
  Zn  Zn62  1  0.08248300  0.90853000  0.37913900  1
  Zn  Zn63  1  0.33511400  0.33939000  0.87776900  1
  P  P64  1  0.76980550  0.18662250  0.18892600  1
  P  P65  1  0.73990400  0.34196800  0.69085900  1
  P  P66  1  0.67640100  0.84171500  0.93982700  1
  P  P67  1  0.99187700  0.90652800  0.19093500  1
  P  P68  1  0.51833550  0.93673150  0.18920400  1
  P  P69  1  0.51833550  0.06326850  0.68920400  1
  P  P70  1  0.92447700  0.09295800  0.93982100  1
  P  P71  1  0.64729700  0.31392100  0.94178200  1
  P  P72  1  0.89886850  0.56407350  0.94128100  1
  P  P73  1  0.64729700  0.68607900  0.44178200  1
  P  P74  1  0.73990400  0.65803200  0.19085900  1
  P  P75  1  0.67640100  0.15828500  0.43982700  1
  P  P76  1  0.89886850  0.43592650  0.44128100  1
  P  P77  1  0.92447700  0.90704200  0.43982100  1
  P  P78  1  0.76980550  0.81337750  0.68892600  1
  P  P79  1  0.99187700  0.09347200  0.69093500  1
  P  P80  1  0.26980550  0.68662250  0.18892600  1
  P  P81  1  0.23990400  0.84196800  0.69085900  1
  P  P82  1  0.17640100  0.34171500  0.93982700  1
  P  P83  1  0.49187700  0.40652800  0.19093500  1
  P  P84  1  0.01833550  0.43673150  0.18920400  1
  P  P85  1  0.01833550  0.56326850  0.68920400  1
  P  P86  1  0.42447700  0.59295800  0.93982100  1
  P  P87  1  0.14729700  0.81392100  0.94178200  1
  P  P88  1  0.39886850  0.06407350  0.94128100  1
  P  P89  1  0.14729700  0.18607900  0.44178200  1
  P  P90  1  0.23990400  0.15803200  0.19085900  1
  P  P91  1  0.17640100  0.65828500  0.43982700  1
  P  P92  1  0.39886850  0.93592650  0.44128100  1
  P  P93  1  0.42447700  0.40704200  0.43982100  1
  P  P94  1  0.26980550  0.31337750  0.68892600  1
  P  P95  1  0.49187700  0.59347200  0.69093500  1
  O  O96  1  0.75996150  0.10095650  0.45153300  1
  O  O97  1  0.67995000  0.31379900  0.42711400  1
  O  O98  1  0.93061850  0.06193350  0.42614100  1
  O  O99  1  0.83757650  0.72025350  0.67345400  1
  O  O100  1  0.77971600  0.37620200  0.61465100  1
  O  O101  1  0.91931400  0.66168400  0.01566100  1
  O  O102  1  0.79234700  0.40066500  0.76807200  1
  O  O103  1  0.61880550  0.59527350  0.36545700  1
  O  O104  1  0.62487000  0.90497600  0.86329200  1
  O  O105  1  0.91003700  0.15781700  0.67957300  1
  O  O106  1  0.91931400  0.33831600  0.51566100  1
  O  O107  1  0.99882450  0.33813150  0.11503500  1
  O  O108  1  0.54648400  0.34489100  0.26534700  1
  O  O109  1  0.77971600  0.62379800  0.11465100  1
  O  O110  1  0.94758150  0.52438550  0.20203800  1
  O  O111  1  0.91003700  0.84218300  0.17957300  1
  O  O112  1  0.65783000  0.59474200  0.17883700  1
  O  O113  1  0.96999850  0.52130450  0.42649500  1
  O  O114  1  0.58223800  0.21532000  0.95795300  1
  O  O115  1  0.67995000  0.68620100  0.92711400  1
  O  O116  1  0.63687750  0.12296850  0.51585400  1
  O  O117  1  0.79471750  0.09484950  0.26548400  1
  O  O118  1  0.83288550  0.46749150  0.95760000  1
  O  O119  1  0.58646800  0.02886500  0.17341800  1
  O  O120  1  0.65783000  0.40525800  0.67883700  1
  O  O121  1  0.98394600  0.93892600  0.70502800  1
  O  O122  1  0.52998250  0.37709250  0.11290200  1
  O  O123  1  0.83288550  0.53250850  0.45760000  1
  O  O124  1  0.73367950  0.81334850  0.20303200  1
  O  O125  1  0.69963550  0.27406050  0.20426900  1
  O  O126  1  0.74765400  0.90835700  0.61333300  1
  O  O127  1  0.79234700  0.59933500  0.26807200  1
  O  O128  1  0.69963550  0.72593950  0.70426900  1
  O  O129  1  0.54119000  0.15037200  0.76838400  1
  O  O130  1  0.66931900  0.40949400  0.01688500  1
  O  O131  1  0.54119000  0.84962800  0.26838400  1
  O  O132  1  0.50725300  0.34625800  0.45074100  1
  O  O133  1  0.94758150  0.47561450  0.70203800  1
  O  O134  1  0.58223800  0.78468000  0.45795300  1
  O  O135  1  0.87257150  0.65271750  0.86335000  1
  O  O136  1  0.96999850  0.47869550  0.92649500  1
  O  O137  1  0.61880550  0.40472650  0.86545700  1
  O  O138  1  0.54648400  0.65510900  0.76534700  1
  O  O139  1  0.98394600  0.06107400  0.20502800  1
  O  O140  1  0.87073900  0.84416300  0.36489300  1
  O  O141  1  0.99882450  0.66186850  0.61503500  1
  O  O142  1  0.79471750  0.90515050  0.76548400  1
  O  O143  1  0.74765400  0.09164300  0.11333300  1
  O  O144  1  0.62487000  0.09502400  0.36329200  1
  O  O145  1  0.83757650  0.27974650  0.17345400  1
  O  O146  1  0.87257150  0.34728250  0.36335000  1
  O  O147  1  0.93061850  0.93806650  0.92614100  1
  O  O148  1  0.71828450  0.77024450  0.42516000  1
  O  O149  1  0.50725300  0.65374200  0.95074100  1
  O  O150  1  0.75996150  0.89904350  0.95153300  1
  O  O151  1  0.52998250  0.62290750  0.61290200  1
  O  O152  1  0.58646800  0.97113500  0.67341800  1
  O  O153  1  0.73367950  0.18665150  0.70303200  1
  O  O154  1  0.66931900  0.59050600  0.51688500  1
  O  O155  1  0.87073900  0.15583700  0.86489300  1
  O  O156  1  0.88614950  0.12443550  0.01716700  1
  O  O157  1  0.88614950  0.87556450  0.51716700  1
  O  O158  1  0.63687750  0.87703150  0.01585400  1
  O  O159  1  0.71828450  0.22975550  0.92516000  1
  O  O160  1  0.25996150  0.60095650  0.45153300  1
  O  O161  1  0.17995000  0.81379900  0.42711400  1
  O  O162  1  0.43061850  0.56193350  0.42614100  1
  O  O163  1  0.33757650  0.22025350  0.67345400  1
  O  O164  1  0.27971600  0.87620200  0.61465100  1
  O  O165  1  0.41931400  0.16168400  0.01566100  1
  O  O166  1  0.29234700  0.90066500  0.76807200  1
  O  O167  1  0.11880550  0.09527350  0.36545700  1
  O  O168  1  0.12487000  0.40497600  0.86329200  1
  O  O169  1  0.41003700  0.65781700  0.67957300  1
  O  O170  1  0.41931400  0.83831600  0.51566100  1
  O  O171  1  0.49882450  0.83813150  0.11503500  1
  O  O172  1  0.04648400  0.84489100  0.26534700  1
  O  O173  1  0.27971600  0.12379800  0.11465100  1
  O  O174  1  0.44758150  0.02438550  0.20203800  1
  O  O175  1  0.41003700  0.34218300  0.17957300  1
  O  O176  1  0.15783000  0.09474200  0.17883700  1
  O  O177  1  0.46999850  0.02130450  0.42649500  1
  O  O178  1  0.08223800  0.71532000  0.95795300  1
  O  O179  1  0.17995000  0.18620100  0.92711400  1
  O  O180  1  0.13687750  0.62296850  0.51585400  1
  O  O181  1  0.29471750  0.59484950  0.26548400  1
  O  O182  1  0.33288550  0.96749150  0.95760000  1
  O  O183  1  0.08646800  0.52886500  0.17341800  1
  O  O184  1  0.15783000  0.90525800  0.67883700  1
  O  O185  1  0.48394600  0.43892600  0.70502800  1
  O  O186  1  0.02998250  0.87709250  0.11290200  1
  O  O187  1  0.33288550  0.03250850  0.45760000  1
  O  O188  1  0.23367950  0.31334850  0.20303200  1
  O  O189  1  0.19963550  0.77406050  0.20426900  1
  O  O190  1  0.24765400  0.40835700  0.61333300  1
  O  O191  1  0.29234700  0.09933500  0.26807200  1
  O  O192  1  0.19963550  0.22593950  0.70426900  1
  O  O193  1  0.04119000  0.65037200  0.76838400  1
  O  O194  1  0.16931900  0.90949400  0.01688500  1
  O  O195  1  0.04119000  0.34962800  0.26838400  1
  O  O196  1  0.00725300  0.84625800  0.45074100  1
  O  O197  1  0.44758150  0.97561450  0.70203800  1
  O  O198  1  0.08223800  0.28468000  0.45795300  1
  O  O199  1  0.37257150  0.15271750  0.86335000  1
  O  O200  1  0.46999850  0.97869550  0.92649500  1
  O  O201  1  0.11880550  0.90472650  0.86545700  1
  O  O202  1  0.04648400  0.15510900  0.76534700  1
  O  O203  1  0.48394600  0.56107400  0.20502800  1
  O  O204  1  0.37073900  0.34416300  0.36489300  1
  O  O205  1  0.49882450  0.16186850  0.61503500  1
  O  O206  1  0.29471750  0.40515050  0.76548400  1
  O  O207  1  0.24765400  0.59164300  0.11333300  1
  O  O208  1  0.12487000  0.59502400  0.36329200  1
  O  O209  1  0.33757650  0.77974650  0.17345400  1
  O  O210  1  0.37257150  0.84728250  0.36335000  1
  O  O211  1  0.43061850  0.43806650  0.92614100  1
  O  O212  1  0.21828450  0.27024450  0.42516000  1
  O  O213  1  0.00725300  0.15374200  0.95074100  1
  O  O214  1  0.25996150  0.39904350  0.95153300  1
  O  O215  1  0.02998250  0.12290750  0.61290200  1
  O  O216  1  0.08646800  0.47113500  0.67341800  1
  O  O217  1  0.23367950  0.68665150  0.70303200  1
  O  O218  1  0.16931900  0.09050600  0.51688500  1
  O  O219  1  0.37073900  0.65583700  0.86489300  1
  O  O220  1  0.38614950  0.62443550  0.01716700  1
  O  O221  1  0.38614950  0.37556450  0.51716700  1
  O  O222  1  0.13687750  0.37703150  0.01585400  1
  O  O223  1  0.21828450  0.72975550  0.92516000  1
