# generated using pymatgen
data_KSmPdO3
_symmetry_space_group_name_H-M   'P 1'
_cell_length_a   13.24439000
_cell_length_b   3.94889800
_cell_length_c   7.53500669
_cell_angle_alpha   90.00000000
_cell_angle_beta   104.70107848
_cell_angle_gamma   90.00000000
_symmetry_Int_Tables_number   1
_chemical_formula_structural   KSmPdO3
_chemical_formula_sum   'K4 Sm4 Pd4 O12'
_cell_volume   381.18524704
_cell_formula_units_Z   4
loop_
 _symmetry_equiv_pos_site_id
 _symmetry_equiv_pos_as_xyz
  1  'x, y, z'
loop_
 _atom_site_type_symbol
 _atom_site_label
 _atom_site_symmetry_multiplicity
 _atom_site_fract_x
 _atom_site_fract_y
 _atom_site_fract_z
 _atom_site_occupancy
  K  K0  1  0.64396800  0.00000000  0.56468400  1
  K  K1  1  0.85603200  0.50000000  0.43531600  1
  K  K2  1  0.14396800  0.50000000  0.56468400  1
  K  K3  1  0.35603200  0.00000000  0.43531600  1
  Sm  Sm4  1  0.64966200  0.00000000  0.07704700  1
  Sm  Sm5  1  0.85033800  0.50000000  0.92295300  1
  Sm  Sm6  1  0.14966200  0.50000000  0.07704700  1
  Sm  Sm7  1  0.35033800  0.00000000  0.92295300  1
  Pd  Pd8  1  0.99298400  0.00000000  0.22651500  1
  Pd  Pd9  1  0.50701600  0.50000000  0.77348500  1
  Pd  Pd10  1  0.49298400  0.50000000  0.22651500  1
  Pd  Pd11  1  0.00701600  0.00000000  0.77348500  1
  O  O12  1  0.67047700  0.50000000  0.86943800  1
  O  O13  1  0.65304200  0.50000000  0.27441600  1
  O  O14  1  0.82952300  0.00000000  0.13056200  1
  O  O15  1  0.50642700  0.00000000  0.81477400  1
  O  O16  1  0.99357300  0.50000000  0.18522600  1
  O  O17  1  0.84695800  0.00000000  0.72558400  1
  O  O18  1  0.17047700  0.00000000  0.86943800  1
  O  O19  1  0.15304200  0.00000000  0.27441600  1
  O  O20  1  0.32952300  0.50000000  0.13056200  1
  O  O21  1  0.00642700  0.50000000  0.81477400  1
  O  O22  1  0.49357300  0.00000000  0.18522600  1
  O  O23  1  0.34695800  0.50000000  0.72558400  1
