# generated using pymatgen
data_Na6P4Pb3S16
_symmetry_space_group_name_H-M   'P 1'
_cell_length_a   19.65000674
_cell_length_b   19.65000674
_cell_length_c   6.24351010
_cell_angle_alpha   90.00000000
_cell_angle_beta   90.00000000
_cell_angle_gamma   120.00000000
_symmetry_Int_Tables_number   1
_chemical_formula_structural   Na6P4Pb3S16
_chemical_formula_sum   'Na18 P12 Pb9 S48'
_cell_volume   2087.78059791
_cell_formula_units_Z   3
loop_
 _symmetry_equiv_pos_site_id
 _symmetry_equiv_pos_as_xyz
  1  'x, y, z'
loop_
 _atom_site_type_symbol
 _atom_site_label
 _atom_site_symmetry_multiplicity
 _atom_site_fract_x
 _atom_site_fract_y
 _atom_site_fract_z
 _atom_site_occupancy
  Na  Na0  1  0.54858600  0.90280100  0.30092000  1
  Na  Na1  1  0.09719900  0.45141400  0.30092000  1
  Na  Na2  1  0.88191933  0.31245167  0.96758667  1
  Na  Na3  1  0.02088167  0.23613433  0.63425333  1
  Na  Na4  1  0.76386567  0.97911833  0.63425333  1
  Na  Na5  1  0.68754833  0.11808067  0.96758667  1
  Na  Na6  1  0.21525267  0.23613433  0.63425333  1
  Na  Na7  1  0.76386567  0.78474733  0.63425333  1
  Na  Na8  1  0.54858600  0.64578500  0.30092000  1
  Na  Na9  1  0.68754833  0.56946767  0.96758667  1
  Na  Na10  1  0.43053233  0.31245167  0.96758667  1
  Na  Na11  1  0.35421500  0.45141400  0.30092000  1
  Na  Na12  1  0.88191933  0.56946767  0.96758667  1
  Na  Na13  1  0.43053233  0.11808067  0.96758667  1
  Na  Na14  1  0.21525267  0.97911833  0.63425333  1
  Na  Na15  1  0.35421500  0.90280100  0.30092000  1
  Na  Na16  1  0.09719900  0.64578500  0.30092000  1
  Na  Na17  1  0.02088167  0.78474733  0.63425333  1
  P  P18  1  0.82460700  0.17539300  0.41006600  1
  P  P19  1  0.68411933  0.84205967  0.07673267  1
  P  P20  1  0.15794033  0.31588067  0.07673267  1
  P  P21  1  0.00000000  0.00000000  0.41913500  1
  P  P22  1  0.49127367  0.50872633  0.74339933  1
  P  P23  1  0.35078600  0.17539300  0.41006600  1
  P  P24  1  0.82460700  0.64921400  0.41006600  1
  P  P25  1  0.66666667  0.33333333  0.75246833  1
  P  P26  1  0.15794033  0.84205967  0.07673267  1
  P  P27  1  0.01745267  0.50872633  0.74339933  1
  P  P28  1  0.49127367  0.98254733  0.74339933  1
  P  P29  1  0.33333333  0.66666667  0.08580167  1
  Pb  Pb30  1  0.91137167  0.08862833  0.10040833  1
  Pb  Pb31  1  0.24470500  0.48941000  0.76707500  1
  Pb  Pb32  1  0.51059000  0.75529500  0.76707500  1
  Pb  Pb33  1  0.57803833  0.42196167  0.43374167  1
  Pb  Pb34  1  0.91137167  0.82274333  0.10040833  1
  Pb  Pb35  1  0.17725667  0.08862833  0.10040833  1
  Pb  Pb36  1  0.24470500  0.75529500  0.76707500  1
  Pb  Pb37  1  0.57803833  0.15607667  0.43374167  1
  Pb  Pb38  1  0.84392333  0.42196167  0.43374167  1
  S  S39  1  0.93475700  0.23616500  0.26984000  1
  S  S40  1  0.27565933  0.55131867  0.19180167  1
  S  S41  1  0.09716833  0.36525867  0.93650667  1
  S  S42  1  0.00000000  0.00000000  0.08973600  1
  S  S43  1  0.94232600  0.05767400  0.52513500  1
  S  S44  1  0.66130333  0.83065167  0.40032767  1
  S  S45  1  0.76566867  0.23433133  0.33820233  1
  S  S46  1  0.83601500  0.16398500  0.73366100  1
  S  S47  1  0.16934833  0.33869667  0.40032767  1
  S  S48  1  0.76383500  0.06524300  0.26984000  1
  S  S49  1  0.44868133  0.72434067  0.19180167  1
  S  S50  1  0.60142367  0.03192533  0.60317333  1
  S  S51  1  0.63474133  0.90283167  0.93650667  1
  S  S52  1  0.96807467  0.39857633  0.60317333  1
  S  S53  1  0.80199600  0.90099800  0.00486900  1
  S  S54  1  0.09900200  0.19800400  0.00486900  1
  S  S55  1  0.60142367  0.56949833  0.60317333  1
  S  S56  1  0.94232600  0.88465200  0.52513500  1
  S  S57  1  0.76383500  0.69859200  0.26984000  1
  S  S58  1  0.66666667  0.33333333  0.42306933  1
  S  S59  1  0.60899267  0.39100733  0.85846833  1
  S  S60  1  0.32797000  0.16398500  0.73366100  1
  S  S61  1  0.43233533  0.56766467  0.67153567  1
  S  S62  1  0.50268167  0.49731833  0.06699433  1
  S  S63  1  0.83601500  0.67203000  0.73366100  1
  S  S64  1  0.43050167  0.39857633  0.60317333  1
  S  S65  1  0.11534800  0.05767400  0.52513500  1
  S  S66  1  0.26809033  0.36525867  0.93650667  1
  S  S67  1  0.30140800  0.23616500  0.26984000  1
  S  S68  1  0.63474133  0.73190967  0.93650667  1
  S  S69  1  0.46866267  0.23433133  0.33820233  1
  S  S70  1  0.76566867  0.53133733  0.33820233  1
  S  S71  1  0.26809033  0.90283167  0.93650667  1
  S  S72  1  0.60899267  0.21798533  0.85846833  1
  S  S73  1  0.43050167  0.03192533  0.60317333  1
  S  S74  1  0.33333333  0.66666667  0.75640267  1
  S  S75  1  0.27565933  0.72434067  0.19180167  1
  S  S76  1  0.99463667  0.49731833  0.06699433  1
  S  S77  1  0.09900200  0.90099800  0.00486900  1
  S  S78  1  0.16934833  0.83065167  0.40032767  1
  S  S79  1  0.50268167  0.00536333  0.06699433  1
  S  S80  1  0.09716833  0.73190967  0.93650667  1
  S  S81  1  0.78201467  0.39100733  0.85846833  1
  S  S82  1  0.93475700  0.69859200  0.26984000  1
  S  S83  1  0.96807467  0.56949833  0.60317333  1
  S  S84  1  0.30140800  0.06524300  0.26984000  1
  S  S85  1  0.13532933  0.56766467  0.67153567  1
  S  S86  1  0.43233533  0.86467067  0.67153567  1
