# generated using pymatgen
data_Cs3Mg2Cl7
_symmetry_space_group_name_H-M   'P 1'
_cell_length_a   5.14866000
_cell_length_b   5.14866000
_cell_length_c   27.23208800
_cell_angle_alpha   90.00000000
_cell_angle_beta   90.00000000
_cell_angle_gamma   90.00000000
_symmetry_Int_Tables_number   1
_chemical_formula_structural   Cs3Mg2Cl7
_chemical_formula_sum   'Cs6 Mg4 Cl14'
_cell_volume   721.88724560
_cell_formula_units_Z   2
loop_
 _symmetry_equiv_pos_site_id
 _symmetry_equiv_pos_as_xyz
  1  'x, y, z'
loop_
 _atom_site_type_symbol
 _atom_site_label
 _atom_site_symmetry_multiplicity
 _atom_site_fract_x
 _atom_site_fract_y
 _atom_site_fract_z
 _atom_site_occupancy
  Cs  Cs0  1  0.00000000  0.00000000  0.18454100  1
  Cs  Cs1  1  0.50000000  0.50000000  0.31545900  1
  Cs  Cs2  1  0.00000000  0.00000000  0.00000000  1
  Cs  Cs3  1  0.50000000  0.50000000  0.68454100  1
  Cs  Cs4  1  0.00000000  0.00000000  0.81545900  1
  Cs  Cs5  1  0.50000000  0.50000000  0.50000000  1
  Mg  Mg6  1  0.00000000  0.00000000  0.40398200  1
  Mg  Mg7  1  0.50000000  0.50000000  0.09601800  1
  Mg  Mg8  1  0.50000000  0.50000000  0.90398200  1
  Mg  Mg9  1  0.00000000  0.00000000  0.59601800  1
  Cl  Cl10  1  0.00000000  0.50000000  0.40545500  1
  Cl  Cl11  1  0.00000000  0.00000000  0.31224500  1
  Cl  Cl12  1  0.50000000  0.00000000  0.40545500  1
  Cl  Cl13  1  0.00000000  0.50000000  0.09454500  1
  Cl  Cl14  1  0.50000000  0.50000000  0.18775500  1
  Cl  Cl15  1  0.50000000  0.00000000  0.09454500  1
  Cl  Cl16  1  0.50000000  0.50000000  0.00000000  1
  Cl  Cl17  1  0.50000000  0.00000000  0.90545500  1
  Cl  Cl18  1  0.50000000  0.50000000  0.81224500  1
  Cl  Cl19  1  0.00000000  0.50000000  0.90545500  1
  Cl  Cl20  1  0.50000000  0.00000000  0.59454500  1
  Cl  Cl21  1  0.00000000  0.00000000  0.68775500  1
  Cl  Cl22  1  0.00000000  0.50000000  0.59454500  1
  Cl  Cl23  1  0.00000000  0.00000000  0.50000000  1
