# generated using pymatgen
data_Ag10Te4Br3
_symmetry_space_group_name_H-M   'P 1'
_cell_length_a   15.65386000
_cell_length_b   15.98080000
_cell_length_c   13.91523100
_cell_angle_alpha   90.00000000
_cell_angle_beta   90.00000000
_cell_angle_gamma   90.00000000
_symmetry_Int_Tables_number   1
_chemical_formula_structural   Ag10Te4Br3
_chemical_formula_sum   'Ag80 Te32 Br24'
_cell_volume   3481.05096717
_cell_formula_units_Z   8
loop_
 _symmetry_equiv_pos_site_id
 _symmetry_equiv_pos_as_xyz
  1  'x, y, z'
loop_
 _atom_site_type_symbol
 _atom_site_label
 _atom_site_symmetry_multiplicity
 _atom_site_fract_x
 _atom_site_fract_y
 _atom_site_fract_z
 _atom_site_occupancy
  Ag  Ag0  1  0.90800200  0.97389100  0.78356100  1
  Ag  Ag1  1  0.39975750  0.75241250  0.64142700  1
  Ag  Ag2  1  0.59504000  0.22998200  0.90187000  1
  Ag  Ag3  1  0.40496000  0.77001800  0.40187000  1
  Ag  Ag4  1  0.35768700  0.95581300  0.65972700  1
  Ag  Ag5  1  0.62198250  0.26411750  0.64025200  1
  Ag  Ag6  1  0.60024250  0.75241250  0.64142700  1
  Ag  Ag7  1  0.37614850  0.22840750  0.36811700  1
  Ag  Ag8  1  0.37801750  0.26411750  0.64025200  1
  Ag  Ag9  1  0.62385150  0.22840750  0.36811700  1
  Ag  Ag10  1  0.37912050  0.97850450  0.87508100  1
  Ag  Ag11  1  0.50000000  0.12583900  0.26202600  1
  Ag  Ag12  1  0.64231300  0.95581300  0.65972700  1
  Ag  Ag13  1  0.89324800  0.90485600  0.44712700  1
  Ag  Ag14  1  0.40496000  0.22998200  0.90187000  1
  Ag  Ag15  1  0.09468350  0.93109650  0.09190600  1
  Ag  Ag16  1  0.37912050  0.02149550  0.37508100  1
  Ag  Ag17  1  0.89324800  0.09514400  0.94712700  1
  Ag  Ag18  1  0.62198250  0.73588250  0.14025200  1
  Ag  Ag19  1  0.62087950  0.97850450  0.87508100  1
  Ag  Ag20  1  0.39975750  0.24758750  0.14142700  1
  Ag  Ag21  1  0.37614850  0.77159250  0.86811700  1
  Ag  Ag22  1  0.09468350  0.06890350  0.59190600  1
  Ag  Ag23  1  0.90531650  0.93109650  0.09190600  1
  Ag  Ag24  1  0.90800200  0.02610900  0.28356100  1
  Ag  Ag25  1  0.59504000  0.77001800  0.40187000  1
  Ag  Ag26  1  0.35768700  0.04418700  0.15972700  1
  Ag  Ag27  1  0.10675200  0.09514400  0.94712700  1
  Ag  Ag28  1  0.90531650  0.06890350  0.59190600  1
  Ag  Ag29  1  0.09199800  0.97389100  0.78356100  1
  Ag  Ag30  1  0.50000000  0.64604200  0.78011900  1
  Ag  Ag31  1  0.37801750  0.73588250  0.14025200  1
  Ag  Ag32  1  0.09199800  0.02610900  0.28356100  1
  Ag  Ag33  1  0.62385150  0.77159250  0.86811700  1
  Ag  Ag34  1  0.62087950  0.02149550  0.37508100  1
  Ag  Ag35  1  0.10675200  0.90485600  0.44712700  1
  Ag  Ag36  1  0.50000000  0.87416100  0.76202600  1
  Ag  Ag37  1  0.50000000  0.35395800  0.28011900  1
  Ag  Ag38  1  0.60024250  0.24758750  0.14142700  1
  Ag  Ag39  1  0.64231300  0.04418700  0.15972700  1
  Ag  Ag40  1  0.40800200  0.47389100  0.78356100  1
  Ag  Ag41  1  0.89975750  0.25241250  0.64142700  1
  Ag  Ag42  1  0.09504000  0.72998200  0.90187000  1
  Ag  Ag43  1  0.90496000  0.27001800  0.40187000  1
  Ag  Ag44  1  0.85768700  0.45581300  0.65972700  1
  Ag  Ag45  1  0.12198250  0.76411750  0.64025200  1
  Ag  Ag46  1  0.10024250  0.25241250  0.64142700  1
  Ag  Ag47  1  0.87614850  0.72840750  0.36811700  1
  Ag  Ag48  1  0.87801750  0.76411750  0.64025200  1
  Ag  Ag49  1  0.12385150  0.72840750  0.36811700  1
  Ag  Ag50  1  0.87912050  0.47850450  0.87508100  1
  Ag  Ag51  1  0.00000000  0.62583900  0.26202600  1
  Ag  Ag52  1  0.14231300  0.45581300  0.65972700  1
  Ag  Ag53  1  0.39324800  0.40485600  0.44712700  1
  Ag  Ag54  1  0.90496000  0.72998200  0.90187000  1
  Ag  Ag55  1  0.59468350  0.43109650  0.09190600  1
  Ag  Ag56  1  0.87912050  0.52149550  0.37508100  1
  Ag  Ag57  1  0.39324800  0.59514400  0.94712700  1
  Ag  Ag58  1  0.12198250  0.23588250  0.14025200  1
  Ag  Ag59  1  0.12087950  0.47850450  0.87508100  1
  Ag  Ag60  1  0.89975750  0.74758750  0.14142700  1
  Ag  Ag61  1  0.87614850  0.27159250  0.86811700  1
  Ag  Ag62  1  0.59468350  0.56890350  0.59190600  1
  Ag  Ag63  1  0.40531650  0.43109650  0.09190600  1
  Ag  Ag64  1  0.40800200  0.52610900  0.28356100  1
  Ag  Ag65  1  0.09504000  0.27001800  0.40187000  1
  Ag  Ag66  1  0.85768700  0.54418700  0.15972700  1
  Ag  Ag67  1  0.60675200  0.59514400  0.94712700  1
  Ag  Ag68  1  0.40531650  0.56890350  0.59190600  1
  Ag  Ag69  1  0.59199800  0.47389100  0.78356100  1
  Ag  Ag70  1  0.00000000  0.14604200  0.78011900  1
  Ag  Ag71  1  0.87801750  0.23588250  0.14025200  1
  Ag  Ag72  1  0.59199800  0.52610900  0.28356100  1
  Ag  Ag73  1  0.12385150  0.27159250  0.86811700  1
  Ag  Ag74  1  0.12087950  0.52149550  0.37508100  1
  Ag  Ag75  1  0.60675200  0.40485600  0.44712700  1
  Ag  Ag76  1  0.00000000  0.37416100  0.76202600  1
  Ag  Ag77  1  0.00000000  0.85395800  0.28011900  1
  Ag  Ag78  1  0.10024250  0.74758750  0.14142700  1
  Ag  Ag79  1  0.14231300  0.54418700  0.15972700  1
  Te  Te80  1  0.50000000  0.13062600  0.46197500  1
  Te  Te81  1  0.50000000  0.39106600  0.60780300  1
  Te  Te82  1  0.50000000  0.86937400  0.96197500  1
  Te  Te83  1  0.40817650  0.88367250  0.24826800  1
  Te  Te84  1  0.17899800  0.87040600  0.26016100  1
  Te  Te85  1  0.17899800  0.12959400  0.76016100  1
  Te  Te86  1  0.82100200  0.87040600  0.26016100  1
  Te  Te87  1  0.40817650  0.11632750  0.74826800  1
  Te  Te88  1  0.50000000  0.61905000  0.42729600  1
  Te  Te89  1  0.50000000  0.11911200  0.06122500  1
  Te  Te90  1  0.82100200  0.12959400  0.76016100  1
  Te  Te91  1  0.50000000  0.60893400  0.10780300  1
  Te  Te92  1  0.50000000  0.38095000  0.92729600  1
  Te  Te93  1  0.59182350  0.11632750  0.74826800  1
  Te  Te94  1  0.59182350  0.88367250  0.24826800  1
  Te  Te95  1  0.50000000  0.88088800  0.56122500  1
  Te  Te96  1  0.00000000  0.63062600  0.46197500  1
  Te  Te97  1  0.00000000  0.89106600  0.60780300  1
  Te  Te98  1  0.00000000  0.36937400  0.96197500  1
  Te  Te99  1  0.90817650  0.38367250  0.24826800  1
  Te  Te100  1  0.67899800  0.37040600  0.26016100  1
  Te  Te101  1  0.67899800  0.62959400  0.76016100  1
  Te  Te102  1  0.32100200  0.37040600  0.26016100  1
  Te  Te103  1  0.90817650  0.61632750  0.74826800  1
  Te  Te104  1  0.00000000  0.11905000  0.42729600  1
  Te  Te105  1  0.00000000  0.61911200  0.06122500  1
  Te  Te106  1  0.32100200  0.62959400  0.76016100  1
  Te  Te107  1  0.00000000  0.10893400  0.10780300  1
  Te  Te108  1  0.00000000  0.88095000  0.92729600  1
  Te  Te109  1  0.09182350  0.61632750  0.74826800  1
  Te  Te110  1  0.09182350  0.38367250  0.24826800  1
  Te  Te111  1  0.00000000  0.38088800  0.56122500  1
  Br  Br112  1  0.25536100  0.25022000  0.00879900  1
  Br  Br113  1  0.23284600  0.86994700  0.76165700  1
  Br  Br114  1  0.25200700  0.99947100  0.00938800  1
  Br  Br115  1  0.25536100  0.74978000  0.50879900  1
  Br  Br116  1  0.76715400  0.86994700  0.76165700  1
  Br  Br117  1  0.74799300  0.00052900  0.50938800  1
  Br  Br118  1  0.74799300  0.99947100  0.00938800  1
  Br  Br119  1  0.23284600  0.13005300  0.26165700  1
  Br  Br120  1  0.25200700  0.00052900  0.50938800  1
  Br  Br121  1  0.74463900  0.74978000  0.50879900  1
  Br  Br122  1  0.76715400  0.13005300  0.26165700  1
  Br  Br123  1  0.74463900  0.25022000  0.00879900  1
  Br  Br124  1  0.75536100  0.75022000  0.00879900  1
  Br  Br125  1  0.73284600  0.36994700  0.76165700  1
  Br  Br126  1  0.75200700  0.49947100  0.00938800  1
  Br  Br127  1  0.75536100  0.24978000  0.50879900  1
  Br  Br128  1  0.26715400  0.36994700  0.76165700  1
  Br  Br129  1  0.24799300  0.50052900  0.50938800  1
  Br  Br130  1  0.24799300  0.49947100  0.00938800  1
  Br  Br131  1  0.73284600  0.63005300  0.26165700  1
  Br  Br132  1  0.75200700  0.50052900  0.50938800  1
  Br  Br133  1  0.24463900  0.24978000  0.50879900  1
  Br  Br134  1  0.26715400  0.63005300  0.26165700  1
  Br  Br135  1  0.24463900  0.75022000  0.00879900  1
