# generated using pymatgen
data_CsCuO
_symmetry_space_group_name_H-M   'P 1'
_cell_length_a   6.09621200
_cell_length_b   10.34153600
_cell_length_c   5.04687000
_cell_angle_alpha   90.00000000
_cell_angle_beta   90.00000000
_cell_angle_gamma   90.00000000
_symmetry_Int_Tables_number   1
_chemical_formula_structural   CsCuO
_chemical_formula_sum   'Cs4 Cu4 O4'
_cell_volume   318.17586077
_cell_formula_units_Z   4
loop_
 _symmetry_equiv_pos_site_id
 _symmetry_equiv_pos_as_xyz
  1  'x, y, z'
loop_
 _atom_site_type_symbol
 _atom_site_label
 _atom_site_symmetry_multiplicity
 _atom_site_fract_x
 _atom_site_fract_y
 _atom_site_fract_z
 _atom_site_occupancy
  Cs  Cs0  1  0.50000000  0.67946000  0.75000000  1
  Cs  Cs1  1  0.50000000  0.32054000  0.25000000  1
  Cs  Cs2  1  0.00000000  0.17946000  0.75000000  1
  Cs  Cs3  1  0.00000000  0.82054000  0.25000000  1
  Cu  Cu4  1  0.50000000  0.00000000  0.00000000  1
  Cu  Cu5  1  0.50000000  0.00000000  0.50000000  1
  Cu  Cu6  1  0.00000000  0.50000000  0.00000000  1
  Cu  Cu7  1  0.00000000  0.50000000  0.50000000  1
  O  O8  1  0.50000000  0.12957600  0.75000000  1
  O  O9  1  0.50000000  0.87042400  0.25000000  1
  O  O10  1  0.00000000  0.62957600  0.75000000  1
  O  O11  1  0.00000000  0.37042400  0.25000000  1
