# generated using pymatgen
data_TeCl4
_symmetry_space_group_name_H-M   'P 1'
_cell_length_a   18.00091400
_cell_length_b   10.97352000
_cell_length_c   16.21800109
_cell_angle_alpha   90.00000000
_cell_angle_beta   116.91278997
_cell_angle_gamma   90.00000000
_symmetry_Int_Tables_number   1
_chemical_formula_structural   TeCl4
_chemical_formula_sum   'Te16 Cl64'
_cell_volume   2856.63603022
_cell_formula_units_Z   16
loop_
 _symmetry_equiv_pos_site_id
 _symmetry_equiv_pos_as_xyz
  1  'x, y, z'
loop_
 _atom_site_type_symbol
 _atom_site_label
 _atom_site_symmetry_multiplicity
 _atom_site_fract_x
 _atom_site_fract_y
 _atom_site_fract_z
 _atom_site_occupancy
  Te  Te0  1  0.13660100  0.02262000  0.31619300  1
  Te  Te1  1  0.00220350  0.73779150  0.38659100  1
  Te  Te2  1  0.99779650  0.73779150  0.11340900  1
  Te  Te3  1  0.50220350  0.76220850  0.88659100  1
  Te  Te4  1  0.13660100  0.97738000  0.81619300  1
  Te  Te5  1  0.49779650  0.76220850  0.61340900  1
  Te  Te6  1  0.36339900  0.52262000  0.18380700  1
  Te  Te7  1  0.36339900  0.47738000  0.68380700  1
  Te  Te8  1  0.63660100  0.52262000  0.31619300  1
  Te  Te9  1  0.50220350  0.23779150  0.38659100  1
  Te  Te10  1  0.49779650  0.23779150  0.11340900  1
  Te  Te11  1  0.00220350  0.26220850  0.88659100  1
  Te  Te12  1  0.63660100  0.47738000  0.81619300  1
  Te  Te13  1  0.99779650  0.26220850  0.61340900  1
  Te  Te14  1  0.86339900  0.02262000  0.18380700  1
  Te  Te15  1  0.86339900  0.97738000  0.68380700  1
  Cl  Cl16  1  0.49867300  0.50518800  0.12968400  1
  Cl  Cl17  1  0.38703000  0.75472500  0.46198600  1
  Cl  Cl18  1  0.37280300  0.26153500  0.69203700  1
  Cl  Cl19  1  0.26544500  0.50863300  0.24336100  1
  Cl  Cl20  1  0.38703000  0.24527500  0.96198600  1
  Cl  Cl21  1  0.50132700  0.50518800  0.37031600  1
  Cl  Cl22  1  0.00143800  0.52272600  0.37382000  1
  Cl  Cl23  1  0.99867300  0.99481200  0.62968400  1
  Cl  Cl24  1  0.23683600  0.98164700  0.97379800  1
  Cl  Cl25  1  0.12218550  0.75652050  0.31000500  1
  Cl  Cl26  1  0.50143800  0.97727400  0.87382000  1
  Cl  Cl27  1  0.23683600  0.01835300  0.47379800  1
  Cl  Cl28  1  0.87781450  0.75652050  0.18999500  1
  Cl  Cl29  1  0.00132700  0.99481200  0.87031600  1
  Cl  Cl30  1  0.62218550  0.74347950  0.81000500  1
  Cl  Cl31  1  0.37280300  0.73846500  0.19203700  1
  Cl  Cl32  1  0.37781450  0.74347950  0.68999500  1
  Cl  Cl33  1  0.89578400  0.74580700  0.43372900  1
  Cl  Cl34  1  0.39578400  0.75419300  0.93372900  1
  Cl  Cl35  1  0.26544500  0.49136700  0.74336100  1
  Cl  Cl36  1  0.26316400  0.48164700  0.52620200  1
  Cl  Cl37  1  0.10421600  0.74580700  0.06627100  1
  Cl  Cl38  1  0.11297000  0.25472500  0.03801400  1
  Cl  Cl39  1  0.12719700  0.76153500  0.80796300  1
  Cl  Cl40  1  0.12719700  0.23846500  0.30796300  1
  Cl  Cl41  1  0.11297000  0.74527500  0.53801400  1
  Cl  Cl42  1  0.49856200  0.97727400  0.62618000  1
  Cl  Cl43  1  0.23455500  0.00863300  0.25663900  1
  Cl  Cl44  1  0.99856200  0.52272600  0.12618000  1
  Cl  Cl45  1  0.23455500  0.99136700  0.75663900  1
  Cl  Cl46  1  0.26316400  0.51835300  0.02620200  1
  Cl  Cl47  1  0.60421600  0.75419300  0.56627100  1
  Cl  Cl48  1  0.99867300  0.00518800  0.12968400  1
  Cl  Cl49  1  0.88703000  0.25472500  0.46198600  1
  Cl  Cl50  1  0.87280300  0.76153500  0.69203700  1
  Cl  Cl51  1  0.76544500  0.00863300  0.24336100  1
  Cl  Cl52  1  0.88703000  0.74527500  0.96198600  1
  Cl  Cl53  1  0.00132700  0.00518800  0.37031600  1
  Cl  Cl54  1  0.50143800  0.02272600  0.37382000  1
  Cl  Cl55  1  0.49867300  0.49481200  0.62968400  1
  Cl  Cl56  1  0.73683600  0.48164700  0.97379800  1
  Cl  Cl57  1  0.62218550  0.25652050  0.31000500  1
  Cl  Cl58  1  0.00143800  0.47727400  0.87382000  1
  Cl  Cl59  1  0.73683600  0.51835300  0.47379800  1
  Cl  Cl60  1  0.37781450  0.25652050  0.18999500  1
  Cl  Cl61  1  0.50132700  0.49481200  0.87031600  1
  Cl  Cl62  1  0.12218550  0.24347950  0.81000500  1
  Cl  Cl63  1  0.87280300  0.23846500  0.19203700  1
  Cl  Cl64  1  0.87781450  0.24347950  0.68999500  1
  Cl  Cl65  1  0.39578400  0.24580700  0.43372900  1
  Cl  Cl66  1  0.89578400  0.25419300  0.93372900  1
  Cl  Cl67  1  0.76544500  0.99136700  0.74336100  1
  Cl  Cl68  1  0.76316400  0.98164700  0.52620200  1
  Cl  Cl69  1  0.60421600  0.24580700  0.06627100  1
  Cl  Cl70  1  0.61297000  0.75472500  0.03801400  1
  Cl  Cl71  1  0.62719700  0.26153500  0.80796300  1
  Cl  Cl72  1  0.62719700  0.73846500  0.30796300  1
  Cl  Cl73  1  0.61297000  0.24527500  0.53801400  1
  Cl  Cl74  1  0.99856200  0.47727400  0.62618000  1
  Cl  Cl75  1  0.73455500  0.50863300  0.25663900  1
  Cl  Cl76  1  0.49856200  0.02272600  0.12618000  1
  Cl  Cl77  1  0.73455500  0.49136700  0.75663900  1
  Cl  Cl78  1  0.76316400  0.01835300  0.02620200  1
  Cl  Cl79  1  0.10421600  0.25419300  0.56627100  1
