# generated using pymatgen
data_In5Br7
_symmetry_space_group_name_H-M   'P 1'
_cell_length_a   19.04269400
_cell_length_b   19.03927600
_cell_length_c   19.86303560
_cell_angle_alpha   90.00000000
_cell_angle_beta   104.42413861
_cell_angle_gamma   90.00000000
_symmetry_Int_Tables_number   1
_chemical_formula_structural   In5Br7
_chemical_formula_sum   'In80 Br112'
_cell_volume   6974.52017118
_cell_formula_units_Z   16
loop_
 _symmetry_equiv_pos_site_id
 _symmetry_equiv_pos_as_xyz
  1  'x, y, z'
loop_
 _atom_site_type_symbol
 _atom_site_label
 _atom_site_symmetry_multiplicity
 _atom_site_fract_x
 _atom_site_fract_y
 _atom_site_fract_z
 _atom_site_occupancy
  In  In0  1  0.36737650  0.06308050  0.24763800  1
  In  In1  1  0.74515300  0.24123300  0.13673900  1
  In  In2  1  0.50000000  0.57241800  0.75000000  1
  In  In3  1  0.10574300  0.92022900  0.58675300  1
  In  In4  1  0.25484700  0.75876700  0.86326100  1
  In  In5  1  0.50000000  0.69252100  0.25000000  1
  In  In6  1  0.47869700  0.21694800  0.09818300  1
  In  In7  1  0.55720750  0.08295450  0.91463900  1
  In  In8  1  0.89425700  0.07977100  0.41324700  1
  In  In9  1  0.63262350  0.06308050  0.25236200  1
  In  In10  1  0.89425700  0.92022900  0.91324700  1
  In  In11  1  0.80905050  0.04707450  0.09948200  1
  In  In12  1  0.47869700  0.78305200  0.59818300  1
  In  In13  1  0.29159800  0.71037800  0.63423100  1
  In  In14  1  0.52130300  0.78305200  0.90181700  1
  In  In15  1  0.36737650  0.93691950  0.74763800  1
  In  In16  1  0.19094950  0.04707450  0.40051800  1
  In  In17  1  0.34611800  0.83737600  0.36286800  1
  In  In18  1  0.29159800  0.28962200  0.13423100  1
  In  In19  1  0.80326750  0.12043650  0.86508700  1
  In  In20  1  0.50000000  0.30747900  0.75000000  1
  In  In21  1  0.19673250  0.87956350  0.13491300  1
  In  In22  1  0.65388200  0.83737600  0.13713200  1
  In  In23  1  0.70840200  0.71037800  0.86576900  1
  In  In24  1  0.50000000  0.42758200  0.25000000  1
  In  In25  1  0.70840200  0.28962200  0.36576900  1
  In  In26  1  0.44279250  0.91704550  0.08536100  1
  In  In27  1  0.80905050  0.95292550  0.59948200  1
  In  In28  1  0.80326750  0.87956350  0.36508700  1
  In  In29  1  0.52130300  0.21694800  0.40181700  1
  In  In30  1  0.34611800  0.16262400  0.86286800  1
  In  In31  1  0.74515300  0.75876700  0.63673900  1
  In  In32  1  0.44279250  0.08295450  0.58536100  1
  In  In33  1  0.10574300  0.07977100  0.08675300  1
  In  In34  1  0.25484700  0.24123300  0.36326100  1
  In  In35  1  0.19094950  0.95292550  0.90051800  1
  In  In36  1  0.63262350  0.93691950  0.75236200  1
  In  In37  1  0.55720750  0.91704550  0.41463900  1
  In  In38  1  0.19673250  0.12043650  0.63491300  1
  In  In39  1  0.65388200  0.16262400  0.63713200  1
  In  In40  1  0.86737650  0.56308050  0.24763800  1
  In  In41  1  0.24515300  0.74123300  0.13673900  1
  In  In42  1  0.00000000  0.07241800  0.75000000  1
  In  In43  1  0.60574300  0.42022900  0.58675300  1
  In  In44  1  0.75484700  0.25876700  0.86326100  1
  In  In45  1  0.00000000  0.19252100  0.25000000  1
  In  In46  1  0.97869700  0.71694800  0.09818300  1
  In  In47  1  0.05720750  0.58295450  0.91463900  1
  In  In48  1  0.39425700  0.57977100  0.41324700  1
  In  In49  1  0.13262350  0.56308050  0.25236200  1
  In  In50  1  0.39425700  0.42022900  0.91324700  1
  In  In51  1  0.30905050  0.54707450  0.09948200  1
  In  In52  1  0.97869700  0.28305200  0.59818300  1
  In  In53  1  0.79159800  0.21037800  0.63423100  1
  In  In54  1  0.02130300  0.28305200  0.90181700  1
  In  In55  1  0.86737650  0.43691950  0.74763800  1
  In  In56  1  0.69094950  0.54707450  0.40051800  1
  In  In57  1  0.84611800  0.33737600  0.36286800  1
  In  In58  1  0.79159800  0.78962200  0.13423100  1
  In  In59  1  0.30326750  0.62043650  0.86508700  1
  In  In60  1  0.00000000  0.80747900  0.75000000  1
  In  In61  1  0.69673250  0.37956350  0.13491300  1
  In  In62  1  0.15388200  0.33737600  0.13713200  1
  In  In63  1  0.20840200  0.21037800  0.86576900  1
  In  In64  1  0.00000000  0.92758200  0.25000000  1
  In  In65  1  0.20840200  0.78962200  0.36576900  1
  In  In66  1  0.94279250  0.41704550  0.08536100  1
  In  In67  1  0.30905050  0.45292550  0.59948200  1
  In  In68  1  0.30326750  0.37956350  0.36508700  1
  In  In69  1  0.02130300  0.71694800  0.40181700  1
  In  In70  1  0.84611800  0.66262400  0.86286800  1
  In  In71  1  0.24515300  0.25876700  0.63673900  1
  In  In72  1  0.94279250  0.58295450  0.58536100  1
  In  In73  1  0.60574300  0.57977100  0.08675300  1
  In  In74  1  0.75484700  0.74123300  0.36326100  1
  In  In75  1  0.69094950  0.45292550  0.90051800  1
  In  In76  1  0.13262350  0.43691950  0.75236200  1
  In  In77  1  0.05720750  0.41704550  0.41463900  1
  In  In78  1  0.69673250  0.62043650  0.63491300  1
  In  In79  1  0.15388200  0.66262400  0.63713200  1
  Br  Br80  1  0.45261750  0.75223550  0.42363500  1
  Br  Br81  1  0.45261750  0.24776450  0.92363500  1
  Br  Br82  1  0.26701600  0.96981800  0.07428400  1
  Br  Br83  1  0.39111950  0.87316950  0.25288200  1
  Br  Br84  1  0.65848450  0.71331750  0.43199100  1
  Br  Br85  1  0.39031450  0.25427350  0.24872700  1
  Br  Br86  1  0.81014400  0.95440600  0.25565900  1
  Br  Br87  1  0.64424800  0.14710600  0.08717500  1
  Br  Br88  1  0.81014400  0.04559400  0.75565900  1
  Br  Br89  1  0.43507400  0.40355900  0.43896000  1
  Br  Br90  1  0.81035050  0.82629350  0.75203600  1
  Br  Br91  1  0.34151550  0.28668250  0.56800900  1
  Br  Br92  1  0.26701600  0.03018200  0.57428400  1
  Br  Br93  1  0.12671550  0.87861250  0.41392900  1
  Br  Br94  1  0.30314400  0.82453900  0.56623300  1
  Br  Br95  1  0.56492600  0.40355900  0.06104000  1
  Br  Br96  1  0.12671550  0.12138750  0.91392900  1
  Br  Br97  1  0.87328450  0.87861250  0.08607100  1
  Br  Br98  1  0.69685600  0.82453900  0.93376700  1
  Br  Br99  1  0.65848450  0.28668250  0.93199100  1
  Br  Br100  1  0.69685600  0.17546100  0.43376700  1
  Br  Br101  1  0.43507400  0.59644100  0.93896000  1
  Br  Br102  1  0.73298400  0.03018200  0.92571600  1
  Br  Br103  1  0.61140500  0.04964400  0.56303800  1
  Br  Br104  1  0.18985600  0.04559400  0.74434100  1
  Br  Br105  1  0.81035050  0.17370650  0.25203600  1
  Br  Br106  1  0.38859500  0.04964400  0.93696200  1
  Br  Br107  1  0.87328450  0.12138750  0.58607100  1
  Br  Br108  1  0.47717750  0.06134650  0.15093800  1
  Br  Br109  1  0.52175150  0.56167950  0.34897100  1
  Br  Br110  1  0.35575200  0.14710600  0.41282500  1
  Br  Br111  1  0.39031450  0.74572650  0.74872700  1
  Br  Br112  1  0.52282250  0.93865350  0.84906200  1
  Br  Br113  1  0.54738250  0.75223550  0.07636500  1
  Br  Br114  1  0.18964950  0.82629350  0.74796400  1
  Br  Br115  1  0.30314400  0.17546100  0.06623300  1
  Br  Br116  1  0.52282250  0.06134650  0.34906200  1
  Br  Br117  1  0.60968550  0.74572650  0.75127300  1
  Br  Br118  1  0.47824850  0.43832050  0.65102900  1
  Br  Br119  1  0.52175150  0.43832050  0.84897100  1
  Br  Br120  1  0.34151550  0.71331750  0.06800900  1
  Br  Br121  1  0.35575200  0.85289400  0.91282500  1
  Br  Br122  1  0.18985600  0.95440600  0.24434100  1
  Br  Br123  1  0.60968550  0.25427350  0.25127300  1
  Br  Br124  1  0.38859500  0.95035600  0.43696200  1
  Br  Br125  1  0.54738250  0.24776450  0.57636500  1
  Br  Br126  1  0.64424800  0.85289400  0.58717500  1
  Br  Br127  1  0.73298400  0.96981800  0.42571600  1
  Br  Br128  1  0.18964950  0.17370650  0.24796400  1
  Br  Br129  1  0.56492600  0.59644100  0.56104000  1
  Br  Br130  1  0.60888050  0.12683050  0.74711800  1
  Br  Br131  1  0.61140500  0.95035600  0.06303800  1
  Br  Br132  1  0.47824850  0.56167950  0.15102900  1
  Br  Br133  1  0.47717750  0.93865350  0.65093800  1
  Br  Br134  1  0.60888050  0.87316950  0.24711800  1
  Br  Br135  1  0.39111950  0.12683050  0.75288200  1
  Br  Br136  1  0.95261750  0.25223550  0.42363500  1
  Br  Br137  1  0.95261750  0.74776450  0.92363500  1
  Br  Br138  1  0.76701600  0.46981800  0.07428400  1
  Br  Br139  1  0.89111950  0.37316950  0.25288200  1
  Br  Br140  1  0.15848450  0.21331750  0.43199100  1
  Br  Br141  1  0.89031450  0.75427350  0.24872700  1
  Br  Br142  1  0.31014400  0.45440600  0.25565900  1
  Br  Br143  1  0.14424800  0.64710600  0.08717500  1
  Br  Br144  1  0.31014400  0.54559400  0.75565900  1
  Br  Br145  1  0.93507400  0.90355900  0.43896000  1
  Br  Br146  1  0.31035050  0.32629350  0.75203600  1
  Br  Br147  1  0.84151550  0.78668250  0.56800900  1
  Br  Br148  1  0.76701600  0.53018200  0.57428400  1
  Br  Br149  1  0.62671550  0.37861250  0.41392900  1
  Br  Br150  1  0.80314400  0.32453900  0.56623300  1
  Br  Br151  1  0.06492600  0.90355900  0.06104000  1
  Br  Br152  1  0.62671550  0.62138750  0.91392900  1
  Br  Br153  1  0.37328450  0.37861250  0.08607100  1
  Br  Br154  1  0.19685600  0.32453900  0.93376700  1
  Br  Br155  1  0.15848450  0.78668250  0.93199100  1
  Br  Br156  1  0.19685600  0.67546100  0.43376700  1
  Br  Br157  1  0.93507400  0.09644100  0.93896000  1
  Br  Br158  1  0.23298400  0.53018200  0.92571600  1
  Br  Br159  1  0.11140500  0.54964400  0.56303800  1
  Br  Br160  1  0.68985600  0.54559400  0.74434100  1
  Br  Br161  1  0.31035050  0.67370650  0.25203600  1
  Br  Br162  1  0.88859500  0.54964400  0.93696200  1
  Br  Br163  1  0.37328450  0.62138750  0.58607100  1
  Br  Br164  1  0.97717750  0.56134650  0.15093800  1
  Br  Br165  1  0.02175150  0.06167950  0.34897100  1
  Br  Br166  1  0.85575200  0.64710600  0.41282500  1
  Br  Br167  1  0.89031450  0.24572650  0.74872700  1
  Br  Br168  1  0.02282250  0.43865350  0.84906200  1
  Br  Br169  1  0.04738250  0.25223550  0.07636500  1
  Br  Br170  1  0.68964950  0.32629350  0.74796400  1
  Br  Br171  1  0.80314400  0.67546100  0.06623300  1
  Br  Br172  1  0.02282250  0.56134650  0.34906200  1
  Br  Br173  1  0.10968550  0.24572650  0.75127300  1
  Br  Br174  1  0.97824850  0.93832050  0.65102900  1
  Br  Br175  1  0.02175150  0.93832050  0.84897100  1
  Br  Br176  1  0.84151550  0.21331750  0.06800900  1
  Br  Br177  1  0.85575200  0.35289400  0.91282500  1
  Br  Br178  1  0.68985600  0.45440600  0.24434100  1
  Br  Br179  1  0.10968550  0.75427350  0.25127300  1
  Br  Br180  1  0.88859500  0.45035600  0.43696200  1
  Br  Br181  1  0.04738250  0.74776450  0.57636500  1
  Br  Br182  1  0.14424800  0.35289400  0.58717500  1
  Br  Br183  1  0.23298400  0.46981800  0.42571600  1
  Br  Br184  1  0.68964950  0.67370650  0.24796400  1
  Br  Br185  1  0.06492600  0.09644100  0.56104000  1
  Br  Br186  1  0.10888050  0.62683050  0.74711800  1
  Br  Br187  1  0.11140500  0.45035600  0.06303800  1
  Br  Br188  1  0.97824850  0.06167950  0.15102900  1
  Br  Br189  1  0.97717750  0.43865350  0.65093800  1
  Br  Br190  1  0.10888050  0.37316950  0.24711800  1
  Br  Br191  1  0.89111950  0.62683050  0.75288200  1
