# generated using pymatgen
data_La2Si(IO2)2
_symmetry_space_group_name_H-M   'P 1'
_cell_length_a   8.58255400
_cell_length_b   8.59712865
_cell_length_c   12.28480285
_cell_angle_alpha   107.62483290
_cell_angle_beta   99.33594328
_cell_angle_gamma   90.09019106
_symmetry_Int_Tables_number   1
_chemical_formula_structural   La2Si(IO2)2
_chemical_formula_sum   'La8 Si4 I8 O16'
_cell_volume   851.20721471
_cell_formula_units_Z   4
loop_
 _symmetry_equiv_pos_site_id
 _symmetry_equiv_pos_as_xyz
  1  'x, y, z'
loop_
 _atom_site_type_symbol
 _atom_site_label
 _atom_site_symmetry_multiplicity
 _atom_site_fract_x
 _atom_site_fract_y
 _atom_site_fract_z
 _atom_site_occupancy
  La  La0  1  0.22269200  0.21604800  0.18664800  1
  La  La1  1  0.36342400  0.71575100  0.18680600  1
  La  La2  1  0.15938100  0.43305800  0.87508400  1
  La  La3  1  0.28265400  0.93434100  0.87691400  1
  La  La4  1  0.71734600  0.06565900  0.12308600  1
  La  La5  1  0.84061900  0.56694200  0.12491600  1
  La  La6  1  0.63657600  0.28424900  0.81319400  1
  La  La7  1  0.77730800  0.78395200  0.81335200  1
  Si  Si8  1  0.93911900  0.19971200  0.97456700  1
  Si  Si9  1  0.45143300  0.30130900  0.02586800  1
  Si  Si10  1  0.54856700  0.69869100  0.97413200  1
  Si  Si11  1  0.06088100  0.80028800  0.02543300  1
  I  I12  1  0.00226800  0.05616500  0.33491300  1
  I  I13  1  0.34504700  0.43758700  0.66198200  1
  I  I14  1  0.51370500  0.09036000  0.34996500  1
  I  I15  1  0.65495300  0.56241300  0.33801800  1
  I  I16  1  0.85033400  0.41102000  0.64944500  1
  I  I17  1  0.99773200  0.94383500  0.66508700  1
  I  I18  1  0.48629500  0.90964000  0.65003500  1
  I  I19  1  0.14966600  0.58898000  0.35055500  1
  O  O20  1  0.21328800  0.92608800  0.09357700  1
  O  O21  1  0.38360800  0.24595200  0.88441900  1
  O  O22  1  0.06290800  0.74443400  0.88393800  1
  O  O23  1  0.93709200  0.25556600  0.11606200  1
  O  O24  1  0.66844800  0.57345000  0.90505400  1
  O  O25  1  0.88203600  0.85762000  0.03659900  1
  O  O26  1  0.11796400  0.14238000  0.96340100  1
  O  O27  1  0.91076300  0.36108600  0.92962600  1
  O  O28  1  0.55675600  0.86100100  0.93010000  1
  O  O29  1  0.78671200  0.07391200  0.90642300  1
  O  O30  1  0.61639200  0.75404800  0.11558100  1
  O  O31  1  0.36430500  0.64109000  0.96217400  1
  O  O32  1  0.33155200  0.42655000  0.09494600  1
  O  O33  1  0.63569500  0.35891000  0.03782600  1
  O  O34  1  0.08923700  0.63891400  0.07037400  1
  O  O35  1  0.44324400  0.13899900  0.06990000  1
