# generated using pymatgen
data_CsTmZnSe3
_symmetry_space_group_name_H-M   'P 1'
_cell_length_a   4.13927000
_cell_length_b   16.27434800
_cell_length_c   10.91196200
_cell_angle_alpha   90.00000000
_cell_angle_beta   90.00000000
_cell_angle_gamma   90.00000000
_symmetry_Int_Tables_number   1
_chemical_formula_structural   CsTmZnSe3
_chemical_formula_sum   'Cs4 Tm4 Zn4 Se12'
_cell_volume   735.07254008
_cell_formula_units_Z   4
loop_
 _symmetry_equiv_pos_site_id
 _symmetry_equiv_pos_as_xyz
  1  'x, y, z'
loop_
 _atom_site_type_symbol
 _atom_site_label
 _atom_site_symmetry_multiplicity
 _atom_site_fract_x
 _atom_site_fract_y
 _atom_site_fract_z
 _atom_site_occupancy
  Cs  Cs0  1  0.50000000  0.24230600  0.25000000  1
  Cs  Cs1  1  0.00000000  0.25769400  0.75000000  1
  Cs  Cs2  1  0.00000000  0.74230600  0.25000000  1
  Cs  Cs3  1  0.50000000  0.75769400  0.75000000  1
  Tm  Tm4  1  0.00000000  0.00000000  0.50000000  1
  Tm  Tm5  1  0.00000000  0.00000000  0.00000000  1
  Tm  Tm6  1  0.50000000  0.50000000  0.50000000  1
  Tm  Tm7  1  0.50000000  0.50000000  0.00000000  1
  Zn  Zn8  1  0.00000000  0.46041500  0.25000000  1
  Zn  Zn9  1  0.50000000  0.03958500  0.75000000  1
  Zn  Zn10  1  0.50000000  0.96041500  0.25000000  1
  Zn  Zn11  1  0.00000000  0.53958500  0.75000000  1
  Se  Se12  1  0.00000000  0.38478800  0.44399300  1
  Se  Se13  1  0.50000000  0.11521200  0.55600700  1
  Se  Se14  1  0.50000000  0.11521200  0.94399300  1
  Se  Se15  1  0.00000000  0.38478800  0.05600700  1
  Se  Se16  1  0.00000000  0.05398800  0.25000000  1
  Se  Se17  1  0.50000000  0.44601200  0.75000000  1
  Se  Se18  1  0.50000000  0.88478800  0.44399300  1
  Se  Se19  1  0.00000000  0.61521200  0.55600700  1
  Se  Se20  1  0.00000000  0.61521200  0.94399300  1
  Se  Se21  1  0.50000000  0.88478800  0.05600700  1
  Se  Se22  1  0.50000000  0.55398800  0.25000000  1
  Se  Se23  1  0.00000000  0.94601200  0.75000000  1
