# generated using pymatgen
data_La10S14O
_symmetry_space_group_name_H-M   'P 1'
_cell_length_a   15.39520200
_cell_length_b   15.39520200
_cell_length_c   20.43319800
_cell_angle_alpha   90.00000000
_cell_angle_beta   90.00000000
_cell_angle_gamma   90.00000000
_symmetry_Int_Tables_number   1
_chemical_formula_structural   La10S14O
_chemical_formula_sum   'La80 S112 O8'
_cell_volume   4842.91812276
_cell_formula_units_Z   8
loop_
 _symmetry_equiv_pos_site_id
 _symmetry_equiv_pos_as_xyz
  1  'x, y, z'
loop_
 _atom_site_type_symbol
 _atom_site_label
 _atom_site_symmetry_multiplicity
 _atom_site_fract_x
 _atom_site_fract_y
 _atom_site_fract_z
 _atom_site_occupancy
  La  La0  1  0.12806200  0.22235600  0.17165600  1
  La  La1  1  0.13462350  0.13462350  0.75000000  1
  La  La2  1  0.62806200  0.27764400  0.17165600  1
  La  La3  1  0.86764300  0.50623000  0.18287100  1
  La  La4  1  0.27764400  0.62806200  0.32834400  1
  La  La5  1  0.49377000  0.36764300  0.43287100  1
  La  La6  1  0.99377000  0.13235700  0.43287100  1
  La  La7  1  0.63462350  0.13462350  0.00000000  1
  La  La8  1  0.36537650  0.13462350  0.50000000  1
  La  La9  1  0.87193800  0.22235600  0.67165600  1
  La  La10  1  0.12806200  0.72235600  0.07834400  1
  La  La11  1  0.13462350  0.86537650  0.25000000  1
  La  La12  1  0.13235700  0.99377000  0.06712900  1
  La  La13  1  0.13462350  0.36537650  0.00000000  1
  La  La14  1  0.27764400  0.12806200  0.92165600  1
  La  La15  1  0.50623000  0.36764300  0.93287100  1
  La  La16  1  0.50623000  0.63235700  0.43287100  1
  La  La17  1  0.13235700  0.00623000  0.56712900  1
  La  La18  1  0.36537650  0.36537650  0.25000000  1
  La  La19  1  0.22235600  0.12806200  0.32834400  1
  La  La20  1  0.49377000  0.13235700  0.31712900  1
  La  La21  1  0.12806200  0.27764400  0.57834400  1
  La  La22  1  0.27764400  0.37193800  0.82834400  1
  La  La23  1  0.37193800  0.77764400  0.57834400  1
  La  La24  1  0.13235700  0.49377000  0.18287100  1
  La  La25  1  0.86537650  0.13462350  0.25000000  1
  La  La26  1  0.37193800  0.22235600  0.07834400  1
  La  La27  1  0.27764400  0.87193800  0.42165600  1
  La  La28  1  0.99377000  0.36764300  0.31712900  1
  La  La29  1  0.36764300  0.99377000  0.18287100  1
  La  La30  1  0.63235700  0.00623000  0.18287100  1
  La  La31  1  0.00623000  0.63235700  0.31712900  1
  La  La32  1  0.86537650  0.36537650  0.50000000  1
  La  La33  1  0.87193800  0.77764400  0.17165600  1
  La  La34  1  0.22235600  0.37193800  0.42165600  1
  La  La35  1  0.50623000  0.86764300  0.31712900  1
  La  La36  1  0.36764300  0.49377000  0.06712900  1
  La  La37  1  0.72235600  0.37193800  0.32834400  1
  La  La38  1  0.22235600  0.62806200  0.92165600  1
  La  La39  1  0.86764300  0.00623000  0.06712900  1
  La  La40  1  0.62806200  0.72235600  0.67165600  1
  La  La41  1  0.63462350  0.63462350  0.25000000  1
  La  La42  1  0.12806200  0.77764400  0.67165600  1
  La  La43  1  0.36764300  0.00623000  0.68287100  1
  La  La44  1  0.77764400  0.12806200  0.82834400  1
  La  La45  1  0.99377000  0.86764300  0.93287100  1
  La  La46  1  0.49377000  0.63235700  0.93287100  1
  La  La47  1  0.13462350  0.63462350  0.50000000  1
  La  La48  1  0.86537650  0.63462350  0.00000000  1
  La  La49  1  0.37193800  0.72235600  0.17165600  1
  La  La50  1  0.62806200  0.22235600  0.57834400  1
  La  La51  1  0.63462350  0.36537650  0.75000000  1
  La  La52  1  0.63235700  0.49377000  0.56712900  1
  La  La53  1  0.63462350  0.86537650  0.50000000  1
  La  La54  1  0.77764400  0.62806200  0.42165600  1
  La  La55  1  0.00623000  0.86764300  0.43287100  1
  La  La56  1  0.00623000  0.13235700  0.93287100  1
  La  La57  1  0.63235700  0.50623000  0.06712900  1
  La  La58  1  0.86537650  0.86537650  0.75000000  1
  La  La59  1  0.72235600  0.62806200  0.82834400  1
  La  La60  1  0.99377000  0.63235700  0.81712900  1
  La  La61  1  0.62806200  0.77764400  0.07834400  1
  La  La62  1  0.77764400  0.87193800  0.32834400  1
  La  La63  1  0.87193800  0.27764400  0.07834400  1
  La  La64  1  0.63235700  0.99377000  0.68287100  1
  La  La65  1  0.36537650  0.63462350  0.75000000  1
  La  La66  1  0.87193800  0.72235600  0.57834400  1
  La  La67  1  0.77764400  0.37193800  0.92165600  1
  La  La68  1  0.49377000  0.86764300  0.81712900  1
  La  La69  1  0.86764300  0.49377000  0.68287100  1
  La  La70  1  0.13235700  0.50623000  0.68287100  1
  La  La71  1  0.50623000  0.13235700  0.81712900  1
  La  La72  1  0.36537650  0.86537650  0.00000000  1
  La  La73  1  0.37193800  0.27764400  0.67165600  1
  La  La74  1  0.72235600  0.87193800  0.92165600  1
  La  La75  1  0.00623000  0.36764300  0.81712900  1
  La  La76  1  0.86764300  0.99377000  0.56712900  1
  La  La77  1  0.22235600  0.87193800  0.82834400  1
  La  La78  1  0.72235600  0.12806200  0.42165600  1
  La  La79  1  0.36764300  0.50623000  0.56712900  1
  S  S80  1  0.25000000  0.14732800  0.62500000  1
  S  S81  1  0.35267200  0.25000000  0.37500000  1
  S  S82  1  0.67770150  0.15713750  0.28177250  1
  S  S83  1  0.34286250  0.17770150  0.21822750  1
  S  S84  1  0.13294550  0.52467250  0.37769750  1
  S  S85  1  0.53823450  0.32099550  0.29674450  1
  S  S86  1  0.32229850  0.84286250  0.28177250  1
  S  S87  1  0.97532750  0.36705450  0.62230250  1
  S  S88  1  0.32229850  0.34286250  0.96822750  1
  S  S89  1  0.02467250  0.36705450  0.12230250  1
  S  S90  1  0.97532750  0.13294550  0.12769750  1
  S  S91  1  0.36705450  0.02467250  0.37769750  1
  S  S92  1  0.17900450  0.03823450  0.20325550  1
  S  S93  1  0.96176550  0.17900450  0.79674450  1
  S  S94  1  0.32099550  0.03823450  0.04674450  1
  S  S95  1  0.65713750  0.82229850  0.21822750  1
  S  S96  1  0.25000000  0.35267200  0.12500000  1
  S  S97  1  0.02467250  0.86705450  0.12769750  1
  S  S98  1  0.64732800  0.25000000  0.87500000  1
  S  S99  1  0.13294550  0.97532750  0.37230250  1
  S  S100  1  0.32099550  0.53823450  0.20325550  1
  S  S101  1  0.32099550  0.46176550  0.70325550  1
  S  S102  1  0.15713750  0.17770150  0.03177250  1
  S  S103  1  0.85267200  0.25000000  0.37500000  1
  S  S104  1  0.84286250  0.17770150  0.53177250  1
  S  S105  1  0.17900450  0.96176550  0.70325550  1
  S  S106  1  0.15713750  0.67770150  0.21822750  1
  S  S107  1  0.46176550  0.82099550  0.45325550  1
  S  S108  1  0.46176550  0.32099550  0.79674450  1
  S  S109  1  0.47532750  0.36705450  0.12769750  1
  S  S110  1  0.97532750  0.63294550  0.12230250  1
  S  S111  1  0.67900450  0.96176550  0.04674450  1
  S  S112  1  0.17770150  0.34286250  0.28177250  1
  S  S113  1  0.36705450  0.47532750  0.37230250  1
  S  S114  1  0.75000000  0.14732800  0.12500000  1
  S  S115  1  0.02467250  0.13294550  0.62769750  1
  S  S116  1  0.03823450  0.32099550  0.45325550  1
  S  S117  1  0.17900450  0.53823450  0.04674450  1
  S  S118  1  0.52467250  0.13294550  0.12230250  1
  S  S119  1  0.34286250  0.32229850  0.53177250  1
  S  S120  1  0.82229850  0.65713750  0.28177250  1
  S  S121  1  0.14732800  0.25000000  0.87500000  1
  S  S122  1  0.36705450  0.52467250  0.87230250  1
  S  S123  1  0.46176550  0.17900450  0.95325550  1
  S  S124  1  0.53823450  0.17900450  0.45325550  1
  S  S125  1  0.32099550  0.96176550  0.54674450  1
  S  S126  1  0.17770150  0.15713750  0.46822750  1
  S  S127  1  0.65713750  0.32229850  0.03177250  1
  S  S128  1  0.84286250  0.32229850  0.21822750  1
  S  S129  1  0.03823450  0.17900450  0.29674450  1
  S  S130  1  0.75000000  0.35267200  0.62500000  1
  S  S131  1  0.63294550  0.52467250  0.37230250  1
  S  S132  1  0.86705450  0.47532750  0.37769750  1
  S  S133  1  0.82229850  0.15713750  0.96822750  1
  S  S134  1  0.13294550  0.47532750  0.87769750  1
  S  S135  1  0.67770150  0.34286250  0.46822750  1
  S  S136  1  0.75000000  0.64732800  0.12500000  1
  S  S137  1  0.85267200  0.75000000  0.87500000  1
  S  S138  1  0.17770150  0.65713750  0.78177250  1
  S  S139  1  0.84286250  0.67770150  0.71822750  1
  S  S140  1  0.63294550  0.02467250  0.87769750  1
  S  S141  1  0.03823450  0.82099550  0.79674450  1
  S  S142  1  0.82229850  0.34286250  0.78177250  1
  S  S143  1  0.47532750  0.86705450  0.12230250  1
  S  S144  1  0.82229850  0.84286250  0.46822750  1
  S  S145  1  0.52467250  0.86705450  0.62230250  1
  S  S146  1  0.47532750  0.63294550  0.62769750  1
  S  S147  1  0.86705450  0.52467250  0.87769750  1
  S  S148  1  0.67900450  0.53823450  0.70325550  1
  S  S149  1  0.46176550  0.67900450  0.29674450  1
  S  S150  1  0.82099550  0.53823450  0.54674450  1
  S  S151  1  0.15713750  0.32229850  0.71822750  1
  S  S152  1  0.75000000  0.85267200  0.62500000  1
  S  S153  1  0.52467250  0.36705450  0.62769750  1
  S  S154  1  0.14732800  0.75000000  0.37500000  1
  S  S155  1  0.63294550  0.47532750  0.87230250  1
  S  S156  1  0.82099550  0.03823450  0.70325550  1
  S  S157  1  0.82099550  0.96176550  0.20325550  1
  S  S158  1  0.65713750  0.67770150  0.53177250  1
  S  S159  1  0.35267200  0.75000000  0.87500000  1
  S  S160  1  0.34286250  0.67770150  0.03177250  1
  S  S161  1  0.67900450  0.46176550  0.20325550  1
  S  S162  1  0.65713750  0.17770150  0.71822750  1
  S  S163  1  0.96176550  0.32099550  0.95325550  1
  S  S164  1  0.96176550  0.82099550  0.29674450  1
  S  S165  1  0.97532750  0.86705450  0.62769750  1
  S  S166  1  0.47532750  0.13294550  0.62230250  1
  S  S167  1  0.17900450  0.46176550  0.54674450  1
  S  S168  1  0.67770150  0.84286250  0.78177250  1
  S  S169  1  0.86705450  0.97532750  0.87230250  1
  S  S170  1  0.25000000  0.64732800  0.62500000  1
  S  S171  1  0.52467250  0.63294550  0.12769750  1
  S  S172  1  0.53823450  0.82099550  0.95325550  1
  S  S173  1  0.67900450  0.03823450  0.54674450  1
  S  S174  1  0.02467250  0.63294550  0.62230250  1
  S  S175  1  0.84286250  0.82229850  0.03177250  1
  S  S176  1  0.32229850  0.15713750  0.78177250  1
  S  S177  1  0.64732800  0.75000000  0.37500000  1
  S  S178  1  0.86705450  0.02467250  0.37230250  1
  S  S179  1  0.96176550  0.67900450  0.45325550  1
  S  S180  1  0.03823450  0.67900450  0.95325550  1
  S  S181  1  0.82099550  0.46176550  0.04674450  1
  S  S182  1  0.67770150  0.65713750  0.96822750  1
  S  S183  1  0.15713750  0.82229850  0.53177250  1
  S  S184  1  0.34286250  0.82229850  0.71822750  1
  S  S185  1  0.53823450  0.67900450  0.79674450  1
  S  S186  1  0.25000000  0.85267200  0.12500000  1
  S  S187  1  0.13294550  0.02467250  0.87230250  1
  S  S188  1  0.36705450  0.97532750  0.87769750  1
  S  S189  1  0.32229850  0.65713750  0.46822750  1
  S  S190  1  0.63294550  0.97532750  0.37769750  1
  S  S191  1  0.17770150  0.84286250  0.96822750  1
  O  O192  1  0.00000000  0.50000000  0.25000000  1
  O  O193  1  0.00000000  0.00000000  0.50000000  1
  O  O194  1  0.50000000  0.00000000  0.25000000  1
  O  O195  1  0.00000000  0.00000000  0.00000000  1
  O  O196  1  0.50000000  0.00000000  0.75000000  1
  O  O197  1  0.50000000  0.50000000  0.00000000  1
  O  O198  1  0.00000000  0.50000000  0.75000000  1
  O  O199  1  0.50000000  0.50000000  0.50000000  1
