# generated using pymatgen
data_ZnCu3H6(ClO3)2
_symmetry_space_group_name_H-M   'P 1'
_cell_length_a   6.35584145
_cell_length_b   6.35584145
_cell_length_c   5.74483400
_cell_angle_alpha   90.00000000
_cell_angle_beta   90.00000000
_cell_angle_gamma   120.00000000
_symmetry_Int_Tables_number   1
_chemical_formula_structural   ZnCu3H6(ClO3)2
_chemical_formula_sum   'Zn1 Cu3 H6 Cl2 O6'
_cell_volume   200.98064040
_cell_formula_units_Z   1
loop_
 _symmetry_equiv_pos_site_id
 _symmetry_equiv_pos_as_xyz
  1  'x, y, z'
loop_
 _atom_site_type_symbol
 _atom_site_label
 _atom_site_symmetry_multiplicity
 _atom_site_fract_x
 _atom_site_fract_y
 _atom_site_fract_z
 _atom_site_occupancy
  Zn  Zn0  1  0.00000000  0.00000000  0.50000000  1
  Cu  Cu1  1  0.00000000  0.50000000  0.50000000  1
  Cu  Cu2  1  0.50000000  0.00000000  0.50000000  1
  Cu  Cu3  1  0.50000000  0.50000000  0.50000000  1
  H  H4  1  0.19927800  0.80072200  0.82146200  1
  H  H5  1  0.80072200  0.19927800  0.17853800  1
  H  H6  1  0.39855600  0.19927800  0.17853800  1
  H  H7  1  0.60144400  0.80072200  0.82146200  1
  H  H8  1  0.19927800  0.39855600  0.82146200  1
  H  H9  1  0.80072200  0.60144400  0.17853800  1
  Cl  Cl10  1  0.33333333  0.66666667  0.12234600  1
  Cl  Cl11  1  0.66666667  0.33333333  0.87765400  1
  O  O12  1  0.64533600  0.82266800  0.65465600  1
  O  O13  1  0.82266800  0.17733200  0.34534400  1
  O  O14  1  0.35466400  0.17733200  0.34534400  1
  O  O15  1  0.17733200  0.82266800  0.65465600  1
  O  O16  1  0.82266800  0.64533600  0.34534400  1
  O  O17  1  0.17733200  0.35466400  0.65465600  1
