# generated using pymatgen
data_Ba2ScCl7
_symmetry_space_group_name_H-M   'P 1'
_cell_length_a   7.02762000
_cell_length_b   13.60670100
_cell_length_c   12.36932991
_cell_angle_alpha   90.00000000
_cell_angle_beta   96.27033898
_cell_angle_gamma   90.00000000
_symmetry_Int_Tables_number   1
_chemical_formula_structural   Ba2ScCl7
_chemical_formula_sum   'Ba8 Sc4 Cl28'
_cell_volume   1175.71313933
_cell_formula_units_Z   4
loop_
 _symmetry_equiv_pos_site_id
 _symmetry_equiv_pos_as_xyz
  1  'x, y, z'
loop_
 _atom_site_type_symbol
 _atom_site_label
 _atom_site_symmetry_multiplicity
 _atom_site_fract_x
 _atom_site_fract_y
 _atom_site_fract_z
 _atom_site_occupancy
  Ba  Ba0  1  0.76218000  0.45342400  0.25597300  1
  Ba  Ba1  1  0.26196300  0.36320100  0.62190900  1
  Ba  Ba2  1  0.29392600  0.13187600  0.23343800  1
  Ba  Ba3  1  0.70607400  0.63187600  0.76656200  1
  Ba  Ba4  1  0.74937400  0.21544600  0.87722700  1
  Ba  Ba5  1  0.25062600  0.71544600  0.12277300  1
  Ba  Ba6  1  0.23782000  0.95342400  0.74402700  1
  Ba  Ba7  1  0.73803700  0.86320100  0.37809100  1
  Sc  Sc8  1  0.18818900  0.65560200  0.54671400  1
  Sc  Sc9  1  0.81181100  0.15560200  0.45328600  1
  Sc  Sc10  1  0.79423300  0.92291900  0.95580500  1
  Sc  Sc11  1  0.20576700  0.42291900  0.04419500  1
  Cl  Cl12  1  0.88197700  0.22402800  0.63710300  1
  Cl  Cl13  1  0.02701500  0.79724700  0.89283400  1
  Cl  Cl14  1  0.53377000  0.05111400  0.47725300  1
  Cl  Cl15  1  0.76362600  0.98304500  0.76320100  1
  Cl  Cl16  1  0.37688900  0.16461600  0.73248400  1
  Cl  Cl17  1  0.96080900  0.51453000  0.49912000  1
  Cl  Cl18  1  0.62920000  0.41333400  0.77007600  1
  Cl  Cl19  1  0.54773800  0.04145500  0.99361400  1
  Cl  Cl20  1  0.12535100  0.35503900  0.86193500  1
  Cl  Cl21  1  0.92630400  0.76635700  0.60396300  1
  Cl  Cl22  1  0.42753800  0.79118700  0.60242200  1
  Cl  Cl23  1  0.45226200  0.54145500  0.00638600  1
  Cl  Cl24  1  0.47232500  0.29886000  0.09115600  1
  Cl  Cl25  1  0.52767500  0.79886000  0.90884400  1
  Cl  Cl26  1  0.46623000  0.55111400  0.52274700  1
  Cl  Cl27  1  0.07369600  0.26635700  0.39603700  1
  Cl  Cl28  1  0.62311100  0.66461600  0.26751600  1
  Cl  Cl29  1  0.03919100  0.01453000  0.50088000  1
  Cl  Cl30  1  0.97298500  0.29724700  0.10716600  1
  Cl  Cl31  1  0.11802300  0.72402800  0.36289700  1
  Cl  Cl32  1  0.20995900  0.59148400  0.73694100  1
  Cl  Cl33  1  0.87464900  0.85503900  0.13806500  1
  Cl  Cl34  1  0.57246200  0.29118700  0.39757800  1
  Cl  Cl35  1  0.05421000  0.05188400  0.98354800  1
  Cl  Cl36  1  0.94579000  0.55188400  0.01645200  1
  Cl  Cl37  1  0.79004100  0.09148400  0.26305900  1
  Cl  Cl38  1  0.37080000  0.91333400  0.22992400  1
  Cl  Cl39  1  0.23637400  0.48304500  0.23679900  1
