# generated using pymatgen
data_Ag2O3
_symmetry_space_group_name_H-M   'P 1'
_cell_length_a   3.78296000
_cell_length_b   10.69504000
_cell_length_c   13.14205800
_cell_angle_alpha   90.00000000
_cell_angle_beta   90.00000000
_cell_angle_gamma   90.00000000
_symmetry_Int_Tables_number   1
_chemical_formula_structural   Ag2O3
_chemical_formula_sum   'Ag16 O24'
_cell_volume   531.71332237
_cell_formula_units_Z   8
loop_
 _symmetry_equiv_pos_site_id
 _symmetry_equiv_pos_as_xyz
  1  'x, y, z'
loop_
 _atom_site_type_symbol
 _atom_site_label
 _atom_site_symmetry_multiplicity
 _atom_site_fract_x
 _atom_site_fract_y
 _atom_site_fract_z
 _atom_site_occupancy
  Ag  Ag0  1  0.49945600  0.38304050  0.70293650  1
  Ag  Ag1  1  0.24945600  0.36695950  0.95293650  1
  Ag  Ag2  1  0.24945600  0.13304050  0.54706350  1
  Ag  Ag3  1  0.49945600  0.11695950  0.79706350  1
  Ag  Ag4  1  0.99945600  0.38304050  0.20293650  1
  Ag  Ag5  1  0.74945600  0.36695950  0.45293650  1
  Ag  Ag6  1  0.74945600  0.13304050  0.04706350  1
  Ag  Ag7  1  0.99945600  0.11695950  0.29706350  1
  Ag  Ag8  1  0.99945600  0.88304050  0.70293650  1
  Ag  Ag9  1  0.74945600  0.86695950  0.95293650  1
  Ag  Ag10  1  0.74945600  0.63304050  0.54706350  1
  Ag  Ag11  1  0.99945600  0.61695950  0.79706350  1
  Ag  Ag12  1  0.49945600  0.88304050  0.20293650  1
  Ag  Ag13  1  0.24945600  0.86695950  0.45293650  1
  Ag  Ag14  1  0.24945600  0.63304050  0.04706350  1
  Ag  Ag15  1  0.49945600  0.61695950  0.29706350  1
  O  O16  1  0.63234650  0.23329900  0.91769150  1
  O  O17  1  0.38234650  0.01670100  0.66769150  1
  O  O18  1  0.38234650  0.48329900  0.83230850  1
  O  O19  1  0.91537300  0.00000000  0.50000000  1
  O  O20  1  0.63234650  0.26670100  0.58230850  1
  O  O21  1  0.16537300  0.25000000  0.75000000  1
  O  O22  1  0.13234650  0.23329900  0.41769150  1
  O  O23  1  0.88234650  0.01670100  0.16769150  1
  O  O24  1  0.88234650  0.48329900  0.33230850  1
  O  O25  1  0.41537300  0.00000000  0.00000000  1
  O  O26  1  0.13234650  0.26670100  0.08230850  1
  O  O27  1  0.66537300  0.25000000  0.25000000  1
  O  O28  1  0.13234650  0.73329900  0.91769150  1
  O  O29  1  0.88234650  0.51670100  0.66769150  1
  O  O30  1  0.88234650  0.98329900  0.83230850  1
  O  O31  1  0.41537300  0.50000000  0.50000000  1
  O  O32  1  0.13234650  0.76670100  0.58230850  1
  O  O33  1  0.66537300  0.75000000  0.75000000  1
  O  O34  1  0.63234650  0.73329900  0.41769150  1
  O  O35  1  0.38234650  0.51670100  0.16769150  1
  O  O36  1  0.38234650  0.98329900  0.33230850  1
  O  O37  1  0.91537300  0.50000000  0.00000000  1
  O  O38  1  0.63234650  0.76670100  0.08230850  1
  O  O39  1  0.16537300  0.75000000  0.25000000  1
