# generated using pymatgen
data_Hg19(As5Br9)2
_symmetry_space_group_name_H-M   'P 1'
_cell_length_a   11.61944100
_cell_length_b   11.65408140
_cell_length_c   12.73847167
_cell_angle_alpha   106.12585392
_cell_angle_beta   106.24761080
_cell_angle_gamma   108.32467284
_symmetry_Int_Tables_number   1
_chemical_formula_structural   Hg19(As5Br9)2
_chemical_formula_sum   'Hg19 As10 Br18'
_cell_volume   1439.97094143
_cell_formula_units_Z   1
loop_
 _symmetry_equiv_pos_site_id
 _symmetry_equiv_pos_as_xyz
  1  'x, y, z'
loop_
 _atom_site_type_symbol
 _atom_site_label
 _atom_site_symmetry_multiplicity
 _atom_site_fract_x
 _atom_site_fract_y
 _atom_site_fract_z
 _atom_site_occupancy
  Hg  Hg0  1  0.00000000  0.50000000  0.00000000  1
  Hg  Hg1  1  0.30800700  0.69201300  0.89770100  1
  Hg  Hg2  1  0.69199300  0.30798700  0.10229900  1
  Hg  Hg3  1  0.30722200  0.00518600  0.78156600  1
  Hg  Hg4  1  0.69277800  0.99481400  0.21843400  1
  Hg  Hg5  1  0.63116300  0.89203700  0.82291000  1
  Hg  Hg6  1  0.36883700  0.10796300  0.17709000  1
  Hg  Hg7  1  0.32489000  0.38692000  0.00620100  1
  Hg  Hg8  1  0.67511000  0.61308000  0.99379900  1
  Hg  Hg9  1  0.92836600  0.08385300  0.72162300  1
  Hg  Hg10  1  0.07163400  0.91614700  0.27837700  1
  Hg  Hg11  1  0.87610600  0.37569100  0.59516700  1
  Hg  Hg12  1  0.12389400  0.62430900  0.40483300  1
  Hg  Hg13  1  0.20226800  0.29468400  0.58935700  1
  Hg  Hg14  1  0.79773200  0.70531600  0.41064300  1
  Hg  Hg15  1  0.07182200  0.24202200  0.18533000  1
  Hg  Hg16  1  0.92817800  0.75797800  0.81467000  1
  Hg  Hg17  1  0.48496100  0.20384600  0.57614800  1
  Hg  Hg18  1  0.51503900  0.79615400  0.42385200  1
  As  As19  1  0.44825600  0.91539000  0.89702300  1
  As  As20  1  0.55174400  0.08461000  0.10297700  1
  As  As21  1  0.16695000  0.47199200  0.90245700  1
  As  As22  1  0.83305000  0.52800800  0.09754300  1
  As  As23  1  0.21649400  0.14217400  0.28611700  1
  As  As24  1  0.78350600  0.85782600  0.71388300  1
  As  As25  1  0.04304900  0.30069600  0.69832100  1
  As  As26  1  0.95695100  0.69930400  0.30167900  1
  As  As27  1  0.36417300  0.32348300  0.48604100  1
  As  As28  1  0.63582700  0.67651700  0.51395900  1
  Br  Br29  1  0.49982400  0.40996000  0.20319500  1
  Br  Br30  1  0.50017600  0.59004000  0.79680500  1
  Br  Br31  1  0.17008700  0.09839100  0.93101400  1
  Br  Br32  1  0.82991300  0.90160900  0.06898600  1
  Br  Br33  1  0.88437000  0.20089300  0.98071700  1
  Br  Br34  1  0.11563000  0.79910700  0.01928300  1
  Br  Br35  1  0.78188200  0.48775600  0.77534400  1
  Br  Br36  1  0.21811800  0.51224400  0.22465600  1
  Br  Br37  1  0.46281400  0.28704000  0.86526900  1
  Br  Br38  1  0.53718600  0.71296000  0.13473100  1
  Br  Br39  1  0.96468700  0.34416200  0.34436300  1
  Br  Br40  1  0.03531300  0.65583800  0.65563700  1
  Br  Br41  1  0.85728900  0.01301000  0.41511700  1
  Br  Br42  1  0.14271100  0.98699000  0.58488300  1
  Br  Br43  1  0.61785400  0.09374200  0.67098900  1
  Br  Br44  1  0.38214600  0.90625800  0.32901100  1
  Br  Br45  1  0.66376600  0.32015000  0.41943900  1
  Br  Br46  1  0.33623400  0.67985000  0.58056100  1
