# generated using pymatgen
data_SiO2
_symmetry_space_group_name_H-M   'P 1'
_cell_length_a   9.06040800
_cell_length_b   9.06040800
_cell_length_c   16.24337600
_cell_angle_alpha   90.00000000
_cell_angle_beta   90.00000000
_cell_angle_gamma   90.00000000
_symmetry_Int_Tables_number   1
_chemical_formula_structural   SiO2
_chemical_formula_sum   'Si32 O64'
_cell_volume   1333.43486757
_cell_formula_units_Z   32
loop_
 _symmetry_equiv_pos_site_id
 _symmetry_equiv_pos_as_xyz
  1  'x, y, z'
loop_
 _atom_site_type_symbol
 _atom_site_label
 _atom_site_symmetry_multiplicity
 _atom_site_fract_x
 _atom_site_fract_y
 _atom_site_fract_z
 _atom_site_occupancy
  Si  Si0  1  0.55338800  0.21991700  0.28105100  1
  Si  Si1  1  0.71991700  0.94661200  0.21894900  1
  Si  Si2  1  0.94661200  0.78008300  0.46894900  1
  Si  Si3  1  0.78008300  0.44661200  0.21894900  1
  Si  Si4  1  0.55338800  0.28008300  0.46894900  1
  Si  Si5  1  0.44661200  0.78008300  0.28105100  1
  Si  Si6  1  0.71991700  0.44661200  0.03105100  1
  Si  Si7  1  0.44661200  0.71991700  0.46894900  1
  Si  Si8  1  0.28008300  0.05338800  0.21894900  1
  Si  Si9  1  0.21991700  0.05338800  0.03105100  1
  Si  Si10  1  0.05338800  0.21991700  0.46894900  1
  Si  Si11  1  0.21991700  0.55338800  0.21894900  1
  Si  Si12  1  0.05338800  0.28008300  0.28105100  1
  Si  Si13  1  0.28008300  0.55338800  0.03105100  1
  Si  Si14  1  0.78008300  0.94661200  0.03105100  1
  Si  Si15  1  0.94661200  0.71991700  0.28105100  1
  Si  Si16  1  0.05338800  0.71991700  0.78105100  1
  Si  Si17  1  0.21991700  0.44661200  0.71894900  1
  Si  Si18  1  0.44661200  0.28008300  0.96894900  1
  Si  Si19  1  0.28008300  0.94661200  0.71894900  1
  Si  Si20  1  0.05338800  0.78008300  0.96894900  1
  Si  Si21  1  0.94661200  0.28008300  0.78105100  1
  Si  Si22  1  0.21991700  0.94661200  0.53105100  1
  Si  Si23  1  0.94661200  0.21991700  0.96894900  1
  Si  Si24  1  0.78008300  0.55338800  0.71894900  1
  Si  Si25  1  0.71991700  0.55338800  0.53105100  1
  Si  Si26  1  0.55338800  0.71991700  0.96894900  1
  Si  Si27  1  0.71991700  0.05338800  0.71894900  1
  Si  Si28  1  0.55338800  0.78008300  0.78105100  1
  Si  Si29  1  0.78008300  0.05338800  0.53105100  1
  Si  Si30  1  0.28008300  0.44661200  0.53105100  1
  Si  Si31  1  0.44661200  0.21991700  0.78105100  1
  O  O32  1  0.17583550  0.41394350  0.27737350  1
  O  O33  1  0.82416450  0.91394350  0.47262650  1
  O  O34  1  0.62757950  0.12757950  0.50000000  1
  O  O35  1  0.62757950  0.37242050  0.25000000  1
  O  O36  1  0.91394350  0.32416450  0.22262650  1
  O  O37  1  0.82416450  0.58605650  0.27737350  1
  O  O38  1  0.32416450  0.58605650  0.47262650  1
  O  O39  1  0.12757950  0.12757950  0.25000000  1
  O  O40  1  0.87242050  0.37242050  0.00000000  1
  O  O41  1  0.99628200  0.25000000  0.37500000  1
  O  O42  1  0.37242050  0.12757950  0.00000000  1
  O  O43  1  0.67583550  0.08605650  0.27737350  1
  O  O44  1  0.25000000  0.99628200  0.12500000  1
  O  O45  1  0.58605650  0.82416450  0.22262650  1
  O  O46  1  0.58605650  0.32416450  0.02737350  1
  O  O47  1  0.75000000  0.00371800  0.12500000  1
  O  O48  1  0.75000000  0.50371800  0.12500000  1
  O  O49  1  0.25000000  0.49628200  0.12500000  1
  O  O50  1  0.32416450  0.91394350  0.27737350  1
  O  O51  1  0.91394350  0.82416450  0.02737350  1
  O  O52  1  0.41394350  0.67583550  0.02737350  1
  O  O53  1  0.41394350  0.17583550  0.22262650  1
  O  O54  1  0.37242050  0.62757950  0.25000000  1
  O  O55  1  0.17583550  0.08605650  0.47262650  1
  O  O56  1  0.67583550  0.41394350  0.47262650  1
  O  O57  1  0.62757950  0.87242050  0.00000000  1
  O  O58  1  0.08605650  0.17583550  0.02737350  1
  O  O59  1  0.08605650  0.67583550  0.22262650  1
  O  O60  1  0.50371800  0.75000000  0.37500000  1
  O  O61  1  0.00371800  0.75000000  0.37500000  1
  O  O62  1  0.49628200  0.25000000  0.37500000  1
  O  O63  1  0.87242050  0.87242050  0.25000000  1
  O  O64  1  0.67583550  0.91394350  0.77737350  1
  O  O65  1  0.32416450  0.41394350  0.97262650  1
  O  O66  1  0.12757950  0.62757950  0.00000000  1
  O  O67  1  0.12757950  0.87242050  0.75000000  1
  O  O68  1  0.41394350  0.82416450  0.72262650  1
  O  O69  1  0.32416450  0.08605650  0.77737350  1
  O  O70  1  0.82416450  0.08605650  0.97262650  1
  O  O71  1  0.62757950  0.62757950  0.75000000  1
  O  O72  1  0.37242050  0.87242050  0.50000000  1
  O  O73  1  0.49628200  0.75000000  0.87500000  1
  O  O74  1  0.87242050  0.62757950  0.50000000  1
  O  O75  1  0.17583550  0.58605650  0.77737350  1
  O  O76  1  0.75000000  0.49628200  0.62500000  1
  O  O77  1  0.08605650  0.32416450  0.72262650  1
  O  O78  1  0.08605650  0.82416450  0.52737350  1
  O  O79  1  0.25000000  0.50371800  0.62500000  1
  O  O80  1  0.25000000  0.00371800  0.62500000  1
  O  O81  1  0.75000000  0.99628200  0.62500000  1
  O  O82  1  0.82416450  0.41394350  0.77737350  1
  O  O83  1  0.41394350  0.32416450  0.52737350  1
  O  O84  1  0.91394350  0.17583550  0.52737350  1
  O  O85  1  0.91394350  0.67583550  0.72262650  1
  O  O86  1  0.87242050  0.12757950  0.75000000  1
  O  O87  1  0.67583550  0.58605650  0.97262650  1
  O  O88  1  0.17583550  0.91394350  0.97262650  1
  O  O89  1  0.12757950  0.37242050  0.50000000  1
  O  O90  1  0.58605650  0.67583550  0.52737350  1
  O  O91  1  0.58605650  0.17583550  0.72262650  1
  O  O92  1  0.00371800  0.25000000  0.87500000  1
  O  O93  1  0.50371800  0.25000000  0.87500000  1
  O  O94  1  0.99628200  0.75000000  0.87500000  1
  O  O95  1  0.37242050  0.37242050  0.75000000  1
