# generated using pymatgen
data_HfGeTe4
_symmetry_space_group_name_H-M   'P 1'
_cell_length_a   4.01900800
_cell_length_b   16.57377200
_cell_length_c   11.10876700
_cell_angle_alpha   90.00000000
_cell_angle_beta   90.00000000
_cell_angle_gamma   90.00000000
_symmetry_Int_Tables_number   1
_chemical_formula_structural   HfGeTe4
_chemical_formula_sum   'Hf4 Ge4 Te16'
_cell_volume   739.95632801
_cell_formula_units_Z   4
loop_
 _symmetry_equiv_pos_site_id
 _symmetry_equiv_pos_as_xyz
  1  'x, y, z'
loop_
 _atom_site_type_symbol
 _atom_site_label
 _atom_site_symmetry_multiplicity
 _atom_site_fract_x
 _atom_site_fract_y
 _atom_site_fract_z
 _atom_site_occupancy
  Hf  Hf0  1  0.00000000  0.34684200  0.72797500  1
  Hf  Hf1  1  0.50000000  0.15315800  0.22797500  1
  Hf  Hf2  1  0.50000000  0.84684200  0.72797500  1
  Hf  Hf3  1  0.00000000  0.65315800  0.22797500  1
  Ge  Ge4  1  0.00000000  0.22877100  0.53908500  1
  Ge  Ge5  1  0.50000000  0.27122900  0.03908500  1
  Ge  Ge6  1  0.50000000  0.72877100  0.53908500  1
  Ge  Ge7  1  0.00000000  0.77122900  0.03908500  1
  Te  Te8  1  0.00000000  0.27470500  0.30167100  1
  Te  Te9  1  0.00000000  0.37832300  0.99904800  1
  Te  Te10  1  0.50000000  0.22529500  0.80167100  1
  Te  Te11  1  0.50000000  0.47779900  0.75893200  1
  Te  Te12  1  0.00000000  0.10354400  0.04112900  1
  Te  Te13  1  0.50000000  0.39645600  0.54112900  1
  Te  Te14  1  0.00000000  0.02220100  0.25893200  1
  Te  Te15  1  0.50000000  0.12167700  0.49904800  1
  Te  Te16  1  0.50000000  0.77470500  0.30167100  1
  Te  Te17  1  0.50000000  0.87832300  0.99904800  1
  Te  Te18  1  0.00000000  0.72529500  0.80167100  1
  Te  Te19  1  0.00000000  0.97779900  0.75893200  1
  Te  Te20  1  0.50000000  0.60354400  0.04112900  1
  Te  Te21  1  0.00000000  0.89645600  0.54112900  1
  Te  Te22  1  0.50000000  0.52220100  0.25893200  1
  Te  Te23  1  0.00000000  0.62167700  0.49904800  1
