# generated using pymatgen
data_SiO2
_symmetry_space_group_name_H-M   'P 1'
_cell_length_a   6.90212200
_cell_length_b   7.71489800
_cell_length_c   6.80731533
_cell_angle_alpha   90.00000000
_cell_angle_beta   102.55001872
_cell_angle_gamma   90.00000000
_symmetry_Int_Tables_number   1
_chemical_formula_structural   SiO2
_chemical_formula_sum   'Si8 O16'
_cell_volume   353.82293091
_cell_formula_units_Z   8
loop_
 _symmetry_equiv_pos_site_id
 _symmetry_equiv_pos_as_xyz
  1  'x, y, z'
loop_
 _atom_site_type_symbol
 _atom_site_label
 _atom_site_symmetry_multiplicity
 _atom_site_fract_x
 _atom_site_fract_y
 _atom_site_fract_z
 _atom_site_occupancy
  Si  Si0  1  0.68647750  0.86927850  0.43070600  1
  Si  Si1  1  0.31352250  0.86927850  0.56929400  1
  Si  Si2  1  0.00767350  0.00260950  0.23716200  1
  Si  Si3  1  0.99232650  0.00260950  0.76283800  1
  Si  Si4  1  0.18647750  0.36927850  0.43070600  1
  Si  Si5  1  0.81352250  0.36927850  0.56929400  1
  Si  Si6  1  0.50767350  0.50260950  0.23716200  1
  Si  Si7  1  0.49232650  0.50260950  0.76283800  1
  O  O8  1  0.78116950  0.98561050  0.27342200  1
  O  O9  1  0.50000000  0.96477800  0.50000000  1
  O  O10  1  0.64234350  0.34649450  0.36148600  1
  O  O11  1  0.39144600  0.68717600  0.67939700  1
  O  O12  1  0.21883050  0.98561050  0.72657800  1
  O  O13  1  0.50000000  0.48481300  0.00000000  1
  O  O14  1  0.60855400  0.68717600  0.32060300  1
  O  O15  1  0.35765650  0.34649450  0.63851400  1
  O  O16  1  0.28116950  0.48561050  0.27342200  1
  O  O17  1  0.00000000  0.46477800  0.50000000  1
  O  O18  1  0.14234350  0.84649450  0.36148600  1
  O  O19  1  0.89144600  0.18717600  0.67939700  1
  O  O20  1  0.71883050  0.48561050  0.72657800  1
  O  O21  1  0.00000000  0.98481300  0.00000000  1
  O  O22  1  0.10855400  0.18717600  0.32060300  1
  O  O23  1  0.85765650  0.84649450  0.63851400  1
