# generated using pymatgen
data_Bi8SbAuBr9
_symmetry_space_group_name_H-M   'P 1'
_cell_length_a   10.93721000
_cell_length_b   15.58662400
_cell_length_c   15.24017691
_cell_angle_alpha   90.00000000
_cell_angle_beta   91.94362076
_cell_angle_gamma   90.00000000
_symmetry_Int_Tables_number   1
_chemical_formula_structural   Bi8SbAuBr9
_chemical_formula_sum   'Bi32 Sb4 Au4 Br36'
_cell_volume   2596.56195768
_cell_formula_units_Z   4
loop_
 _symmetry_equiv_pos_site_id
 _symmetry_equiv_pos_as_xyz
  1  'x, y, z'
loop_
 _atom_site_type_symbol
 _atom_site_label
 _atom_site_symmetry_multiplicity
 _atom_site_fract_x
 _atom_site_fract_y
 _atom_site_fract_z
 _atom_site_occupancy
  Bi  Bi0  1  0.95203400  0.85901100  0.80027400  1
  Bi  Bi1  1  0.06113500  0.64219500  0.69481900  1
  Bi  Bi2  1  0.69274600  0.35510600  0.02214600  1
  Bi  Bi3  1  0.45001400  0.13616600  0.64306400  1
  Bi  Bi4  1  0.04796600  0.35901100  0.69972600  1
  Bi  Bi5  1  0.54998600  0.63616600  0.85693600  1
  Bi  Bi6  1  0.04796600  0.14098900  0.19972600  1
  Bi  Bi7  1  0.42133400  0.31666900  0.93519500  1
  Bi  Bi8  1  0.45001400  0.36383400  0.14306400  1
  Bi  Bi9  1  0.93886500  0.14219500  0.80518100  1
  Bi  Bi10  1  0.76931700  0.94825300  0.47321200  1
  Bi  Bi11  1  0.23068300  0.05174700  0.52678800  1
  Bi  Bi12  1  0.93886500  0.35780500  0.30518100  1
  Bi  Bi13  1  0.23068300  0.44825300  0.02678800  1
  Bi  Bi14  1  0.95203400  0.64098900  0.30027400  1
  Bi  Bi15  1  0.30725400  0.85510600  0.47785400  1
  Bi  Bi16  1  0.76931700  0.55174700  0.97321200  1
  Bi  Bi17  1  0.42133400  0.18333100  0.43519500  1
  Bi  Bi18  1  0.62014300  0.06859500  0.33014800  1
  Bi  Bi19  1  0.37985700  0.93140500  0.66985200  1
  Bi  Bi20  1  0.66204000  0.99101900  0.94483200  1
  Bi  Bi21  1  0.54998600  0.86383400  0.35693600  1
  Bi  Bi22  1  0.33796000  0.00898100  0.05516800  1
  Bi  Bi23  1  0.62014300  0.43140500  0.83014800  1
  Bi  Bi24  1  0.30725400  0.64489400  0.97785400  1
  Bi  Bi25  1  0.37985700  0.56859500  0.16985200  1
  Bi  Bi26  1  0.57866600  0.81666900  0.56480500  1
  Bi  Bi27  1  0.69274600  0.14489400  0.52214600  1
  Bi  Bi28  1  0.57866600  0.68333100  0.06480500  1
  Bi  Bi29  1  0.66204000  0.50898100  0.44483200  1
  Bi  Bi30  1  0.06113500  0.85780500  0.19481900  1
  Bi  Bi31  1  0.33796000  0.49101900  0.55516800  1
  Sb  Sb32  1  0.77148700  0.50335500  0.27111100  1
  Sb  Sb33  1  0.77148700  0.99664500  0.77111100  1
  Sb  Sb34  1  0.22851300  0.00335500  0.22888900  1
  Sb  Sb35  1  0.22851300  0.49664500  0.72888900  1
  Au  Au36  1  0.62306200  0.99359300  0.62398700  1
  Au  Au37  1  0.37693800  0.00640700  0.37601300  1
  Au  Au38  1  0.37693800  0.49359300  0.87601300  1
  Au  Au39  1  0.62306200  0.50640700  0.12398700  1
  Br  Br40  1  0.82585900  0.35480300  0.47883500  1
  Br  Br41  1  0.49114700  0.62918700  0.37265300  1
  Br  Br42  1  0.51514500  0.61259800  0.62948400  1
  Br  Br43  1  0.50885300  0.12918700  0.12734700  1
  Br  Br44  1  0.48485500  0.38740200  0.37051600  1
  Br  Br45  1  0.12885400  0.49721200  0.32248100  1
  Br  Br46  1  0.97937300  0.36341800  0.11919300  1
  Br  Br47  1  0.00169800  0.86987700  0.61933100  1
  Br  Br48  1  0.02062700  0.63658200  0.88080700  1
  Br  Br49  1  0.17478600  0.15631400  0.02396900  1
  Br  Br50  1  0.87114600  0.50278800  0.67751900  1
  Br  Br51  1  0.82585900  0.14519700  0.97883500  1
  Br  Br52  1  0.25850300  0.75090600  0.25718200  1
  Br  Br53  1  0.00169800  0.63012300  0.11933100  1
  Br  Br54  1  0.50885300  0.37081300  0.62734700  1
  Br  Br55  1  0.82521400  0.65631400  0.47603100  1
  Br  Br56  1  0.82521400  0.84368600  0.97603100  1
  Br  Br57  1  0.23753800  0.25565000  0.26402900  1
  Br  Br58  1  0.51514500  0.88740200  0.12948400  1
  Br  Br59  1  0.12885400  0.00278800  0.82248100  1
  Br  Br60  1  0.76246200  0.74435000  0.73597100  1
  Br  Br61  1  0.76246200  0.75565000  0.23597100  1
  Br  Br62  1  0.02062700  0.86341800  0.38080700  1
  Br  Br63  1  0.23753800  0.24435000  0.76402900  1
  Br  Br64  1  0.17478600  0.34368600  0.52396900  1
  Br  Br65  1  0.99830200  0.13012300  0.38066900  1
  Br  Br66  1  0.97937300  0.13658200  0.61919300  1
  Br  Br67  1  0.74149700  0.24909400  0.74281800  1
  Br  Br68  1  0.99830200  0.36987700  0.88066900  1
  Br  Br69  1  0.87114600  0.99721200  0.17751900  1
  Br  Br70  1  0.74149700  0.25090600  0.24281800  1
  Br  Br71  1  0.49114700  0.87081300  0.87265300  1
  Br  Br72  1  0.17414100  0.64519700  0.52116500  1
  Br  Br73  1  0.17414100  0.85480300  0.02116500  1
  Br  Br74  1  0.48485500  0.11259800  0.87051600  1
  Br  Br75  1  0.25850300  0.74909400  0.75718200  1
