# generated using pymatgen
data_Al13Si5H14Cl(O17F2)2
_symmetry_space_group_name_H-M   'P 1'
_cell_length_a   9.87364700
_cell_length_b   9.89207027
_cell_length_c   9.89184960
_cell_angle_alpha   60.60621580
_cell_angle_beta   60.39589408
_cell_angle_gamma   60.20956006
_symmetry_Int_Tables_number   1
_chemical_formula_structural   Al13Si5H14Cl(O17F2)2
_chemical_formula_sum   'Al13 Si5 H14 Cl1 O34 F4'
_cell_volume   689.39107746
_cell_formula_units_Z   1
loop_
 _symmetry_equiv_pos_site_id
 _symmetry_equiv_pos_as_xyz
  1  'x, y, z'
loop_
 _atom_site_type_symbol
 _atom_site_label
 _atom_site_symmetry_multiplicity
 _atom_site_fract_x
 _atom_site_fract_y
 _atom_site_fract_z
 _atom_site_occupancy
  Al  Al0  1  0.23347500  0.60103800  0.22823500  1
  Al  Al1  1  0.59369700  0.23478300  0.23685300  1
  Al  Al2  1  0.93543600  0.24577400  0.23118700  1
  Al  Al3  1  0.22729000  0.93974300  0.23353500  1
  Al  Al4  1  0.23366800  0.22816200  0.60018700  1
  Al  Al5  1  0.93925000  0.59986200  0.21328900  1
  Al  Al6  1  0.59700700  0.93978700  0.23018700  1
  Al  Al7  1  0.23261700  0.23634400  0.93693800  1
  Al  Al8  1  0.94041700  0.21591600  0.60666200  1
  Al  Al9  1  0.23336100  0.93496100  0.59582500  1
  Al  Al10  1  0.59414500  0.23138300  0.93829600  1
  Al  Al11  1  0.23449400  0.59323300  0.93407700  1
  Al  Al12  1  0.24703300  0.25297400  0.24827500  1
  Si  Si13  1  0.88651200  0.88658000  0.34232800  1
  Si  Si14  1  0.75103800  0.74514800  0.74681200  1
  Si  Si15  1  0.34386200  0.88419300  0.88534200  1
  Si  Si16  1  0.88579800  0.33930400  0.88814100  1
  Si  Si17  1  0.88438000  0.88220500  0.88234200  1
  H  H18  1  0.65070300  0.35587100  0.34507000  1
  H  H19  1  0.35359700  0.65083900  0.34785900  1
  H  H20  1  0.65410800  0.65058300  0.32008100  1
  H  H21  1  0.35205100  0.34647400  0.65092300  1
  H  H22  1  0.65088400  0.32607900  0.65136100  1
  H  H23  1  0.33726200  0.64687600  0.64683500  1
  H  H24  1  0.98888100  0.48678500  0.48393500  1
  H  H25  1  0.48796800  0.06358200  0.48831800  1
  H  H26  1  0.79727700  0.52955100  0.52831300  1
  H  H27  1  0.52575200  0.81171900  0.52112400  1
  H  H28  1  0.50747000  0.06590400  0.91313300  1
  H  H29  1  0.05676700  0.46658300  0.00823700  1
  H  H30  1  0.52745700  0.52181200  0.81890000  1
  H  H31  1  0.49718300  0.49610200  0.06789000  1
  Cl  Cl32  1  0.50071700  0.49994600  0.49941300  1
  O  O33  1  0.99963200  0.72659800  0.27394100  1
  O  O34  1  0.72620200  0.99897600  0.27524100  1
  O  O35  1  0.99691500  0.99904700  0.28296800  1
  O  O36  1  0.27517000  0.99655100  0.72698600  1
  O  O37  1  0.99914300  0.27114800  0.72759700  1
  O  O38  1  0.81356000  0.80884800  0.54585700  1
  O  O39  1  0.54819400  0.81272200  0.81150200  1
  O  O40  1  0.72439100  0.27544500  0.99913700  1
  O  O41  1  0.27920300  0.72458400  0.99630200  1
  O  O42  1  0.81370300  0.54338800  0.81176800  1
  O  O43  1  0.81591200  0.81382700  0.81506500  1
  O  O44  1  0.99964400  0.27191700  0.99939300  1
  O  O45  1  0.28177100  0.99564700  0.99853100  1
  O  O46  1  0.45371100  0.45587400  0.18788000  1
  O  O47  1  0.99907900  0.99269900  0.72280600  1
  O  O48  1  0.45008500  0.18411300  0.45550900  1
  O  O49  1  0.72132000  0.27547900  0.28529100  1
  O  O50  1  0.27494600  0.72123200  0.28605200  1
  O  O51  1  0.00139600  0.73037100  0.99232800  1
  O  O52  1  0.72371900  0.99569700  0.99570200  1
  O  O53  1  0.91608100  0.45040400  0.18720500  1
  O  O54  1  0.27303300  0.28574900  0.71979700  1
  O  O55  1  0.71926700  0.71975000  0.28321900  1
  O  O56  1  0.45729900  0.90411200  0.45631700  1
  O  O57  1  0.90671500  0.46679000  0.47002300  1
  O  O58  1  0.28341300  0.71761500  0.71597600  1
  O  O59  1  0.72138800  0.28343000  0.71749800  1
  O  O60  1  0.45753100  0.18297400  0.89995000  1
  O  O61  1  0.17434600  0.45042400  0.92378700  1
  O  O62  1  0.17714900  0.16727400  0.18005800  1
  O  O63  1  0.45740000  0.45519800  0.89973700  1
  O  O64  1  0.47286500  0.17295400  0.17453300  1
  O  O65  1  0.17620900  0.47655600  0.17880500  1
  O  O66  1  0.17037800  0.17577400  0.47515400  1
  F  F67  1  0.17941700  0.45333000  0.45542800  1
  F  F68  1  0.45183800  0.90199200  0.19309900  1
  F  F69  1  0.19371200  0.90614500  0.45036200  1
  F  F70  1  0.90270600  0.19526900  0.45729700  1
