# generated using pymatgen
data_Rb2TeBr6
_symmetry_space_group_name_H-M   'P 1'
_cell_length_a   7.82895200
_cell_length_b   7.82895200
_cell_length_c   11.22699000
_cell_angle_alpha   90.00000000
_cell_angle_beta   90.00000000
_cell_angle_gamma   90.00000000
_symmetry_Int_Tables_number   1
_chemical_formula_structural   Rb2TeBr6
_chemical_formula_sum   'Rb4 Te2 Br12'
_cell_volume   688.13016577
_cell_formula_units_Z   2
loop_
 _symmetry_equiv_pos_site_id
 _symmetry_equiv_pos_as_xyz
  1  'x, y, z'
loop_
 _atom_site_type_symbol
 _atom_site_label
 _atom_site_symmetry_multiplicity
 _atom_site_fract_x
 _atom_site_fract_y
 _atom_site_fract_z
 _atom_site_occupancy
  Rb  Rb0  1  0.00000000  0.50000000  0.25000000  1
  Rb  Rb1  1  0.50000000  0.00000000  0.25000000  1
  Rb  Rb2  1  0.50000000  0.00000000  0.75000000  1
  Rb  Rb3  1  0.00000000  0.50000000  0.75000000  1
  Te  Te4  1  0.00000000  0.00000000  0.00000000  1
  Te  Te5  1  0.50000000  0.50000000  0.50000000  1
  Br  Br6  1  0.77469500  0.26722400  0.00000000  1
  Br  Br7  1  0.00000000  0.00000000  0.24370700  1
  Br  Br8  1  0.73277600  0.77469500  0.00000000  1
  Br  Br9  1  0.26722400  0.22530500  0.00000000  1
  Br  Br10  1  0.50000000  0.50000000  0.25629300  1
  Br  Br11  1  0.22530500  0.73277600  0.00000000  1
  Br  Br12  1  0.27469500  0.76722400  0.50000000  1
  Br  Br13  1  0.50000000  0.50000000  0.74370700  1
  Br  Br14  1  0.23277600  0.27469500  0.50000000  1
  Br  Br15  1  0.76722400  0.72530500  0.50000000  1
  Br  Br16  1  0.00000000  0.00000000  0.75629300  1
  Br  Br17  1  0.72530500  0.23277600  0.50000000  1
