# generated using pymatgen
data_BaH2N2O5
_symmetry_space_group_name_H-M   'P 1'
_cell_length_a   7.17410810
_cell_length_b   7.17410810
_cell_length_c   18.17519700
_cell_angle_alpha   90.00000000
_cell_angle_beta   90.00000000
_cell_angle_gamma   120.00000000
_symmetry_Int_Tables_number   1
_chemical_formula_structural   BaH2N2O5
_chemical_formula_sum   'Ba6 H12 N12 O30'
_cell_volume   810.11298029
_cell_formula_units_Z   6
loop_
 _symmetry_equiv_pos_site_id
 _symmetry_equiv_pos_as_xyz
  1  'x, y, z'
loop_
 _atom_site_type_symbol
 _atom_site_label
 _atom_site_symmetry_multiplicity
 _atom_site_fract_x
 _atom_site_fract_y
 _atom_site_fract_z
 _atom_site_occupancy
  Ba  Ba0  1  0.85454900  0.42093500  0.16607467  1
  Ba  Ba1  1  0.43361400  0.85454900  0.99940800  1
  Ba  Ba2  1  0.42093500  0.56638600  0.33274133  1
  Ba  Ba3  1  0.57906500  0.43361400  0.83274133  1
  Ba  Ba4  1  0.56638600  0.14545100  0.49940800  1
  Ba  Ba5  1  0.14545100  0.57906500  0.66607467  1
  H  H6  1  0.02479200  0.85690200  0.54653167  1
  H  H7  1  0.16789000  0.02479200  0.37986500  1
  H  H8  1  0.85690200  0.83211000  0.71319833  1
  H  H9  1  0.14309800  0.16789000  0.21319833  1
  H  H10  1  0.83211000  0.97520800  0.87986500  1
  H  H11  1  0.97520800  0.14309800  0.04653167  1
  H  H12  1  0.13916200  0.04192900  0.60360967  1
  H  H13  1  0.09723300  0.13916200  0.43694300  1
  H  H14  1  0.04192900  0.90276700  0.77027633  1
  H  H15  1  0.95807100  0.09723300  0.27027633  1
  H  H16  1  0.90276700  0.86083800  0.93694300  1
  H  H17  1  0.86083800  0.95807100  0.10360967  1
  N  N18  1  0.03339200  0.78775000  0.31294567  1
  N  N19  1  0.24564200  0.03339200  0.14627900  1
  N  N20  1  0.78775000  0.75435800  0.47961233  1
  N  N21  1  0.21225000  0.24564200  0.97961233  1
  N  N22  1  0.75435800  0.96660800  0.64627900  1
  N  N23  1  0.96660800  0.21225000  0.81294567  1
  N  N24  1  0.12153300  0.55532500  0.49277267  1
  N  N25  1  0.56620800  0.12153300  0.32610600  1
  N  N26  1  0.55532500  0.43379200  0.65943933  1
  N  N27  1  0.44467500  0.56620800  0.15943933  1
  N  N28  1  0.43379200  0.87846700  0.82610600  1
  N  N29  1  0.87846700  0.44467500  0.99277267  1
  O  O30  1  0.10080000  0.66391000  0.29111267  1
  O  O31  1  0.43689000  0.10080000  0.12444600  1
  O  O32  1  0.66391000  0.56311000  0.45777933  1
  O  O33  1  0.33609000  0.43689000  0.95777933  1
  O  O34  1  0.56311000  0.89920000  0.62444600  1
  O  O35  1  0.89920000  0.33609000  0.79111267  1
  O  O36  1  0.86524200  0.76171100  0.28032067  1
  O  O37  1  0.10353100  0.86524200  0.11365400  1
  O  O38  1  0.76171100  0.89646900  0.44698733  1
  O  O39  1  0.23828900  0.10353100  0.94698733  1
  O  O40  1  0.89646900  0.13475800  0.61365400  1
  O  O41  1  0.13475800  0.23828900  0.78032067  1
  O  O42  1  0.29559700  0.70227800  0.46422567  1
  O  O43  1  0.59331900  0.29559700  0.29755900  1
  O  O44  1  0.70227800  0.40668100  0.63089233  1
  O  O45  1  0.29772200  0.59331900  0.13089233  1
  O  O46  1  0.40668100  0.70440300  0.79755900  1
  O  O47  1  0.70440300  0.29772200  0.96422567  1
  O  O48  1  0.00839300  0.39624600  0.45151967  1
  O  O49  1  0.61214700  0.00839300  0.28485300  1
  O  O50  1  0.39624600  0.38785300  0.61818633  1
  O  O51  1  0.60375400  0.61214700  0.11818633  1
  O  O52  1  0.38785300  0.99160700  0.78485300  1
  O  O53  1  0.99160700  0.60375400  0.95151967  1
  O  O54  1  0.15159700  0.92531000  0.58014167  1
  O  O55  1  0.22628700  0.15159700  0.41347500  1
  O  O56  1  0.92531000  0.77371300  0.74680833  1
  O  O57  1  0.07469000  0.22628700  0.24680833  1
  O  O58  1  0.77371300  0.84840300  0.91347500  1
  O  O59  1  0.84840300  0.07469000  0.08014167  1
