# generated using pymatgen
data_K3SO4F
_symmetry_space_group_name_H-M   'P 1'
_cell_length_a   7.39002000
_cell_length_b   7.39002000
_cell_length_c   11.06430000
_cell_angle_alpha   90.00000000
_cell_angle_beta   90.00000000
_cell_angle_gamma   90.00000000
_symmetry_Int_Tables_number   1
_chemical_formula_structural   K3SO4F
_chemical_formula_sum   'K12 S4 O16 F4'
_cell_volume   604.24792864
_cell_formula_units_Z   4
loop_
 _symmetry_equiv_pos_site_id
 _symmetry_equiv_pos_as_xyz
  1  'x, y, z'
loop_
 _atom_site_type_symbol
 _atom_site_label
 _atom_site_symmetry_multiplicity
 _atom_site_fract_x
 _atom_site_fract_y
 _atom_site_fract_z
 _atom_site_occupancy
  K  K0  1  0.69296200  0.19296200  0.00000000  1
  K  K1  1  0.50000000  0.50000000  0.25000000  1
  K  K2  1  0.19296200  0.30703800  0.00000000  1
  K  K3  1  0.30703800  0.80703800  0.00000000  1
  K  K4  1  0.80703800  0.69296200  0.00000000  1
  K  K5  1  0.00000000  0.00000000  0.25000000  1
  K  K6  1  0.19296200  0.69296200  0.50000000  1
  K  K7  1  0.00000000  0.00000000  0.75000000  1
  K  K8  1  0.69296200  0.80703800  0.50000000  1
  K  K9  1  0.80703800  0.30703800  0.50000000  1
  K  K10  1  0.30703800  0.19296200  0.50000000  1
  K  K11  1  0.50000000  0.50000000  0.75000000  1
  S  S12  1  0.00000000  0.50000000  0.25000000  1
  S  S13  1  0.50000000  0.00000000  0.25000000  1
  S  S14  1  0.50000000  0.00000000  0.75000000  1
  S  S15  1  0.00000000  0.50000000  0.75000000  1
  O  O16  1  0.61625050  0.88374950  0.17115050  1
  O  O17  1  0.61625050  0.11625050  0.32884950  1
  O  O18  1  0.11625050  0.61625050  0.17115050  1
  O  O19  1  0.38374950  0.88374950  0.32884950  1
  O  O20  1  0.38374950  0.11625050  0.17115050  1
  O  O21  1  0.88374950  0.38374950  0.17115050  1
  O  O22  1  0.11625050  0.38374950  0.32884950  1
  O  O23  1  0.88374950  0.61625050  0.32884950  1
  O  O24  1  0.11625050  0.38374950  0.67115050  1
  O  O25  1  0.11625050  0.61625050  0.82884950  1
  O  O26  1  0.61625050  0.11625050  0.67115050  1
  O  O27  1  0.88374950  0.38374950  0.82884950  1
  O  O28  1  0.88374950  0.61625050  0.67115050  1
  O  O29  1  0.38374950  0.88374950  0.67115050  1
  O  O30  1  0.61625050  0.88374950  0.82884950  1
  O  O31  1  0.38374950  0.11625050  0.82884950  1
  F  F32  1  0.50000000  0.50000000  0.00000000  1
  F  F33  1  0.00000000  0.00000000  0.00000000  1
  F  F34  1  0.00000000  0.00000000  0.50000000  1
  F  F35  1  0.50000000  0.50000000  0.50000000  1
