# generated using pymatgen
data_NaH9O5
_symmetry_space_group_name_H-M   'P 1'
_cell_length_a   6.35649700
_cell_length_b   6.38295200
_cell_length_c   13.04190300
_cell_angle_alpha   90.00000000
_cell_angle_beta   90.00000000
_cell_angle_gamma   90.00000000
_symmetry_Int_Tables_number   1
_chemical_formula_structural   NaH9O5
_chemical_formula_sum   'Na4 H36 O20'
_cell_volume   529.15193755
_cell_formula_units_Z   4
loop_
 _symmetry_equiv_pos_site_id
 _symmetry_equiv_pos_as_xyz
  1  'x, y, z'
loop_
 _atom_site_type_symbol
 _atom_site_label
 _atom_site_symmetry_multiplicity
 _atom_site_fract_x
 _atom_site_fract_y
 _atom_site_fract_z
 _atom_site_occupancy
  Na  Na0  1  0.50792200  0.25042400  0.75091900  1
  Na  Na1  1  0.49207800  0.75042400  0.74908100  1
  Na  Na2  1  0.00792200  0.24957600  0.24908100  1
  Na  Na3  1  0.99207800  0.74957600  0.25091900  1
  H  H4  1  0.92601800  0.16717600  0.95231000  1
  H  H5  1  0.07398200  0.66717600  0.54769000  1
  H  H6  1  0.42601800  0.33282400  0.04769000  1
  H  H7  1  0.57398200  0.83282400  0.45231000  1
  H  H8  1  0.42540900  0.98658400  0.93419000  1
  H  H9  1  0.57459100  0.48658400  0.56581000  1
  H  H10  1  0.92540900  0.51341600  0.06581000  1
  H  H11  1  0.07459100  0.01341600  0.43419000  1
  H  H12  1  0.19454200  0.01818400  0.89441700  1
  H  H13  1  0.80545800  0.51818400  0.60558300  1
  H  H14  1  0.69454200  0.48181600  0.10558300  1
  H  H15  1  0.30545800  0.98181600  0.39441700  1
  H  H16  1  0.85605900  0.99231400  0.82644500  1
  H  H17  1  0.14394100  0.49231400  0.67355500  1
  H  H18  1  0.35605900  0.50768600  0.17355500  1
  H  H19  1  0.64394100  0.00768600  0.32644500  1
  H  H20  1  0.86988600  0.00637700  0.70160100  1
  H  H21  1  0.13011400  0.50637700  0.79839900  1
  H  H22  1  0.36988600  0.49362300  0.29839900  1
  H  H23  1  0.63011400  0.99362300  0.20160100  1
  H  H24  1  0.43732900  0.99846900  0.56096500  1
  H  H25  1  0.56267100  0.49846900  0.93903500  1
  H  H26  1  0.93732900  0.50153100  0.43903500  1
  H  H27  1  0.06267100  0.00153100  0.06096500  1
  H  H28  1  0.21097700  0.02058500  0.61045400  1
  H  H29  1  0.78902300  0.52058500  0.88954600  1
  H  H30  1  0.71097700  0.47941500  0.38954600  1
  H  H31  1  0.28902300  0.97941500  0.11045400  1
  H  H32  1  0.94321900  0.22571800  0.55043600  1
  H  H33  1  0.05678100  0.72571800  0.94956400  1
  H  H34  1  0.44321900  0.27428200  0.44956400  1
  H  H35  1  0.55678100  0.77428200  0.05043600  1
  H  H36  1  0.78392100  0.04282700  0.51470200  1
  H  H37  1  0.21607900  0.54282700  0.98529800  1
  H  H38  1  0.28392100  0.45717300  0.48529800  1
  H  H39  1  0.71607900  0.95717300  0.01470200  1
  O  O40  1  0.93386000  0.01449900  0.95236800  1
  O  O41  1  0.06614000  0.51449900  0.54763200  1
  O  O42  1  0.43386000  0.48550100  0.04763200  1
  O  O43  1  0.56614000  0.98550100  0.45236800  1
  O  O44  1  0.34324400  0.01053400  0.87074000  1
  O  O45  1  0.65675600  0.51053400  0.62926000  1
  O  O46  1  0.84324400  0.48946600  0.12926000  1
  O  O47  1  0.15675600  0.98946600  0.37074000  1
  O  O48  1  0.77559300  0.98773700  0.76021500  1
  O  O49  1  0.22440700  0.48773700  0.73978500  1
  O  O50  1  0.27559300  0.51226300  0.23978500  1
  O  O51  1  0.72440700  0.01226300  0.26021500  1
  O  O52  1  0.35919400  0.00392500  0.62873900  1
  O  O53  1  0.64080600  0.50392500  0.87126100  1
  O  O54  1  0.85919400  0.49607500  0.37126100  1
  O  O55  1  0.14080600  0.99607500  0.12873900  1
  O  O56  1  0.92600300  0.07262300  0.54964500  1
  O  O57  1  0.07399700  0.57262300  0.95035500  1
  O  O58  1  0.42600300  0.42737700  0.45035500  1
  O  O59  1  0.57399700  0.92737700  0.04964500  1
