# generated using pymatgen
data_RbIn3F10
_symmetry_space_group_name_H-M   'P 1'
_cell_length_a   6.94652400
_cell_length_b   7.90996100
_cell_length_c   8.42010600
_cell_angle_alpha   90.00000000
_cell_angle_beta   90.00000000
_cell_angle_gamma   90.00000000
_symmetry_Int_Tables_number   1
_chemical_formula_structural   RbIn3F10
_chemical_formula_sum   'Rb2 In6 F20'
_cell_volume   462.65732401
_cell_formula_units_Z   2
loop_
 _symmetry_equiv_pos_site_id
 _symmetry_equiv_pos_as_xyz
  1  'x, y, z'
loop_
 _atom_site_type_symbol
 _atom_site_label
 _atom_site_symmetry_multiplicity
 _atom_site_fract_x
 _atom_site_fract_y
 _atom_site_fract_z
 _atom_site_occupancy
  Rb  Rb0  1  0.99068100  0.50000000  0.50000000  1
  Rb  Rb1  1  0.00931900  0.50000000  0.00000000  1
  In  In2  1  0.50000000  0.27650500  0.75000000  1
  In  In3  1  0.50000000  0.73543200  0.75000000  1
  In  In4  1  0.50000000  0.72349500  0.25000000  1
  In  In5  1  0.50000000  0.26456800  0.25000000  1
  In  In6  1  0.00000000  0.00500100  0.75000000  1
  In  In7  1  0.00000000  0.99499900  0.25000000  1
  F  F8  1  0.19571900  0.80434500  0.76885100  1
  F  F9  1  0.19412700  0.20767900  0.75941500  1
  F  F10  1  0.97134300  0.00000000  0.00000000  1
  F  F11  1  0.80428100  0.80434500  0.73114900  1
  F  F12  1  0.80428100  0.19565500  0.26885100  1
  F  F13  1  0.50000000  0.00549600  0.75000000  1
  F  F14  1  0.67896100  0.50556100  0.76082500  1
  F  F15  1  0.80587300  0.79232100  0.25941500  1
  F  F16  1  0.49951900  0.27802400  0.50007200  1
  F  F17  1  0.50048100  0.72197600  0.00007200  1
  F  F18  1  0.19412700  0.79232100  0.24058500  1
  F  F19  1  0.49951900  0.72197600  0.49992800  1
  F  F20  1  0.80587300  0.20767900  0.74058500  1
  F  F21  1  0.19571900  0.19565500  0.23114900  1
  F  F22  1  0.32103900  0.50556100  0.73917500  1
  F  F23  1  0.50048100  0.27802400  0.99992800  1
  F  F24  1  0.50000000  0.99450400  0.25000000  1
  F  F25  1  0.67896100  0.49443900  0.23917500  1
  F  F26  1  0.32103900  0.49443900  0.26082500  1
  F  F27  1  0.02865700  0.00000000  0.50000000  1
