# generated using pymatgen
data_KNdPdO3
_symmetry_space_group_name_H-M   'P 1'
_cell_length_a   13.36624200
_cell_length_b   3.97495000
_cell_length_c   7.57404624
_cell_angle_alpha   90.00000000
_cell_angle_beta   104.93051033
_cell_angle_gamma   90.00000000
_symmetry_Int_Tables_number   1
_chemical_formula_structural   KNdPdO3
_chemical_formula_sum   'K4 Nd4 Pd4 O12'
_cell_volume   388.82440226
_cell_formula_units_Z   4
loop_
 _symmetry_equiv_pos_site_id
 _symmetry_equiv_pos_as_xyz
  1  'x, y, z'
loop_
 _atom_site_type_symbol
 _atom_site_label
 _atom_site_symmetry_multiplicity
 _atom_site_fract_x
 _atom_site_fract_y
 _atom_site_fract_z
 _atom_site_occupancy
  K  K0  1  0.85630000  0.50000000  0.43497500  1
  K  K1  1  0.64370000  0.00000000  0.56502500  1
  K  K2  1  0.35630000  0.00000000  0.43497500  1
  K  K3  1  0.14370000  0.50000000  0.56502500  1
  Nd  Nd4  1  0.64950700  0.00000000  0.07850500  1
  Nd  Nd5  1  0.85049300  0.50000000  0.92149500  1
  Nd  Nd6  1  0.14950700  0.50000000  0.07850500  1
  Nd  Nd7  1  0.35049300  0.00000000  0.92149500  1
  Pd  Pd8  1  0.50678100  0.50000000  0.77236600  1
  Pd  Pd9  1  0.99321900  0.00000000  0.22763400  1
  Pd  Pd10  1  0.00678100  0.00000000  0.77236600  1
  Pd  Pd11  1  0.49321900  0.50000000  0.22763400  1
  O  O12  1  0.65239400  0.50000000  0.27817400  1
  O  O13  1  0.50666400  0.00000000  0.81161100  1
  O  O14  1  0.83089500  0.00000000  0.13276600  1
  O  O15  1  0.84760600  0.00000000  0.72182600  1
  O  O16  1  0.66910500  0.50000000  0.86723400  1
  O  O17  1  0.99333600  0.50000000  0.18838900  1
  O  O18  1  0.15239400  0.00000000  0.27817400  1
  O  O19  1  0.00666400  0.50000000  0.81161100  1
  O  O20  1  0.33089500  0.50000000  0.13276600  1
  O  O21  1  0.34760600  0.50000000  0.72182600  1
  O  O22  1  0.16910500  0.00000000  0.86723400  1
  O  O23  1  0.49333600  0.00000000  0.18838900  1
