# generated using pymatgen
data_Ba3(PSe4)2
_symmetry_space_group_name_H-M   'P 1'
_cell_length_a   12.43257000
_cell_length_b   6.99250400
_cell_length_c   18.33855180
_cell_angle_alpha   90.00000000
_cell_angle_beta   90.03165576
_cell_angle_gamma   90.00000000
_symmetry_Int_Tables_number   1
_chemical_formula_structural   Ba3(PSe4)2
_chemical_formula_sum   'Ba12 P8 Se32'
_cell_volume   1594.25800626
_cell_formula_units_Z   4
loop_
 _symmetry_equiv_pos_site_id
 _symmetry_equiv_pos_as_xyz
  1  'x, y, z'
loop_
 _atom_site_type_symbol
 _atom_site_label
 _atom_site_symmetry_multiplicity
 _atom_site_fract_x
 _atom_site_fract_y
 _atom_site_fract_z
 _atom_site_occupancy
  Ba  Ba0  1  0.15011800  0.50727900  0.07748000  1
  Ba  Ba1  1  0.34988200  0.00727900  0.92252000  1
  Ba  Ba2  1  0.67315100  0.98443300  0.57654300  1
  Ba  Ba3  1  0.65011800  0.99272100  0.07748000  1
  Ba  Ba4  1  0.52722300  0.43505500  0.74656000  1
  Ba  Ba5  1  0.84988200  0.49272100  0.92252000  1
  Ba  Ba6  1  0.47277700  0.56494500  0.25344000  1
  Ba  Ba7  1  0.17315100  0.51556700  0.57654300  1
  Ba  Ba8  1  0.32684900  0.01556700  0.42345700  1
  Ba  Ba9  1  0.82684900  0.48443300  0.42345700  1
  Ba  Ba10  1  0.02722300  0.06494500  0.74656000  1
  Ba  Ba11  1  0.97277700  0.93505500  0.25344000  1
  P  P12  1  0.33241500  0.02033900  0.63890100  1
  P  P13  1  0.16603400  0.54391000  0.86065800  1
  P  P14  1  0.83396600  0.45609000  0.13934200  1
  P  P15  1  0.66758500  0.97966100  0.36109900  1
  P  P16  1  0.16758500  0.52033900  0.36109900  1
  P  P17  1  0.66603400  0.95609000  0.86065800  1
  P  P18  1  0.33396600  0.04391000  0.13934200  1
  P  P19  1  0.83241500  0.47966100  0.63890100  1
  Se  Se20  1  0.60516400  0.23001800  0.90912000  1
  Se  Se21  1  0.89483600  0.73001800  0.09088000  1
  Se  Se22  1  0.20039800  0.64272300  0.25140700  1
  Se  Se23  1  0.67455100  0.49093600  0.58067500  1
  Se  Se24  1  0.10179900  0.78157200  0.92913800  1
  Se  Se25  1  0.59157000  0.26435100  0.37793100  1
  Se  Se26  1  0.17455100  0.00906400  0.58067500  1
  Se  Se27  1  0.06569200  0.73355400  0.41955200  1
  Se  Se28  1  0.89820100  0.21842800  0.07086200  1
  Se  Se29  1  0.79960200  0.35727700  0.74859300  1
  Se  Se30  1  0.39483600  0.76998200  0.09088000  1
  Se  Se31  1  0.90943600  0.41733600  0.24875500  1
  Se  Se32  1  0.29960200  0.14272300  0.74859300  1
  Se  Se33  1  0.84405900  0.95536500  0.87637600  1
  Se  Se34  1  0.09157000  0.23564900  0.37793100  1
  Se  Se35  1  0.59056400  0.91733600  0.75124500  1
  Se  Se36  1  0.56569200  0.76644600  0.41955200  1
  Se  Se37  1  0.09056400  0.58266400  0.75124500  1
  Se  Se38  1  0.70039800  0.85727700  0.25140700  1
  Se  Se39  1  0.39820100  0.28157200  0.07086200  1
  Se  Se40  1  0.10516400  0.26998200  0.90912000  1
  Se  Se41  1  0.34405900  0.54463500  0.87637600  1
  Se  Se42  1  0.93430800  0.26644600  0.58044800  1
  Se  Se43  1  0.40943600  0.08266400  0.24875500  1
  Se  Se44  1  0.65594100  0.45536500  0.12362400  1
  Se  Se45  1  0.40843000  0.73564900  0.62206900  1
  Se  Se46  1  0.82544900  0.99093600  0.41932500  1
  Se  Se47  1  0.15594100  0.04463500  0.12362400  1
  Se  Se48  1  0.43430800  0.23355400  0.58044800  1
  Se  Se49  1  0.60179900  0.71842800  0.92913800  1
  Se  Se50  1  0.32544900  0.50906400  0.41932500  1
  Se  Se51  1  0.90843000  0.76435100  0.62206900  1
