# generated using pymatgen
data_Cd(GaO2)2
_symmetry_space_group_name_H-M   'P 1'
_cell_length_a   6.17552206
_cell_length_b   6.17552206
_cell_length_c   30.46183700
_cell_angle_alpha   90.00000000
_cell_angle_beta   90.00000000
_cell_angle_gamma   120.00000000
_symmetry_Int_Tables_number   1
_chemical_formula_structural   Cd(GaO2)2
_chemical_formula_sum   'Cd12 Ga24 O48'
_cell_volume   1006.08361484
_cell_formula_units_Z   12
loop_
 _symmetry_equiv_pos_site_id
 _symmetry_equiv_pos_as_xyz
  1  'x, y, z'
loop_
 _atom_site_type_symbol
 _atom_site_label
 _atom_site_symmetry_multiplicity
 _atom_site_fract_x
 _atom_site_fract_y
 _atom_site_fract_z
 _atom_site_occupancy
  Cd  Cd0  1  0.33333333  0.66666667  0.95689400  1
  Cd  Cd1  1  0.66666667  0.33333333  0.98098900  1
  Cd  Cd2  1  0.66666667  0.33333333  0.78975300  1
  Cd  Cd3  1  0.00000000  0.00000000  0.81071500  1
  Cd  Cd4  1  0.00000000  0.00000000  0.62310000  1
  Cd  Cd5  1  0.00000000  0.00000000  0.49994800  1
  Cd  Cd6  1  0.66666667  0.33333333  0.66878100  1
  Cd  Cd7  1  0.33333333  0.66666667  0.45895100  1
  Cd  Cd8  1  0.66666667  0.33333333  0.29230300  1
  Cd  Cd9  1  0.33333333  0.66666667  0.33319700  1
  Cd  Cd10  1  0.00000000  0.00000000  0.12495200  1
  Cd  Cd11  1  0.66666667  0.33333333  0.16536500  1
  Ga  Ga12  1  0.00000000  0.00000000  0.00198600  1
  Ga  Ga13  1  0.82853233  0.17146767  0.89584200  1
  Ga  Ga14  1  0.34293533  0.17146767  0.89584200  1
  Ga  Ga15  1  0.33333333  0.66666667  0.83692100  1
  Ga  Ga16  1  0.82853233  0.65706467  0.89584200  1
  Ga  Ga17  1  0.16395633  0.83604367  0.72698600  1
  Ga  Ga18  1  0.67208733  0.83604367  0.72698600  1
  Ga  Ga19  1  0.16395633  0.32791267  0.72698600  1
  Ga  Ga20  1  0.50015333  0.49984667  0.56264200  1
  Ga  Ga21  1  0.99969333  0.49984667  0.56264200  1
  Ga  Ga22  1  0.33333333  0.66666667  0.64519800  1
  Ga  Ga23  1  0.50015333  0.00030667  0.56264200  1
  Ga  Ga24  1  0.83320633  0.16679367  0.39605100  1
  Ga  Ga25  1  0.66666667  0.33333333  0.47941300  1
  Ga  Ga26  1  0.33358733  0.16679367  0.39605100  1
  Ga  Ga27  1  0.83320633  0.66641267  0.39605100  1
  Ga  Ga28  1  0.16606333  0.83393667  0.22956100  1
  Ga  Ga29  1  0.00000000  0.00000000  0.31293000  1
  Ga  Ga30  1  0.66787333  0.83393667  0.22956100  1
  Ga  Ga31  1  0.16606333  0.33212667  0.22956100  1
  Ga  Ga32  1  0.49589933  0.50410067  0.06380800  1
  Ga  Ga33  1  0.00820133  0.50410067  0.06380800  1
  Ga  Ga34  1  0.33333333  0.66666667  0.14756100  1
  Ga  Ga35  1  0.49589933  0.99179867  0.06380800  1
  O  O36  1  0.51700683  0.03401367  0.92957700  1
  O  O37  1  0.96598633  0.48299317  0.92957700  1
  O  O38  1  0.66666667  0.33333333  0.86064200  1
  O  O39  1  0.51700683  0.48299317  0.92957700  1
  O  O40  1  0.16180433  0.83819567  0.86080600  1
  O  O41  1  0.84751283  0.69502567  0.75932600  1
  O  O42  1  0.00000000  0.00000000  0.93698500  1
  O  O43  1  0.67639133  0.83819567  0.86080600  1
  O  O44  1  0.30497433  0.15248717  0.75932600  1
  O  O45  1  0.00000000  0.00000000  0.69293400  1
  O  O46  1  0.16180433  0.32360867  0.86080600  1
  O  O47  1  0.84751283  0.15248717  0.75932600  1
  O  O48  1  0.47226533  0.52773467  0.69015000  1
  O  O49  1  0.19122733  0.38245467  0.60038500  1
  O  O50  1  0.33333333  0.66666667  0.77342200  1
  O  O51  1  0.61754533  0.80877267  0.60038500  1
  O  O52  1  0.05546933  0.52773467  0.69015000  1
  O  O53  1  0.33333333  0.66666667  0.52964300  1
  O  O54  1  0.47226533  0.94453067  0.69015000  1
  O  O55  1  0.19122733  0.80877267  0.60038500  1
  O  O56  1  0.80899533  0.19100467  0.52372200  1
  O  O57  1  0.52396783  0.04793567  0.43428900  1
  O  O58  1  0.66666667  0.33333333  0.59587800  1
  O  O59  1  0.95206433  0.47603217  0.43428900  1
  O  O60  1  0.38200933  0.19100467  0.52372200  1
  O  O61  1  0.66666667  0.33333333  0.36325600  1
  O  O62  1  0.80899533  0.61799067  0.52372200  1
  O  O63  1  0.52396783  0.47603217  0.43428900  1
  O  O64  1  0.85737383  0.71474767  0.26781200  1
  O  O65  1  0.14253733  0.85746267  0.35702000  1
  O  O66  1  0.00000000  0.00000000  0.42830700  1
  O  O67  1  0.71492533  0.85746267  0.35702000  1
  O  O68  1  0.28525233  0.14262617  0.26781200  1
  O  O69  1  0.00000000  0.00000000  0.19649600  1
  O  O70  1  0.14253733  0.28507467  0.35702000  1
  O  O71  1  0.85737383  0.14262617  0.26781200  1
  O  O72  1  0.19241683  0.38483367  0.10295900  1
  O  O73  1  0.47702333  0.52297667  0.19074600  1
  O  O74  1  0.33333333  0.66666667  0.26151300  1
  O  O75  1  0.04595333  0.52297667  0.19074600  1
  O  O76  1  0.33333333  0.66666667  0.02985600  1
  O  O77  1  0.61516633  0.80758317  0.10295900  1
  O  O78  1  0.47702333  0.95404667  0.19074600  1
  O  O79  1  0.19241683  0.80758317  0.10295900  1
  O  O80  1  0.83601033  0.16398967  0.02838200  1
  O  O81  1  0.32797933  0.16398967  0.02838200  1
  O  O82  1  0.66666667  0.33333333  0.09192000  1
  O  O83  1  0.83601033  0.67202067  0.02838200  1
