# generated using pymatgen
data_Na4Zr2(GeO4)3
_symmetry_space_group_name_H-M   'P 1'
_cell_length_a   9.60543947
_cell_length_b   9.60543947
_cell_length_c   22.72334091
_cell_angle_alpha   90.00000000
_cell_angle_beta   90.00000000
_cell_angle_gamma   120.00000000
_symmetry_Int_Tables_number   1
_chemical_formula_structural   Na4Zr2(GeO4)3
_chemical_formula_sum   'Na24 Zr12 Ge18 O72'
_cell_volume   1815.67157768
_cell_formula_units_Z   6
loop_
 _symmetry_equiv_pos_site_id
 _symmetry_equiv_pos_as_xyz
  1  'x, y, z'
loop_
 _atom_site_type_symbol
 _atom_site_label
 _atom_site_symmetry_multiplicity
 _atom_site_fract_x
 _atom_site_fract_y
 _atom_site_fract_z
 _atom_site_occupancy
  Na  Na0  1  0.99759567  0.37675933  0.25223233  1
  Na  Na1  1  0.66907100  0.95657400  0.08110100  1
  Na  Na2  1  0.04342600  0.71249700  0.08110100  1
  Na  Na3  1  0.37916367  0.00240433  0.25223233  1
  Na  Na4  1  0.00000000  0.00000000  0.00000000  1
  Na  Na5  1  0.28750300  0.33092900  0.08110100  1
  Na  Na6  1  0.62324067  0.62083633  0.25223233  1
  Na  Na7  1  0.33333333  0.66666667  0.16666667  1
  Na  Na8  1  0.66426233  0.71009267  0.58556567  1
  Na  Na9  1  0.33573767  0.28990733  0.41443433  1
  Na  Na10  1  0.71009267  0.04583033  0.41443433  1
  Na  Na11  1  0.04583033  0.33573767  0.58556567  1
  Na  Na12  1  0.66666667  0.33333333  0.33333333  1
  Na  Na13  1  0.95416967  0.66426233  0.41443433  1
  Na  Na14  1  0.28990733  0.95416967  0.58556567  1
  Na  Na15  1  1.00000000  0.00000000  0.50000000  1
  Na  Na16  1  0.33092900  0.04342600  0.91889900  1
  Na  Na17  1  0.00240433  0.62324067  0.74776767  1
  Na  Na18  1  0.37675933  0.37916367  0.74776767  1
  Na  Na19  1  0.71249700  0.66907100  0.91889900  1
  Na  Na20  1  0.33333333  0.66666667  0.66666667  1
  Na  Na21  1  0.62083633  0.99759567  0.74776767  1
  Na  Na22  1  0.95657400  0.28750300  0.91889900  1
  Na  Na23  1  0.66666667  0.33333333  0.83333333  1
  Zr  Zr24  1  0.33333333  0.66666667  0.81091067  1
  Zr  Zr25  1  0.33333333  0.66666667  0.02221167  1
  Zr  Zr26  1  0.33333333  0.66666667  0.52242267  1
  Zr  Zr27  1  0.33333333  0.66666667  0.31112167  1
  Zr  Zr28  1  0.00000000  0.00000000  0.14424400  1
  Zr  Zr29  1  0.00000000  0.00000000  0.35554500  1
  Zr  Zr30  1  0.00000000  0.00000000  0.85575600  1
  Zr  Zr31  1  0.00000000  0.00000000  0.64445500  1
  Zr  Zr32  1  0.66666667  0.33333333  0.47757733  1
  Zr  Zr33  1  0.66666667  0.33333333  0.68887833  1
  Zr  Zr34  1  0.66666667  0.33333333  0.18908933  1
  Zr  Zr35  1  0.66666667  0.33333333  0.97778833  1
  Ge  Ge36  1  0.70518033  0.00007767  0.24972167  1
  Ge  Ge37  1  0.66674433  0.62823067  0.08361167  1
  Ge  Ge38  1  0.99992233  0.70510267  0.24972167  1
  Ge  Ge39  1  0.96148633  0.33325567  0.08361167  1
  Ge  Ge40  1  0.37176933  0.03851367  0.08361167  1
  Ge  Ge41  1  0.29489733  0.29481967  0.24972167  1
  Ge  Ge42  1  0.37184700  0.33341100  0.58305500  1
  Ge  Ge43  1  0.33341100  0.96156400  0.41694500  1
  Ge  Ge44  1  0.66658900  0.03843600  0.58305500  1
  Ge  Ge45  1  0.62815300  0.66658900  0.41694500  1
  Ge  Ge46  1  0.03843600  0.37184700  0.41694500  1
  Ge  Ge47  1  0.96156400  0.62815300  0.58305500  1
  Ge  Ge48  1  0.03851367  0.66674433  0.91638833  1
  Ge  Ge49  1  0.00007767  0.29489733  0.75027833  1
  Ge  Ge50  1  0.33325567  0.37176933  0.91638833  1
  Ge  Ge51  1  0.29481967  0.99992233  0.75027833  1
  Ge  Ge52  1  0.70510267  0.70518033  0.75027833  1
  Ge  Ge53  1  0.62823067  0.96148633  0.91638833  1
  O  O54  1  0.80487533  0.98782367  0.18643467  1
  O  O55  1  0.18294833  0.19512467  0.18643467  1
  O  O56  1  0.65449033  0.51628167  0.14689867  1
  O  O57  1  0.51554300  0.82259800  0.24850100  1
  O  O58  1  0.48999800  0.31977900  0.25220400  1
  O  O59  1  0.48926467  0.64038833  0.08483233  1
  O  O60  1  0.68022100  0.17021900  0.25220400  1
  O  O61  1  0.13464733  0.48931267  0.35405067  1
  O  O62  1  0.35961167  0.84887633  0.08483233  1
  O  O63  1  0.31200133  0.46798067  0.97928267  1
  O  O64  1  0.17666867  0.01355433  0.08112933  1
  O  O65  1  0.83688567  0.82333133  0.08112933  1
  O  O66  1  0.53201933  0.84402067  0.97928267  1
  O  O67  1  0.48371833  0.13820867  0.14689867  1
  O  O68  1  0.51068733  0.64533467  0.35405067  1
  O  O69  1  0.82978100  0.51000200  0.25220400  1
  O  O70  1  0.98644567  0.16311433  0.08112933  1
  O  O71  1  0.86179133  0.34550967  0.14689867  1
  O  O72  1  0.01217633  0.81705167  0.18643467  1
  O  O73  1  0.15597933  0.68799867  0.97928267  1
  O  O74  1  0.17740200  0.69294500  0.24850100  1
  O  O75  1  0.30705500  0.48445700  0.24850100  1
  O  O76  1  0.35466533  0.86535267  0.35405067  1
  O  O77  1  0.15112367  0.51073533  0.08483233  1
  O  O78  1  0.47154200  0.32115700  0.51976800  1
  O  O79  1  0.84961500  0.52845800  0.51976800  1
  O  O80  1  0.32115700  0.84961500  0.48023200  1
  O  O81  1  0.18220967  0.15593133  0.58183433  1
  O  O82  1  0.15666467  0.65311233  0.58553733  1
  O  O83  1  0.15593133  0.97372167  0.41816567  1
  O  O84  1  0.34688767  0.50355233  0.58553733  1
  O  O85  1  0.80131400  0.82264600  0.68738400  1
  O  O86  1  0.02627833  0.18220967  0.41816567  1
  O  O87  1  0.97866800  0.80131400  0.31261600  1
  O  O88  1  0.84333533  0.34688767  0.41446267  1
  O  O89  1  0.50355233  0.15666467  0.41446267  1
  O  O90  1  0.19868600  0.17735400  0.31261600  1
  O  O91  1  0.15038500  0.47154200  0.48023200  1
  O  O92  1  0.17735400  0.97866800  0.68738400  1
  O  O93  1  0.49644767  0.84333533  0.58553733  1
  O  O94  1  0.65311233  0.49644767  0.41446267  1
  O  O95  1  0.52845800  0.67884300  0.48023200  1
  O  O96  1  0.67884300  0.15038500  0.51976800  1
  O  O97  1  0.82264600  0.02133200  0.31261600  1
  O  O98  1  0.84406867  0.02627833  0.58183433  1
  O  O99  1  0.97372167  0.81779033  0.58183433  1
  O  O100  1  0.02133200  0.19868600  0.68738400  1
  O  O101  1  0.81779033  0.84406867  0.41816567  1
  O  O102  1  0.13820867  0.65449033  0.85310133  1
  O  O103  1  0.51628167  0.86179133  0.85310133  1
  O  O104  1  0.98782367  0.18294833  0.81356533  1
  O  O105  1  0.84887633  0.48926467  0.91516767  1
  O  O106  1  0.82333133  0.98644567  0.91887067  1
  O  O107  1  0.82259800  0.30705500  0.75149900  1
  O  O108  1  0.01355433  0.83688567  0.91887067  1
  O  O109  1  0.46798067  0.15597933  0.02071733  1
  O  O110  1  0.69294500  0.51554300  0.75149900  1
  O  O111  1  0.64533467  0.13464733  0.64594933  1
  O  O112  1  0.51000200  0.68022100  0.74779600  1
  O  O113  1  0.17021900  0.48999800  0.74779600  1
  O  O114  1  0.86535267  0.51068733  0.64594933  1
  O  O115  1  0.81705167  0.80487533  0.81356533  1
  O  O116  1  0.84402067  0.31200133  0.02071733  1
  O  O117  1  0.16311433  0.17666867  0.91887067  1
  O  O118  1  0.31977900  0.82978100  0.74779600  1
  O  O119  1  0.19512467  0.01217633  0.81356533  1
  O  O120  1  0.34550967  0.48371833  0.85310133  1
  O  O121  1  0.48931267  0.35466533  0.64594933  1
  O  O122  1  0.51073533  0.35961167  0.91516767  1
  O  O123  1  0.64038833  0.15112367  0.91516767  1
  O  O124  1  0.68799867  0.53201933  0.02071733  1
  O  O125  1  0.48445700  0.17740200  0.75149900  1
