# generated using pymatgen
data_KLaPdO3
_symmetry_space_group_name_H-M   'P 1'
_cell_length_a   13.53346600
_cell_length_b   4.00962200
_cell_length_c   7.62269946
_cell_angle_alpha   90.00000000
_cell_angle_beta   105.44887766
_cell_angle_gamma   90.00000000
_symmetry_Int_Tables_number   1
_chemical_formula_structural   KLaPdO3
_chemical_formula_sum   'K4 La4 Pd4 O12'
_cell_volume   398.69341182
_cell_formula_units_Z   4
loop_
 _symmetry_equiv_pos_site_id
 _symmetry_equiv_pos_as_xyz
  1  'x, y, z'
loop_
 _atom_site_type_symbol
 _atom_site_label
 _atom_site_symmetry_multiplicity
 _atom_site_fract_x
 _atom_site_fract_y
 _atom_site_fract_z
 _atom_site_occupancy
  K  K0  1  0.85713600  0.50000000  0.43447300  1
  K  K1  1  0.64286400  0.00000000  0.56552700  1
  K  K2  1  0.35713600  0.00000000  0.43447300  1
  K  K3  1  0.14286400  0.50000000  0.56552700  1
  La  La4  1  0.65037200  0.00000000  0.08300200  1
  La  La5  1  0.84962800  0.50000000  0.91699800  1
  La  La6  1  0.15037200  0.50000000  0.08300200  1
  La  La7  1  0.34962800  0.00000000  0.91699800  1
  Pd  Pd8  1  0.50692500  0.50000000  0.77151200  1
  Pd  Pd9  1  0.99307500  0.00000000  0.22848800  1
  Pd  Pd10  1  0.00692500  0.00000000  0.77151200  1
  Pd  Pd11  1  0.49307500  0.50000000  0.22848800  1
  O  O12  1  0.84864300  0.00000000  0.71642900  1
  O  O13  1  0.83229000  0.00000000  0.13583100  1
  O  O14  1  0.50706800  0.00000000  0.81057600  1
  O  O15  1  0.66771000  0.50000000  0.86416900  1
  O  O16  1  0.99293200  0.50000000  0.18942400  1
  O  O17  1  0.65135700  0.50000000  0.28357100  1
  O  O18  1  0.34864300  0.50000000  0.71642900  1
  O  O19  1  0.33229000  0.50000000  0.13583100  1
  O  O20  1  0.00706800  0.50000000  0.81057600  1
  O  O21  1  0.16771000  0.00000000  0.86416900  1
  O  O22  1  0.49293200  0.00000000  0.18942400  1
  O  O23  1  0.15135700  0.00000000  0.28357100  1
