# generated using pymatgen
data_NaMg4(PO4)3
_symmetry_space_group_name_H-M   'P 1'
_cell_length_a   6.39378700
_cell_length_b   9.92278800
_cell_length_c   15.52961300
_cell_angle_alpha   90.00000000
_cell_angle_beta   90.00000000
_cell_angle_gamma   90.00000000
_symmetry_Int_Tables_number   1
_chemical_formula_structural   NaMg4(PO4)3
_chemical_formula_sum   'Na4 Mg16 P12 O48'
_cell_volume   985.26376312
_cell_formula_units_Z   4
loop_
 _symmetry_equiv_pos_site_id
 _symmetry_equiv_pos_as_xyz
  1  'x, y, z'
loop_
 _atom_site_type_symbol
 _atom_site_label
 _atom_site_symmetry_multiplicity
 _atom_site_fract_x
 _atom_site_fract_y
 _atom_site_fract_z
 _atom_site_occupancy
  Na  Na0  1  0.25000000  0.24954200  0.21338900  1
  Na  Na1  1  0.75000000  0.25045800  0.71338900  1
  Na  Na2  1  0.75000000  0.75045800  0.78661100  1
  Na  Na3  1  0.25000000  0.74954200  0.28661100  1
  Mg  Mg4  1  0.49929300  0.24711800  0.94505800  1
  Mg  Mg5  1  0.50070700  0.25288200  0.44505800  1
  Mg  Mg6  1  0.00070700  0.74711800  0.55494200  1
  Mg  Mg7  1  0.25000000  0.04516400  0.62997800  1
  Mg  Mg8  1  0.75000000  0.06632100  0.12836700  1
  Mg  Mg9  1  0.25000000  0.43367900  0.62836700  1
  Mg  Mg10  1  0.25000000  0.54516400  0.87002200  1
  Mg  Mg11  1  0.00070700  0.24711800  0.94505800  1
  Mg  Mg12  1  0.99929300  0.25288200  0.44505800  1
  Mg  Mg13  1  0.99929300  0.75288200  0.05494200  1
  Mg  Mg14  1  0.75000000  0.95483600  0.37002200  1
  Mg  Mg15  1  0.75000000  0.56632100  0.37163300  1
  Mg  Mg16  1  0.75000000  0.45483600  0.12997800  1
  Mg  Mg17  1  0.25000000  0.93367900  0.87163300  1
  Mg  Mg18  1  0.50070700  0.75288200  0.05494200  1
  Mg  Mg19  1  0.49929300  0.74711800  0.55494200  1
  P  P20  1  0.75000000  0.79486600  0.22738700  1
  P  P21  1  0.25000000  0.70513400  0.72738700  1
  P  P22  1  0.75000000  0.45611200  0.55636500  1
  P  P23  1  0.75000000  0.29486600  0.27261300  1
  P  P24  1  0.25000000  0.47088000  0.06150100  1
  P  P25  1  0.25000000  0.97088000  0.43849900  1
  P  P26  1  0.25000000  0.04388800  0.05636500  1
  P  P27  1  0.25000000  0.20513400  0.77261300  1
  P  P28  1  0.25000000  0.54388800  0.44363500  1
  P  P29  1  0.75000000  0.95611200  0.94363500  1
  P  P30  1  0.75000000  0.52912000  0.93849900  1
  P  P31  1  0.75000000  0.02912000  0.56150100  1
  O  O32  1  0.55501100  0.06256800  0.61303600  1
  O  O33  1  0.55023000  0.24352400  0.31884200  1
  O  O34  1  0.25000000  0.38668200  0.45466900  1
  O  O35  1  0.75000000  0.89514300  0.03873900  1
  O  O36  1  0.55023000  0.74352400  0.18115800  1
  O  O37  1  0.75000000  0.25247800  0.17680700  1
  O  O38  1  0.94582500  0.40425000  0.60147800  1
  O  O39  1  0.75000000  0.61331800  0.54533100  1
  O  O40  1  0.25000000  0.38544700  0.97404500  1
  O  O41  1  0.25000000  0.88668200  0.04533100  1
  O  O42  1  0.75000000  0.75247800  0.32319300  1
  O  O43  1  0.25000000  0.60485700  0.53873900  1
  O  O44  1  0.55501100  0.56256800  0.88696400  1
  O  O45  1  0.25000000  0.12339900  0.46832300  1
  O  O46  1  0.05023000  0.25647600  0.81884200  1
  O  O47  1  0.94977000  0.74352400  0.18115800  1
  O  O48  1  0.55417500  0.40425000  0.60147800  1
  O  O49  1  0.55417500  0.90425000  0.89852200  1
  O  O50  1  0.25000000  0.04737500  0.76617400  1
  O  O51  1  0.05417500  0.59575000  0.39852200  1
  O  O52  1  0.94582500  0.90425000  0.89852200  1
  O  O53  1  0.44977000  0.75647600  0.68115800  1
  O  O54  1  0.75000000  0.87660100  0.53167700  1
  O  O55  1  0.44582500  0.09575000  0.10147800  1
  O  O56  1  0.75000000  0.37660100  0.96832300  1
  O  O57  1  0.05023000  0.75647600  0.68115800  1
  O  O58  1  0.05501100  0.93743200  0.38696400  1
  O  O59  1  0.25000000  0.74752200  0.82319300  1
  O  O60  1  0.25000000  0.88544700  0.52595500  1
  O  O61  1  0.25000000  0.24752200  0.67680700  1
  O  O62  1  0.44977000  0.25647600  0.81884200  1
  O  O63  1  0.44498900  0.43743200  0.11303600  1
  O  O64  1  0.05501100  0.43743200  0.11303600  1
  O  O65  1  0.25000000  0.54737500  0.73382600  1
  O  O66  1  0.05417500  0.09575000  0.10147800  1
  O  O67  1  0.44498900  0.93743200  0.38696400  1
  O  O68  1  0.75000000  0.11455300  0.47404500  1
  O  O69  1  0.75000000  0.45262500  0.26617400  1
  O  O70  1  0.94977000  0.24352400  0.31884200  1
  O  O71  1  0.75000000  0.11331800  0.95466900  1
  O  O72  1  0.75000000  0.95262500  0.23382600  1
  O  O73  1  0.25000000  0.62339900  0.03167700  1
  O  O74  1  0.44582500  0.59575000  0.39852200  1
  O  O75  1  0.94498900  0.56256800  0.88696400  1
  O  O76  1  0.75000000  0.61455300  0.02595500  1
  O  O77  1  0.94498900  0.06256800  0.61303600  1
  O  O78  1  0.75000000  0.39514300  0.46126100  1
  O  O79  1  0.25000000  0.10485700  0.96126100  1
