# generated using pymatgen
data_In3SnI5
_symmetry_space_group_name_H-M   'P 1'
_cell_length_a   9.09115900
_cell_length_b   9.05888000
_cell_length_c   17.77693977
_cell_angle_alpha   90.00000000
_cell_angle_beta   99.48453572
_cell_angle_gamma   90.00000000
_symmetry_Int_Tables_number   1
_chemical_formula_structural   In3SnI5
_chemical_formula_sum   'In12 Sn4 I20'
_cell_volume   1444.01948462
_cell_formula_units_Z   4
loop_
 _symmetry_equiv_pos_site_id
 _symmetry_equiv_pos_as_xyz
  1  'x, y, z'
loop_
 _atom_site_type_symbol
 _atom_site_label
 _atom_site_symmetry_multiplicity
 _atom_site_fract_x
 _atom_site_fract_y
 _atom_site_fract_z
 _atom_site_occupancy
  In  In0  1  0.61484900  0.67832800  0.25032400  1
  In  In1  1  0.61484900  0.82167200  0.75032400  1
  In  In2  1  0.11014100  0.89604200  0.25074700  1
  In  In3  1  0.88985900  0.39604200  0.24925300  1
  In  In4  1  0.38515100  0.17832800  0.24967600  1
  In  In5  1  0.22011500  0.95448600  0.52780600  1
  In  In6  1  0.77988500  0.04551400  0.47219400  1
  In  In7  1  0.11014100  0.60395800  0.75074700  1
  In  In8  1  0.77988500  0.45448600  0.97219400  1
  In  In9  1  0.88985900  0.10395800  0.74925300  1
  In  In10  1  0.38515100  0.32167200  0.74967600  1
  In  In11  1  0.22011500  0.54551400  0.02780600  1
  Sn  Sn12  1  0.29627300  0.96334100  0.91409500  1
  Sn  Sn13  1  0.70372700  0.46334100  0.58590500  1
  Sn  Sn14  1  0.70372700  0.03665900  0.08590500  1
  Sn  Sn15  1  0.29627300  0.53665900  0.41409500  1
  I  I16  1  0.61470200  0.12214800  0.89627200  1
  I  I17  1  0.61470200  0.37785200  0.39627200  1
  I  I18  1  0.25154600  0.96264500  0.73872400  1
  I  I19  1  0.45452600  0.85089800  0.39736800  1
  I  I20  1  0.00624500  0.29038500  0.60624600  1
  I  I21  1  0.13179500  0.22186300  0.38672500  1
  I  I22  1  0.99375500  0.70961500  0.39375400  1
  I  I23  1  0.00624500  0.20961500  0.10624600  1
  I  I24  1  0.25154600  0.53735500  0.23872400  1
  I  I25  1  0.86820500  0.72186300  0.11327500  1
  I  I26  1  0.38529800  0.62214800  0.60372800  1
  I  I27  1  0.54547400  0.14910200  0.60263200  1
  I  I28  1  0.86820500  0.77813700  0.61327500  1
  I  I29  1  0.99375500  0.79038500  0.89375400  1
  I  I30  1  0.74845400  0.03735500  0.26127600  1
  I  I31  1  0.74845400  0.46264500  0.76127600  1
  I  I32  1  0.38529800  0.87785200  0.10372800  1
  I  I33  1  0.13179500  0.27813700  0.88672500  1
  I  I34  1  0.54547400  0.35089800  0.10263200  1
  I  I35  1  0.45452600  0.64910200  0.89736800  1
