# generated using pymatgen
data_SrP3
_symmetry_space_group_name_H-M   'P 1'
_cell_length_a   11.50433200
_cell_length_b   7.44937200
_cell_length_c   8.63415321
_cell_angle_alpha   90.00000000
_cell_angle_beta   103.44231232
_cell_angle_gamma   90.00000000
_symmetry_Int_Tables_number   1
_chemical_formula_structural   SrP3
_chemical_formula_sum   'Sr8 P24'
_cell_volume   719.67609999
_cell_formula_units_Z   8
loop_
 _symmetry_equiv_pos_site_id
 _symmetry_equiv_pos_as_xyz
  1  'x, y, z'
loop_
 _atom_site_type_symbol
 _atom_site_label
 _atom_site_symmetry_multiplicity
 _atom_site_fract_x
 _atom_site_fract_y
 _atom_site_fract_z
 _atom_site_occupancy
  Sr  Sr0  1  0.04151900  0.00000000  0.74168800  1
  Sr  Sr1  1  0.70707000  0.00000000  0.77498800  1
  Sr  Sr2  1  0.29293000  0.00000000  0.22501200  1
  Sr  Sr3  1  0.95848100  0.00000000  0.25831200  1
  Sr  Sr4  1  0.54151900  0.50000000  0.74168800  1
  Sr  Sr5  1  0.20707000  0.50000000  0.77498800  1
  Sr  Sr6  1  0.79293000  0.50000000  0.22501200  1
  Sr  Sr7  1  0.45848100  0.50000000  0.25831200  1
  P  P8  1  0.59815600  0.76298900  0.02450500  1
  P  P9  1  0.34923900  0.74624200  0.51247000  1
  P  P10  1  0.32642400  0.00000000  0.83720200  1
  P  P11  1  0.65076100  0.74624200  0.48753000  1
  P  P12  1  0.41732800  0.00000000  0.63230400  1
  P  P13  1  0.67357600  0.00000000  0.16279800  1
  P  P14  1  0.34923900  0.25375800  0.51247000  1
  P  P15  1  0.58267200  0.00000000  0.36769600  1
  P  P16  1  0.40184400  0.23701100  0.97549500  1
  P  P17  1  0.65076100  0.25375800  0.48753000  1
  P  P18  1  0.59815600  0.23701100  0.02450500  1
  P  P19  1  0.40184400  0.76298900  0.97549500  1
  P  P20  1  0.09815600  0.26298900  0.02450500  1
  P  P21  1  0.84923900  0.24624200  0.51247000  1
  P  P22  1  0.82642400  0.50000000  0.83720200  1
  P  P23  1  0.15076100  0.24624200  0.48753000  1
  P  P24  1  0.91732800  0.50000000  0.63230400  1
  P  P25  1  0.17357600  0.50000000  0.16279800  1
  P  P26  1  0.84923900  0.75375800  0.51247000  1
  P  P27  1  0.08267200  0.50000000  0.36769600  1
  P  P28  1  0.90184400  0.73701100  0.97549500  1
  P  P29  1  0.15076100  0.75375800  0.48753000  1
  P  P30  1  0.09815600  0.73701100  0.02450500  1
  P  P31  1  0.90184400  0.26298900  0.97549500  1
