# generated using pymatgen
data_PrZr3F15
_symmetry_space_group_name_H-M   'P 1'
_cell_length_a   8.34546800
_cell_length_b   8.34849207
_cell_length_c   16.68934319
_cell_angle_alpha   100.36127336
_cell_angle_beta   100.04760521
_cell_angle_gamma   100.07904071
_symmetry_Int_Tables_number   1
_chemical_formula_structural   PrZr3F15
_chemical_formula_sum   'Pr4 Zr12 F60'
_cell_volume   1100.41353917
_cell_formula_units_Z   4
loop_
 _symmetry_equiv_pos_site_id
 _symmetry_equiv_pos_as_xyz
  1  'x, y, z'
loop_
 _atom_site_type_symbol
 _atom_site_label
 _atom_site_symmetry_multiplicity
 _atom_site_fract_x
 _atom_site_fract_y
 _atom_site_fract_z
 _atom_site_occupancy
  Pr  Pr0  1  0.82129500  0.67430300  0.12515500  1
  Pr  Pr1  1  0.32234400  0.75079900  0.58825000  1
  Pr  Pr2  1  0.67765600  0.24920100  0.41175000  1
  Pr  Pr3  1  0.17870500  0.32569700  0.87484500  1
  Zr  Zr4  1  0.32460500  0.75921300  0.08784400  1
  Zr  Zr5  1  0.25246800  0.82056800  0.33574400  1
  Zr  Zr6  1  0.75222700  0.75052700  0.37809900  1
  Zr  Zr7  1  0.25081400  0.82664200  0.84168900  1
  Zr  Zr8  1  0.82400100  0.67970300  0.62878900  1
  Zr  Zr9  1  0.74905300  0.74700200  0.87349000  1
  Zr  Zr10  1  0.25094700  0.25299800  0.12651000  1
  Zr  Zr11  1  0.17599900  0.32029700  0.37121100  1
  Zr  Zr12  1  0.74918600  0.17335800  0.15831100  1
  Zr  Zr13  1  0.24777300  0.24947300  0.62190100  1
  Zr  Zr14  1  0.74753200  0.17943200  0.66425600  1
  Zr  Zr15  1  0.67539500  0.24078700  0.91215600  1
  F  F16  1  0.53555600  0.96528400  0.11777700  1
  F  F17  1  0.84781500  0.96764000  0.16076300  1
  F  F18  1  0.78491800  0.00047300  0.39055200  1
  F  F19  1  0.34709200  0.80826300  0.21870000  1
  F  F20  1  0.05127600  0.75835400  0.23887200  1
  F  F21  1  0.55061800  0.97928600  0.63746600  1
  F  F22  1  0.07208800  0.69338500  0.07582000  1
  F  F23  1  0.31081000  0.85190300  0.46258100  1
  F  F24  1  0.84475400  0.94434500  0.65629500  1
  F  F25  1  0.76821900  0.00203400  0.88588700  1
  F  F26  1  0.53197800  0.65732000  0.09302600  1
  F  F27  1  0.71962100  0.72551700  0.25261100  1
  F  F28  1  0.49495100  0.72611300  0.36015500  1
  F  F29  1  0.34352600  0.82570300  0.73670100  1
  F  F30  1  0.03231100  0.74637800  0.73205800  1
  F  F31  1  0.03239600  0.68359600  0.57874700  1
  F  F32  1  0.77165600  0.77542100  0.50400600  1
  F  F33  1  0.00399600  0.77525700  0.38728800  1
  F  F34  1  0.31176400  0.85208600  0.97340300  1
  F  F35  1  0.19083500  0.55424900  0.32510500  1
  F  F36  1  0.27332200  0.50084200  0.13941200  1
  F  F37  1  0.57044000  0.65022200  0.59592300  1
  F  F38  1  0.72790000  0.72589400  0.74686800  1
  F  F39  1  0.49730900  0.72591700  0.86392300  1
  F  F40  1  0.74362600  0.44541600  0.01129500  1
  F  F41  1  0.24315100  0.52335000  0.47285300  1
  F  F42  1  0.77870900  0.78259500  0.99850500  1
  F  F43  1  0.00368700  0.77789600  0.88715000  1
  F  F44  1  0.72470500  0.49937400  0.35946000  1
  F  F45  1  0.81345800  0.42624300  0.17578500  1
  F  F46  1  0.18654200  0.57375700  0.82421500  1
  F  F47  1  0.27529500  0.50062600  0.64054000  1
  F  F48  1  0.99631300  0.22210400  0.11285000  1
  F  F49  1  0.22129100  0.21740500  0.00149500  1
  F  F50  1  0.75684900  0.47665000  0.52714700  1
  F  F51  1  0.25637400  0.55458400  0.98870500  1
  F  F52  1  0.50269100  0.27408300  0.13607700  1
  F  F53  1  0.27210000  0.27410600  0.25313200  1
  F  F54  1  0.42956000  0.34977800  0.40407700  1
  F  F55  1  0.72667800  0.49915800  0.86058800  1
  F  F56  1  0.80916500  0.44575100  0.67489500  1
  F  F57  1  0.68823600  0.14791400  0.02659700  1
  F  F58  1  0.99600400  0.22474300  0.61271200  1
  F  F59  1  0.22834400  0.22457900  0.49599400  1
  F  F60  1  0.96760400  0.31640400  0.42125300  1
  F  F61  1  0.96768900  0.25362200  0.26794200  1
  F  F62  1  0.65647400  0.17429700  0.26329900  1
  F  F63  1  0.50504900  0.27388700  0.63984500  1
  F  F64  1  0.28037900  0.27448300  0.74738900  1
  F  F65  1  0.46802200  0.34268000  0.90697400  1
  F  F66  1  0.23178100  0.99796600  0.11411300  1
  F  F67  1  0.15524600  0.05565500  0.34370500  1
  F  F68  1  0.68919000  0.14809700  0.53741900  1
  F  F69  1  0.92791200  0.30661500  0.92418000  1
  F  F70  1  0.44938200  0.02071400  0.36253400  1
  F  F71  1  0.94872400  0.24164600  0.76112800  1
  F  F72  1  0.65290800  0.19173700  0.78130000  1
  F  F73  1  0.21508200  0.99952700  0.60944800  1
  F  F74  1  0.15218500  0.03236000  0.83923700  1
  F  F75  1  0.46444400  0.03471600  0.88222300  1
