# generated using pymatgen
data_AlAs(H2O3)2
_symmetry_space_group_name_H-M   'P 1'
_cell_length_a   8.89890100
_cell_length_b   9.88089500
_cell_length_c   10.26400100
_cell_angle_alpha   90.00000000
_cell_angle_beta   90.00000000
_cell_angle_gamma   90.00000000
_symmetry_Int_Tables_number   1
_chemical_formula_structural   AlAs(H2O3)2
_chemical_formula_sum   'Al8 As8 H32 O48'
_cell_volume   902.50443598
_cell_formula_units_Z   8
loop_
 _symmetry_equiv_pos_site_id
 _symmetry_equiv_pos_as_xyz
  1  'x, y, z'
loop_
 _atom_site_type_symbol
 _atom_site_label
 _atom_site_symmetry_multiplicity
 _atom_site_fract_x
 _atom_site_fract_y
 _atom_site_fract_z
 _atom_site_occupancy
  Al  Al0  1  0.14782800  0.18220700  0.12718700  1
  Al  Al1  1  0.64782800  0.31779300  0.87281300  1
  Al  Al2  1  0.85217200  0.68220700  0.37281300  1
  Al  Al3  1  0.35217200  0.81779300  0.62718700  1
  Al  Al4  1  0.85217200  0.81779300  0.87281300  1
  Al  Al5  1  0.35217200  0.68220700  0.12718700  1
  Al  Al6  1  0.14782800  0.31779300  0.62718700  1
  Al  Al7  1  0.64782800  0.18220700  0.37281300  1
  As  As8  1  0.03485400  0.86288200  0.15019000  1
  As  As9  1  0.53485400  0.63711800  0.84981000  1
  As  As10  1  0.96514600  0.36288200  0.34981000  1
  As  As11  1  0.46514600  0.13711800  0.65019000  1
  As  As12  1  0.96514600  0.13711800  0.84981000  1
  As  As13  1  0.46514600  0.36288200  0.15019000  1
  As  As14  1  0.03485400  0.63711800  0.65019000  1
  As  As15  1  0.53485400  0.86288200  0.34981000  1
  H  H16  1  0.18266200  0.17988200  0.36850000  1
  H  H17  1  0.68266200  0.32011800  0.63150000  1
  H  H18  1  0.81733800  0.67988200  0.13150000  1
  H  H19  1  0.31733800  0.82011800  0.86850000  1
  H  H20  1  0.81733800  0.82011800  0.63150000  1
  H  H21  1  0.31733800  0.67988200  0.36850000  1
  H  H22  1  0.18266200  0.32011800  0.86850000  1
  H  H23  1  0.68266200  0.17988200  0.13150000  1
  H  H24  1  0.33297800  0.10359600  0.31017700  1
  H  H25  1  0.83297800  0.39640400  0.68982300  1
  H  H26  1  0.66702200  0.60359600  0.18982300  1
  H  H27  1  0.16702200  0.89640400  0.81017700  1
  H  H28  1  0.66702200  0.89640400  0.68982300  1
  H  H29  1  0.16702200  0.60359600  0.31017700  1
  H  H30  1  0.33297800  0.39640400  0.81017700  1
  H  H31  1  0.83297800  0.10359600  0.18982300  1
  H  H32  1  0.35759400  0.09468900  0.97343300  1
  H  H33  1  0.85759400  0.40531100  0.02656700  1
  H  H34  1  0.64240600  0.59468900  0.52656700  1
  H  H35  1  0.14240600  0.90531100  0.47343300  1
  H  H36  1  0.64240600  0.90531100  0.02656700  1
  H  H37  1  0.14240600  0.59468900  0.97343300  1
  H  H38  1  0.35759400  0.40531100  0.47343300  1
  H  H39  1  0.85759400  0.09468900  0.52656700  1
  H  H40  1  0.29246200  0.97067100  0.06563900  1
  H  H41  1  0.79246200  0.52932900  0.93436100  1
  H  H42  1  0.70753800  0.47067100  0.43436100  1
  H  H43  1  0.20753800  0.02932900  0.56563900  1
  H  H44  1  0.70753800  0.02932900  0.93436100  1
  H  H45  1  0.20753800  0.47067100  0.06563900  1
  H  H46  1  0.29246200  0.52932900  0.56563900  1
  H  H47  1  0.79246200  0.97067100  0.43436100  1
  O  O48  1  0.00661200  0.03479100  0.14080600  1
  O  O49  1  0.50661200  0.46520900  0.85919400  1
  O  O50  1  0.99338800  0.53479100  0.35919400  1
  O  O51  1  0.49338800  0.96520900  0.64080600  1
  O  O52  1  0.99338800  0.96520900  0.85919400  1
  O  O53  1  0.49338800  0.53479100  0.14080600  1
  O  O54  1  0.00661200  0.46520900  0.64080600  1
  O  O55  1  0.50661200  0.03479100  0.35919400  1
  O  O56  1  0.99956900  0.80062900  0.30254900  1
  O  O57  1  0.49956900  0.69937100  0.69745100  1
  O  O58  1  0.00043100  0.30062900  0.19745100  1
  O  O59  1  0.50043100  0.19937100  0.80254900  1
  O  O60  1  0.00043100  0.19937100  0.69745100  1
  O  O61  1  0.50043100  0.30062900  0.30254900  1
  O  O62  1  0.99956900  0.69937100  0.80254900  1
  O  O63  1  0.49956900  0.80062900  0.19745100  1
  O  O64  1  0.21983700  0.83391700  0.10901500  1
  O  O65  1  0.71983700  0.66608300  0.89098500  1
  O  O66  1  0.78016300  0.33391700  0.39098500  1
  O  O67  1  0.28016300  0.16608300  0.60901500  1
  O  O68  1  0.78016300  0.16608300  0.89098500  1
  O  O69  1  0.28016300  0.33391700  0.10901500  1
  O  O70  1  0.21983700  0.66608300  0.60901500  1
  O  O71  1  0.71983700  0.83391700  0.39098500  1
  O  O72  1  0.91596700  0.77919600  0.04451000  1
  O  O73  1  0.41596700  0.72080400  0.95549000  1
  O  O74  1  0.08403300  0.27919600  0.45549000  1
  O  O75  1  0.58403300  0.22080400  0.54451000  1
  O  O76  1  0.08403300  0.22080400  0.95549000  1
  O  O77  1  0.58403300  0.27919600  0.04451000  1
  O  O78  1  0.91596700  0.72080400  0.54451000  1
  O  O79  1  0.41596700  0.77919600  0.45549000  1
  O  O80  1  0.22505800  0.12493700  0.29387400  1
  O  O81  1  0.72505800  0.37506300  0.70612600  1
  O  O82  1  0.77494200  0.62493700  0.20612600  1
  O  O83  1  0.27494200  0.87506300  0.79387400  1
  O  O84  1  0.77494200  0.87506300  0.70612600  1
  O  O85  1  0.27494200  0.62493700  0.29387400  1
  O  O86  1  0.22505800  0.37506300  0.79387400  1
  O  O87  1  0.72505800  0.12493700  0.20612600  1
  O  O88  1  0.31308300  0.07166300  0.05767300  1
  O  O89  1  0.81308300  0.42833700  0.94232700  1
  O  O90  1  0.68691700  0.57166300  0.44232700  1
  O  O91  1  0.18691700  0.92833700  0.55767300  1
  O  O92  1  0.68691700  0.92833700  0.94232700  1
  O  O93  1  0.18691700  0.57166300  0.05767300  1
  O  O94  1  0.31308300  0.42833700  0.55767300  1
  O  O95  1  0.81308300  0.07166300  0.44232700  1
