# generated using pymatgen
data_H5CSN2Cl
_symmetry_space_group_name_H-M   'P 1'
_cell_length_a   7.62573300
_cell_length_b   7.62573300
_cell_length_c   18.81543700
_cell_angle_alpha   90.00000000
_cell_angle_beta   90.00000000
_cell_angle_gamma   90.00000000
_symmetry_Int_Tables_number   1
_chemical_formula_structural   H5CSN2Cl
_chemical_formula_sum   'H40 C8 S8 N16 Cl8'
_cell_volume   1094.15160060
_cell_formula_units_Z   8
loop_
 _symmetry_equiv_pos_site_id
 _symmetry_equiv_pos_as_xyz
  1  'x, y, z'
loop_
 _atom_site_type_symbol
 _atom_site_label
 _atom_site_symmetry_multiplicity
 _atom_site_fract_x
 _atom_site_fract_y
 _atom_site_fract_z
 _atom_site_occupancy
  H  H0  1  0.39867300  0.81914900  0.20096700  1
  H  H1  1  0.36101200  0.63567800  0.64047400  1
  H  H2  1  0.22745300  0.49815000  0.21638000  1
  H  H3  1  0.80561100  0.77009200  0.29268900  1
  H  H4  1  0.27009200  0.69438900  0.04268900  1
  H  H5  1  0.18085100  0.60132700  0.29903300  1
  H  H6  1  0.77254700  0.50185000  0.71638000  1
  H  H7  1  0.43458200  0.68182200  0.53361200  1
  H  H8  1  0.99815000  0.27254700  0.96638000  1
  H  H9  1  0.30561100  0.72990800  0.45731100  1
  H  H10  1  0.72990800  0.30561100  0.54268900  1
  H  H11  1  0.89867300  0.68085100  0.54903300  1
  H  H12  1  0.68085100  0.89867300  0.45096700  1
  H  H13  1  0.69438900  0.27009200  0.95731100  1
  H  H14  1  0.06541800  0.18182200  0.71638800  1
  H  H15  1  0.93458200  0.81817800  0.21638800  1
  H  H16  1  0.72745300  0.00185000  0.53362000  1
  H  H17  1  0.31914900  0.10132700  0.95096700  1
  H  H18  1  0.77009200  0.80561100  0.70731100  1
  H  H19  1  0.27254700  0.99815000  0.03362000  1
  H  H20  1  0.63567800  0.36101200  0.35952600  1
  H  H21  1  0.81914900  0.39867300  0.79903300  1
  H  H22  1  0.00185000  0.72745300  0.46638000  1
  H  H23  1  0.10132700  0.31914900  0.04903300  1
  H  H24  1  0.13567800  0.13898800  0.39047400  1
  H  H25  1  0.81817800  0.93458200  0.78361200  1
  H  H26  1  0.50185000  0.77254700  0.28362000  1
  H  H27  1  0.36432200  0.63898800  0.85952600  1
  H  H28  1  0.56541800  0.31817800  0.03361200  1
  H  H29  1  0.68182200  0.43458200  0.46638800  1
  H  H30  1  0.22990800  0.19438900  0.20731100  1
  H  H31  1  0.31817800  0.56541800  0.96638800  1
  H  H32  1  0.60132700  0.18085100  0.70096700  1
  H  H33  1  0.86432200  0.86101200  0.89047400  1
  H  H34  1  0.86101200  0.86432200  0.10952600  1
  H  H35  1  0.13898800  0.13567800  0.60952600  1
  H  H36  1  0.19438900  0.22990800  0.79268900  1
  H  H37  1  0.18182200  0.06541800  0.28361200  1
  H  H38  1  0.49815000  0.22745300  0.78362000  1
  H  H39  1  0.63898800  0.36432200  0.14047400  1
  C  C40  1  0.33096600  0.17886400  0.70171700  1
  C  C41  1  0.82113600  0.66903400  0.79828300  1
  C  C42  1  0.16903400  0.67886400  0.54828300  1
  C  C43  1  0.83096600  0.32113600  0.04828300  1
  C  C44  1  0.32113600  0.83096600  0.95171700  1
  C  C45  1  0.66903400  0.82113600  0.20171700  1
  C  C46  1  0.67886400  0.16903400  0.45171700  1
  C  C47  1  0.17886400  0.33096600  0.29828300  1
  S  S48  1  0.13109900  0.31936300  0.38885300  1
  S  S49  1  0.68063700  0.86890100  0.11114700  1
  S  S50  1  0.81936300  0.36890100  0.13885300  1
  S  S51  1  0.18063700  0.63109900  0.63885300  1
  S  S52  1  0.31936300  0.13109900  0.61114700  1
  S  S53  1  0.86890100  0.68063700  0.88885300  1
  S  S54  1  0.36890100  0.81936300  0.86114700  1
  S  S55  1  0.63109900  0.18063700  0.36114700  1
  N  N56  1  0.48888900  0.19535600  0.73078800  1
  N  N57  1  0.19732400  0.18612500  0.26020600  1
  N  N58  1  0.18612500  0.19732400  0.73979400  1
  N  N59  1  0.81387500  0.80267600  0.23979400  1
  N  N60  1  0.80464400  0.51111100  0.76921200  1
  N  N61  1  0.30267600  0.68612500  0.98979400  1
  N  N62  1  0.01111100  0.69535600  0.51921200  1
  N  N63  1  0.80267600  0.81387500  0.76020600  1
  N  N64  1  0.69732400  0.31387500  0.48979400  1
  N  N65  1  0.19535600  0.48888900  0.26921200  1
  N  N66  1  0.68612500  0.30267600  0.01020600  1
  N  N67  1  0.31387500  0.69732400  0.51020600  1
  N  N68  1  0.98888900  0.30464400  0.01921200  1
  N  N69  1  0.69535600  0.01111100  0.48078800  1
  N  N70  1  0.30464400  0.98888900  0.98078800  1
  N  N71  1  0.51111100  0.80464400  0.23078800  1
  Cl  Cl72  1  0.84626300  0.14487200  0.63740400  1
  Cl  Cl73  1  0.15373700  0.85512800  0.13740400  1
  Cl  Cl74  1  0.65373700  0.64487200  0.61259600  1
  Cl  Cl75  1  0.34626300  0.35512800  0.11259600  1
  Cl  Cl76  1  0.35512800  0.34626300  0.88740400  1
  Cl  Cl77  1  0.14487200  0.84626300  0.36259600  1
  Cl  Cl78  1  0.64487200  0.65373700  0.38740400  1
  Cl  Cl79  1  0.85512800  0.15373700  0.86259600  1
