# generated using pymatgen
data_LiBi(PO3)4
_symmetry_space_group_name_H-M   'P 1'
_cell_length_a   16.57310000
_cell_length_b   7.17399800
_cell_length_c   9.84648767
_cell_angle_alpha   90.00000000
_cell_angle_beta   125.99968181
_cell_angle_gamma   90.00000000
_symmetry_Int_Tables_number   1
_chemical_formula_structural   LiBi(PO3)4
_chemical_formula_sum   'Li4 Bi4 P16 O48'
_cell_volume   947.12159806
_cell_formula_units_Z   4
loop_
 _symmetry_equiv_pos_site_id
 _symmetry_equiv_pos_as_xyz
  1  'x, y, z'
loop_
 _atom_site_type_symbol
 _atom_site_label
 _atom_site_symmetry_multiplicity
 _atom_site_fract_x
 _atom_site_fract_y
 _atom_site_fract_z
 _atom_site_occupancy
  Li  Li0  1  0.00000000  0.29746800  0.75000000  1
  Li  Li1  1  0.00000000  0.70253200  0.25000000  1
  Li  Li2  1  0.50000000  0.79746800  0.75000000  1
  Li  Li3  1  0.50000000  0.20253200  0.25000000  1
  Bi  Bi4  1  0.00000000  0.80337400  0.75000000  1
  Bi  Bi5  1  0.00000000  0.19662600  0.25000000  1
  Bi  Bi6  1  0.50000000  0.30337400  0.75000000  1
  Bi  Bi7  1  0.50000000  0.69662600  0.25000000  1
  P  P8  1  0.64623900  0.34910300  0.19343500  1
  P  P9  1  0.63918900  0.94689100  0.11688000  1
  P  P10  1  0.86081100  0.44689100  0.38312000  1
  P  P11  1  0.85376100  0.84910300  0.30656500  1
  P  P12  1  0.14623900  0.15089700  0.69343500  1
  P  P13  1  0.13918900  0.55310900  0.61688000  1
  P  P14  1  0.36081100  0.05310900  0.88312000  1
  P  P15  1  0.35376100  0.65089700  0.80656500  1
  P  P16  1  0.14623900  0.84910300  0.19343500  1
  P  P17  1  0.13918900  0.44689100  0.11688000  1
  P  P18  1  0.36081100  0.94689100  0.38312000  1
  P  P19  1  0.35376100  0.34910300  0.30656500  1
  P  P20  1  0.64623900  0.65089700  0.69343500  1
  P  P21  1  0.63918900  0.05310900  0.61688000  1
  P  P22  1  0.86081100  0.55310900  0.88312000  1
  P  P23  1  0.85376100  0.15089700  0.80656500  1
  O  O24  1  0.61832350  0.78612850  0.18945700  1
  O  O25  1  0.65639200  0.12714000  0.22825500  1
  O  O26  1  0.62928050  0.39074850  0.02904500  1
  O  O27  1  0.75304750  0.42174050  0.34818100  1
  O  O28  1  0.92930000  0.09019800  0.77659000  1
  O  O29  1  0.74695250  0.92174050  0.15181900  1
  O  O30  1  0.87071950  0.89074850  0.47095500  1
  O  O31  1  0.93239550  0.48812150  0.56813300  1
  O  O32  1  0.06760450  0.48812150  0.93186700  1
  O  O33  1  0.84360800  0.62714000  0.27174500  1
  O  O34  1  0.88167650  0.28612850  0.31054300  1
  O  O35  1  0.07070000  0.09019800  0.72341000  1
  O  O36  1  0.92930000  0.90980200  0.27659000  1
  O  O37  1  0.11832350  0.71387150  0.68945700  1
  O  O38  1  0.15639200  0.37286000  0.72825500  1
  O  O39  1  0.93239550  0.51187850  0.06813300  1
  O  O40  1  0.06760450  0.51187850  0.43186700  1
  O  O41  1  0.12928050  0.10925150  0.52904500  1
  O  O42  1  0.25304750  0.07825950  0.84818100  1
  O  O43  1  0.07070000  0.90980200  0.22341000  1
  O  O44  1  0.24695250  0.57825950  0.65181900  1
  O  O45  1  0.37071950  0.60925150  0.97095500  1
  O  O46  1  0.34360800  0.87286000  0.77174500  1
  O  O47  1  0.38167650  0.21387150  0.81054300  1
  O  O48  1  0.11832350  0.28612850  0.18945700  1
  O  O49  1  0.15639200  0.62714000  0.22825500  1
  O  O50  1  0.12928050  0.89074850  0.02904500  1
  O  O51  1  0.25304750  0.92174050  0.34818100  1
  O  O52  1  0.42930000  0.59019800  0.77659000  1
  O  O53  1  0.24695250  0.42174050  0.15181900  1
  O  O54  1  0.37071950  0.39074850  0.47095500  1
  O  O55  1  0.43239550  0.98812150  0.56813300  1
  O  O56  1  0.56760450  0.98812150  0.93186700  1
  O  O57  1  0.34360800  0.12714000  0.27174500  1
  O  O58  1  0.38167650  0.78612850  0.31054300  1
  O  O59  1  0.57070000  0.59019800  0.72341000  1
  O  O60  1  0.42930000  0.40980200  0.27659000  1
  O  O61  1  0.61832350  0.21387150  0.68945700  1
  O  O62  1  0.65639200  0.87286000  0.72825500  1
  O  O63  1  0.43239550  0.01187850  0.06813300  1
  O  O64  1  0.56760450  0.01187850  0.43186700  1
  O  O65  1  0.62928050  0.60925150  0.52904500  1
  O  O66  1  0.75304750  0.57825950  0.84818100  1
  O  O67  1  0.57070000  0.40980200  0.22341000  1
  O  O68  1  0.74695250  0.07825950  0.65181900  1
  O  O69  1  0.87071950  0.10925150  0.97095500  1
  O  O70  1  0.84360800  0.37286000  0.77174500  1
  O  O71  1  0.88167650  0.71387150  0.81054300  1
