# generated using pymatgen
data_KNaSO4
_symmetry_space_group_name_H-M   'P 1'
_cell_length_a   5.69608448
_cell_length_b   5.69608448
_cell_length_c   7.28459000
_cell_angle_alpha   90.00000000
_cell_angle_beta   90.00000000
_cell_angle_gamma   120.00000000
_symmetry_Int_Tables_number   1
_chemical_formula_structural   KNaSO4
_chemical_formula_sum   'K2 Na2 S2 O8'
_cell_volume   204.68621186
_cell_formula_units_Z   2
loop_
 _symmetry_equiv_pos_site_id
 _symmetry_equiv_pos_as_xyz
  1  'x, y, z'
loop_
 _atom_site_type_symbol
 _atom_site_label
 _atom_site_symmetry_multiplicity
 _atom_site_fract_x
 _atom_site_fract_y
 _atom_site_fract_z
 _atom_site_occupancy
  K  K0  1  0.33333333  0.66666667  0.32777500  1
  K  K1  1  0.00000000  0.00000000  0.00292700  1
  Na  Na2  1  0.00000000  0.00000000  0.50291600  1
  Na  Na3  1  0.66666667  0.33333333  0.70289800  1
  S  S4  1  0.33333333  0.66666667  0.77122200  1
  S  S5  1  0.66666667  0.33333333  0.23272700  1
  O  O6  1  0.19068233  0.80931767  0.69874600  1
  O  O7  1  0.80905833  0.19094167  0.30462600  1
  O  O8  1  0.33333333  0.66666667  0.97291100  1
  O  O9  1  0.80905833  0.61811667  0.30462600  1
  O  O10  1  0.19068233  0.38136467  0.69874600  1
  O  O11  1  0.66666667  0.33333333  0.02950800  1
  O  O12  1  0.38188333  0.19094167  0.30462600  1
  O  O13  1  0.61863533  0.80931767  0.69874600  1
