# generated using pymatgen
data_TiAs2O7
_symmetry_space_group_name_H-M   'P 1'
_cell_length_a   7.01700800
_cell_length_b   8.10544400
_cell_length_c   9.58269959
_cell_angle_alpha   90.00000000
_cell_angle_beta   104.01547454
_cell_angle_gamma   90.00000000
_symmetry_Int_Tables_number   1
_chemical_formula_structural   TiAs2O7
_chemical_formula_sum   'Ti4 As8 O28'
_cell_volume   528.80007941
_cell_formula_units_Z   4
loop_
 _symmetry_equiv_pos_site_id
 _symmetry_equiv_pos_as_xyz
  1  'x, y, z'
loop_
 _atom_site_type_symbol
 _atom_site_label
 _atom_site_symmetry_multiplicity
 _atom_site_fract_x
 _atom_site_fract_y
 _atom_site_fract_z
 _atom_site_occupancy
  Ti  Ti0  1  0.00000000  0.00000000  0.00000000  1
  Ti  Ti1  1  0.00000000  0.00000000  0.50000000  1
  Ti  Ti2  1  0.50000000  0.50000000  0.00000000  1
  Ti  Ti3  1  0.50000000  0.50000000  0.50000000  1
  As  As4  1  0.30531150  0.13378650  0.80173000  1
  As  As5  1  0.30531150  0.86621350  0.30173000  1
  As  As6  1  0.69468850  0.13378650  0.69827000  1
  As  As7  1  0.69468850  0.86621350  0.19827000  1
  As  As8  1  0.80531150  0.63378650  0.80173000  1
  As  As9  1  0.80531150  0.36621350  0.30173000  1
  As  As10  1  0.19468850  0.63378650  0.69827000  1
  As  As11  1  0.19468850  0.36621350  0.19827000  1
  O  O12  1  0.39473600  0.31901400  0.87087400  1
  O  O13  1  0.75946150  0.99211950  0.07622400  1
  O  O14  1  0.62867350  0.33966350  0.14581700  1
  O  O15  1  0.37132650  0.33966350  0.35418300  1
  O  O16  1  0.50000000  0.02747200  0.75000000  1
  O  O17  1  0.39473600  0.68098600  0.37087400  1
  O  O18  1  0.75946150  0.00788050  0.57622400  1
  O  O19  1  0.24053850  0.99211950  0.42377600  1
  O  O20  1  0.24053850  0.00788050  0.92377600  1
  O  O21  1  0.37132650  0.66033650  0.85418300  1
  O  O22  1  0.60526400  0.68098600  0.12912600  1
  O  O23  1  0.62867350  0.66033650  0.64581700  1
  O  O24  1  0.60526400  0.31901400  0.62912600  1
  O  O25  1  0.50000000  0.97252800  0.25000000  1
  O  O26  1  0.89473600  0.81901400  0.87087400  1
  O  O27  1  0.25946150  0.49211950  0.07622400  1
  O  O28  1  0.12867350  0.83966350  0.14581700  1
  O  O29  1  0.87132650  0.83966350  0.35418300  1
  O  O30  1  0.00000000  0.52747200  0.75000000  1
  O  O31  1  0.89473600  0.18098600  0.37087400  1
  O  O32  1  0.25946150  0.50788050  0.57622400  1
  O  O33  1  0.74053850  0.49211950  0.42377600  1
  O  O34  1  0.74053850  0.50788050  0.92377600  1
  O  O35  1  0.87132650  0.16033650  0.85418300  1
  O  O36  1  0.10526400  0.18098600  0.12912600  1
  O  O37  1  0.12867350  0.16033650  0.64581700  1
  O  O38  1  0.10526400  0.81901400  0.62912600  1
  O  O39  1  0.00000000  0.47252800  0.25000000  1
