# generated using pymatgen
data_K4Mn3F12
_symmetry_space_group_name_H-M   'P 1'
_cell_length_a   8.50562200
_cell_length_b   8.50562200
_cell_length_c   16.75591400
_cell_angle_alpha   90.00000000
_cell_angle_beta   90.00000000
_cell_angle_gamma   90.00000000
_symmetry_Int_Tables_number   1
_chemical_formula_structural   K4Mn3F12
_chemical_formula_sum   'K16 Mn12 F48'
_cell_volume   1212.21674583
_cell_formula_units_Z   4
loop_
 _symmetry_equiv_pos_site_id
 _symmetry_equiv_pos_as_xyz
  1  'x, y, z'
loop_
 _atom_site_type_symbol
 _atom_site_label
 _atom_site_symmetry_multiplicity
 _atom_site_fract_x
 _atom_site_fract_y
 _atom_site_fract_z
 _atom_site_occupancy
  K  K0  1  0.27877100  0.75000000  0.12500000  1
  K  K1  1  0.25000000  0.77877100  0.37500000  1
  K  K2  1  0.75000000  0.22122900  0.37500000  1
  K  K3  1  0.72122900  0.25000000  0.12500000  1
  K  K4  1  0.72122900  0.75000000  0.12500000  1
  K  K5  1  0.25000000  0.22122900  0.37500000  1
  K  K6  1  0.27877100  0.25000000  0.12500000  1
  K  K7  1  0.75000000  0.77877100  0.37500000  1
  K  K8  1  0.77877100  0.25000000  0.62500000  1
  K  K9  1  0.75000000  0.27877100  0.87500000  1
  K  K10  1  0.25000000  0.72122900  0.87500000  1
  K  K11  1  0.22122900  0.75000000  0.62500000  1
  K  K12  1  0.22122900  0.25000000  0.62500000  1
  K  K13  1  0.75000000  0.72122900  0.87500000  1
  K  K14  1  0.77877100  0.75000000  0.62500000  1
  K  K15  1  0.25000000  0.27877100  0.87500000  1
  Mn  Mn16  1  0.00000000  0.50000000  0.25000000  1
  Mn  Mn17  1  0.00000000  0.00000000  0.00000000  1
  Mn  Mn18  1  0.00000000  0.00000000  0.24272600  1
  Mn  Mn19  1  0.00000000  0.50000000  0.49272600  1
  Mn  Mn20  1  0.00000000  0.50000000  0.00727400  1
  Mn  Mn21  1  0.50000000  0.50000000  0.25727400  1
  Mn  Mn22  1  0.50000000  0.00000000  0.75000000  1
  Mn  Mn23  1  0.50000000  0.50000000  0.50000000  1
  Mn  Mn24  1  0.50000000  0.50000000  0.74272600  1
  Mn  Mn25  1  0.50000000  0.00000000  0.99272600  1
  Mn  Mn26  1  0.50000000  0.00000000  0.50727400  1
  Mn  Mn27  1  0.00000000  0.00000000  0.75727400  1
  F  F28  1  0.50000000  0.50000000  0.14388900  1
  F  F29  1  0.50000000  0.00000000  0.39388900  1
  F  F30  1  0.50000000  0.00000000  0.10611100  1
  F  F31  1  0.00000000  0.00000000  0.35611100  1
  F  F32  1  0.50000000  0.50000000  0.37302200  1
  F  F33  1  0.00000000  0.50000000  0.12302200  1
  F  F34  1  0.00000000  0.50000000  0.37697800  1
  F  F35  1  0.00000000  0.00000000  0.12697800  1
  F  F36  1  0.50000000  0.27991650  0.25826750  1
  F  F37  1  0.77991650  0.00000000  0.24173250  1
  F  F38  1  0.22008350  0.00000000  0.24173250  1
  F  F39  1  0.00000000  0.72008350  0.49173250  1
  F  F40  1  0.00000000  0.27991650  0.49173250  1
  F  F41  1  0.22008350  0.50000000  0.00826750  1
  F  F42  1  0.00000000  0.74765200  0.24523000  1
  F  F43  1  0.25234800  0.50000000  0.49523000  1
  F  F44  1  0.74765200  0.50000000  0.49523000  1
  F  F45  1  0.00000000  0.75234800  0.00477000  1
  F  F46  1  0.00000000  0.24765200  0.00477000  1
  F  F47  1  0.24765200  0.50000000  0.25477000  1
  F  F48  1  0.75234800  0.50000000  0.25477000  1
  F  F49  1  0.00000000  0.25234800  0.24523000  1
  F  F50  1  0.50000000  0.72008350  0.25826750  1
  F  F51  1  0.77991650  0.50000000  0.00826750  1
  F  F52  1  0.00000000  0.00000000  0.64388900  1
  F  F53  1  0.00000000  0.50000000  0.89388900  1
  F  F54  1  0.00000000  0.50000000  0.60611100  1
  F  F55  1  0.50000000  0.50000000  0.85611100  1
  F  F56  1  0.00000000  0.00000000  0.87302200  1
  F  F57  1  0.50000000  0.00000000  0.62302200  1
  F  F58  1  0.50000000  0.00000000  0.87697800  1
  F  F59  1  0.50000000  0.50000000  0.62697800  1
  F  F60  1  0.00000000  0.77991650  0.75826750  1
  F  F61  1  0.27991650  0.50000000  0.74173250  1
  F  F62  1  0.72008350  0.50000000  0.74173250  1
  F  F63  1  0.50000000  0.22008350  0.99173250  1
  F  F64  1  0.50000000  0.77991650  0.99173250  1
  F  F65  1  0.72008350  0.00000000  0.50826750  1
  F  F66  1  0.50000000  0.24765200  0.74523000  1
  F  F67  1  0.75234800  0.00000000  0.99523000  1
  F  F68  1  0.24765200  0.00000000  0.99523000  1
  F  F69  1  0.50000000  0.25234800  0.50477000  1
  F  F70  1  0.50000000  0.74765200  0.50477000  1
  F  F71  1  0.74765200  0.00000000  0.75477000  1
  F  F72  1  0.25234800  0.00000000  0.75477000  1
  F  F73  1  0.50000000  0.75234800  0.74523000  1
  F  F74  1  0.00000000  0.22008350  0.75826750  1
  F  F75  1  0.27991650  0.00000000  0.50826750  1
