# generated using pymatgen
data_Gd3Sb5O12
_symmetry_space_group_name_H-M   'P 1'
_cell_length_a   10.99857000
_cell_length_b   10.99857000
_cell_length_c   10.99857000
_cell_angle_alpha   90.00000000
_cell_angle_beta   90.00000000
_cell_angle_gamma   90.00000000
_symmetry_Int_Tables_number   1
_chemical_formula_structural   Gd3Sb5O12
_chemical_formula_sum   'Gd12 Sb20 O48'
_cell_volume   1330.48097748
_cell_formula_units_Z   4
loop_
 _symmetry_equiv_pos_site_id
 _symmetry_equiv_pos_as_xyz
  1  'x, y, z'
loop_
 _atom_site_type_symbol
 _atom_site_label
 _atom_site_symmetry_multiplicity
 _atom_site_fract_x
 _atom_site_fract_y
 _atom_site_fract_z
 _atom_site_occupancy
  Gd  Gd0  1  0.50000000  0.25000000  0.00000000  1
  Gd  Gd1  1  0.25000000  0.00000000  0.50000000  1
  Gd  Gd2  1  0.25000000  0.50000000  0.00000000  1
  Gd  Gd3  1  0.00000000  0.50000000  0.25000000  1
  Gd  Gd4  1  0.50000000  0.00000000  0.25000000  1
  Gd  Gd5  1  0.00000000  0.25000000  0.50000000  1
  Gd  Gd6  1  0.00000000  0.75000000  0.50000000  1
  Gd  Gd7  1  0.75000000  0.50000000  0.00000000  1
  Gd  Gd8  1  0.75000000  0.00000000  0.50000000  1
  Gd  Gd9  1  0.50000000  0.00000000  0.75000000  1
  Gd  Gd10  1  0.00000000  0.50000000  0.75000000  1
  Gd  Gd11  1  0.50000000  0.75000000  0.00000000  1
  Sb  Sb12  1  0.00000000  0.00000000  0.71749700  1
  Sb  Sb13  1  0.00000000  0.00000000  0.28250300  1
  Sb  Sb14  1  0.00000000  0.71749700  0.00000000  1
  Sb  Sb15  1  0.00000000  0.28250300  0.00000000  1
  Sb  Sb16  1  0.28250300  0.00000000  0.00000000  1
  Sb  Sb17  1  0.71749700  0.00000000  0.00000000  1
  Sb  Sb18  1  0.24475200  0.24475200  0.75524800  1
  Sb  Sb19  1  0.75524800  0.24475200  0.24475200  1
  Sb  Sb20  1  0.24475200  0.75524800  0.24475200  1
  Sb  Sb21  1  0.25524800  0.25524800  0.25524800  1
  Sb  Sb22  1  0.50000000  0.50000000  0.21749700  1
  Sb  Sb23  1  0.50000000  0.50000000  0.78250300  1
  Sb  Sb24  1  0.50000000  0.21749700  0.50000000  1
  Sb  Sb25  1  0.50000000  0.78250300  0.50000000  1
  Sb  Sb26  1  0.78250300  0.50000000  0.50000000  1
  Sb  Sb27  1  0.21749700  0.50000000  0.50000000  1
  Sb  Sb28  1  0.74475200  0.74475200  0.25524800  1
  Sb  Sb29  1  0.25524800  0.74475200  0.74475200  1
  Sb  Sb30  1  0.74475200  0.25524800  0.74475200  1
  Sb  Sb31  1  0.75524800  0.75524800  0.75524800  1
  O  O32  1  0.10025950  0.39485450  0.89974050  1
  O  O33  1  0.60514550  0.10025950  0.10025950  1
  O  O34  1  0.39485450  0.89974050  0.10025950  1
  O  O35  1  0.39974050  0.39974050  0.10514550  1
  O  O36  1  0.89974050  0.10025950  0.39485450  1
  O  O37  1  0.10025950  0.60514550  0.10025950  1
  O  O38  1  0.39974050  0.10514550  0.39974050  1
  O  O39  1  0.10025950  0.89974050  0.39485450  1
  O  O40  1  0.10514550  0.39974050  0.39974050  1
  O  O41  1  0.39485450  0.10025950  0.89974050  1
  O  O42  1  0.10025950  0.10025950  0.60514550  1
  O  O43  1  0.89974050  0.39485450  0.10025950  1
  O  O44  1  0.86195350  0.66221250  0.13804650  1
  O  O45  1  0.83778750  0.36195350  0.36195350  1
  O  O46  1  0.66221250  0.13804650  0.86195350  1
  O  O47  1  0.13804650  0.13804650  0.33778750  1
  O  O48  1  0.13804650  0.86195350  0.66221250  1
  O  O49  1  0.36195350  0.83778750  0.36195350  1
  O  O50  1  0.13804650  0.33778750  0.13804650  1
  O  O51  1  0.86195350  0.13804650  0.66221250  1
  O  O52  1  0.33778750  0.13804650  0.13804650  1
  O  O53  1  0.66221250  0.86195350  0.13804650  1
  O  O54  1  0.36195350  0.36195350  0.83778750  1
  O  O55  1  0.13804650  0.66221250  0.86195350  1
  O  O56  1  0.60025950  0.89485450  0.39974050  1
  O  O57  1  0.10514550  0.60025950  0.60025950  1
  O  O58  1  0.89485450  0.39974050  0.60025950  1
  O  O59  1  0.89974050  0.89974050  0.60514550  1
  O  O60  1  0.39974050  0.60025950  0.89485450  1
  O  O61  1  0.60025950  0.10514550  0.60025950  1
  O  O62  1  0.89974050  0.60514550  0.89974050  1
  O  O63  1  0.60025950  0.39974050  0.89485450  1
  O  O64  1  0.60514550  0.89974050  0.89974050  1
  O  O65  1  0.89485450  0.60025950  0.39974050  1
  O  O66  1  0.60025950  0.60025950  0.10514550  1
  O  O67  1  0.39974050  0.89485450  0.60025950  1
  O  O68  1  0.36195350  0.16221250  0.63804650  1
  O  O69  1  0.33778750  0.86195350  0.86195350  1
  O  O70  1  0.16221250  0.63804650  0.36195350  1
  O  O71  1  0.63804650  0.63804650  0.83778750  1
  O  O72  1  0.63804650  0.36195350  0.16221250  1
  O  O73  1  0.86195350  0.33778750  0.86195350  1
  O  O74  1  0.63804650  0.83778750  0.63804650  1
  O  O75  1  0.36195350  0.63804650  0.16221250  1
  O  O76  1  0.83778750  0.63804650  0.63804650  1
  O  O77  1  0.16221250  0.36195350  0.63804650  1
  O  O78  1  0.86195350  0.86195350  0.33778750  1
  O  O79  1  0.63804650  0.16221250  0.36195350  1
