# generated using pymatgen
data_YClO
_symmetry_space_group_name_H-M   'P 1'
_cell_length_a   3.82730573
_cell_length_b   3.82730573
_cell_length_c   28.76155707
_cell_angle_alpha   90.00000000
_cell_angle_beta   90.00000000
_cell_angle_gamma   120.00000000
_symmetry_Int_Tables_number   1
_chemical_formula_structural   YClO
_chemical_formula_sum   'Y6 Cl6 O6'
_cell_volume   364.86258934
_cell_formula_units_Z   6
loop_
 _symmetry_equiv_pos_site_id
 _symmetry_equiv_pos_as_xyz
  1  'x, y, z'
loop_
 _atom_site_type_symbol
 _atom_site_label
 _atom_site_symmetry_multiplicity
 _atom_site_fract_x
 _atom_site_fract_y
 _atom_site_fract_z
 _atom_site_occupancy
  Y  Y0  1  0.66666667  0.33333333  0.05011433  1
  Y  Y1  1  0.00000000  0.00000000  0.28321900  1
  Y  Y2  1  0.33333333  0.66666667  0.38344767  1
  Y  Y3  1  0.66666667  0.33333333  0.61655233  1
  Y  Y4  1  0.00000000  0.00000000  0.71678100  1
  Y  Y5  1  0.33333333  0.66666667  0.94988567  1
  Cl  Cl6  1  0.66666667  0.33333333  0.22265933  1
  Cl  Cl7  1  0.00000000  0.00000000  0.11067400  1
  Cl  Cl8  1  0.33333333  0.66666667  0.55599267  1
  Cl  Cl9  1  0.66666667  0.33333333  0.44400733  1
  Cl  Cl10  1  0.00000000  0.00000000  0.88932600  1
  Cl  Cl11  1  0.33333333  0.66666667  0.77734067  1
  O  O12  1  0.33333333  0.66666667  0.02981067  1
  O  O13  1  0.33333333  0.66666667  0.30352267  1
  O  O14  1  0.00000000  0.00000000  0.36314400  1
  O  O15  1  0.00000000  0.00000000  0.63685600  1
  O  O16  1  0.66666667  0.33333333  0.69647733  1
  O  O17  1  0.66666667  0.33333333  0.97018933  1
