# generated using pymatgen
data_Mg2BiPO6
_symmetry_space_group_name_H-M   'P 1'
_cell_length_a   7.90117200
_cell_length_b   12.10437600
_cell_length_c   5.33654700
_cell_angle_alpha   90.00000000
_cell_angle_beta   90.00000000
_cell_angle_gamma   90.00000000
_symmetry_Int_Tables_number   1
_chemical_formula_structural   Mg2BiPO6
_chemical_formula_sum   'Mg8 Bi4 P4 O24'
_cell_volume   510.38072030
_cell_formula_units_Z   4
loop_
 _symmetry_equiv_pos_site_id
 _symmetry_equiv_pos_as_xyz
  1  'x, y, z'
loop_
 _atom_site_type_symbol
 _atom_site_label
 _atom_site_symmetry_multiplicity
 _atom_site_fract_x
 _atom_site_fract_y
 _atom_site_fract_z
 _atom_site_occupancy
  Mg  Mg0  1  0.19614900  0.09728200  0.25000000  1
  Mg  Mg1  1  0.80385100  0.09728200  0.25000000  1
  Mg  Mg2  1  0.80385100  0.90271800  0.75000000  1
  Mg  Mg3  1  0.19614900  0.90271800  0.75000000  1
  Mg  Mg4  1  0.69614900  0.59728200  0.25000000  1
  Mg  Mg5  1  0.30385100  0.59728200  0.25000000  1
  Mg  Mg6  1  0.30385100  0.40271800  0.75000000  1
  Mg  Mg7  1  0.69614900  0.40271800  0.75000000  1
  Bi  Bi8  1  0.50000000  0.09627100  0.75000000  1
  Bi  Bi9  1  0.50000000  0.90372900  0.25000000  1
  Bi  Bi10  1  0.00000000  0.59627100  0.75000000  1
  Bi  Bi11  1  0.00000000  0.40372900  0.25000000  1
  P  P12  1  0.50000000  0.30215300  0.25000000  1
  P  P13  1  0.50000000  0.69784700  0.75000000  1
  P  P14  1  0.00000000  0.80215300  0.25000000  1
  P  P15  1  0.00000000  0.19784700  0.75000000  1
  O  O16  1  0.67231400  0.00000000  0.00000000  1
  O  O17  1  0.50000000  0.62404550  0.50772300  1
  O  O18  1  0.33837950  0.23158150  0.25000000  1
  O  O19  1  0.66162050  0.76841850  0.75000000  1
  O  O20  1  0.67231400  0.00000000  0.50000000  1
  O  O21  1  0.66162050  0.23158150  0.25000000  1
  O  O22  1  0.32768600  0.00000000  0.00000000  1
  O  O23  1  0.32768600  0.00000000  0.50000000  1
  O  O24  1  0.50000000  0.37595450  0.00772300  1
  O  O25  1  0.33837950  0.76841850  0.75000000  1
  O  O26  1  0.50000000  0.62404550  0.99227700  1
  O  O27  1  0.50000000  0.37595450  0.49227700  1
  O  O28  1  0.17231400  0.50000000  0.00000000  1
  O  O29  1  0.00000000  0.12404550  0.50772300  1
  O  O30  1  0.83837950  0.73158150  0.25000000  1
  O  O31  1  0.16162050  0.26841850  0.75000000  1
  O  O32  1  0.17231400  0.50000000  0.50000000  1
  O  O33  1  0.16162050  0.73158150  0.25000000  1
  O  O34  1  0.82768600  0.50000000  0.00000000  1
  O  O35  1  0.82768600  0.50000000  0.50000000  1
  O  O36  1  0.00000000  0.87595450  0.00772300  1
  O  O37  1  0.83837950  0.26841850  0.75000000  1
  O  O38  1  0.00000000  0.12404550  0.99227700  1
  O  O39  1  0.00000000  0.87595450  0.49227700  1
