# generated using pymatgen
data_ZrNCl
_symmetry_space_group_name_H-M   'P 1'
_cell_length_a   3.64583014
_cell_length_b   3.64583014
_cell_length_c   28.99854955
_cell_angle_alpha   90.00000000
_cell_angle_beta   90.00000000
_cell_angle_gamma   120.00000000
_symmetry_Int_Tables_number   1
_chemical_formula_structural   ZrNCl
_chemical_formula_sum   'Zr6 N6 Cl6'
_cell_volume   333.81032707
_cell_formula_units_Z   6
loop_
 _symmetry_equiv_pos_site_id
 _symmetry_equiv_pos_as_xyz
  1  'x, y, z'
loop_
 _atom_site_type_symbol
 _atom_site_label
 _atom_site_symmetry_multiplicity
 _atom_site_fract_x
 _atom_site_fract_y
 _atom_site_fract_z
 _atom_site_occupancy
  Zr  Zr0  1  0.00000000  0.00000000  0.21213000  1
  Zr  Zr1  1  0.66666667  0.33333333  0.12120333  1
  Zr  Zr2  1  0.66666667  0.33333333  0.54546333  1
  Zr  Zr3  1  0.33333333  0.66666667  0.45453667  1
  Zr  Zr4  1  0.33333333  0.66666667  0.87879667  1
  Zr  Zr5  1  0.00000000  0.00000000  0.78787000  1
  N  N6  1  0.00000000  0.00000000  0.13674900  1
  N  N7  1  0.66666667  0.33333333  0.19658433  1
  N  N8  1  0.66666667  0.33333333  0.47008233  1
  N  N9  1  0.33333333  0.66666667  0.52991767  1
  N  N10  1  0.33333333  0.66666667  0.80341567  1
  N  N11  1  0.00000000  0.00000000  0.86325100  1
  Cl  Cl12  1  0.33333333  0.66666667  0.27474467  1
  Cl  Cl13  1  0.33333333  0.66666667  0.05858867  1
  Cl  Cl14  1  0.00000000  0.00000000  0.60807800  1
  Cl  Cl15  1  0.00000000  0.00000000  0.39192200  1
  Cl  Cl16  1  0.66666667  0.33333333  0.94141133  1
  Cl  Cl17  1  0.66666667  0.33333333  0.72525533  1
