# generated using pymatgen
data_KMo3Br7
_symmetry_space_group_name_H-M   'P 1'
_cell_length_a   14.12848200
_cell_length_b   14.35291600
_cell_length_c   14.39333700
_cell_angle_alpha   90.00000000
_cell_angle_beta   90.00000000
_cell_angle_gamma   90.00000000
_symmetry_Int_Tables_number   1
_chemical_formula_structural   KMo3Br7
_chemical_formula_sum   'K8 Mo24 Br56'
_cell_volume   2918.75162520
_cell_formula_units_Z   8
loop_
 _symmetry_equiv_pos_site_id
 _symmetry_equiv_pos_as_xyz
  1  'x, y, z'
loop_
 _atom_site_type_symbol
 _atom_site_label
 _atom_site_symmetry_multiplicity
 _atom_site_fract_x
 _atom_site_fract_y
 _atom_site_fract_z
 _atom_site_occupancy
  K  K0  1  0.25000000  0.75000000  0.75000000  1
  K  K1  1  0.75000000  0.25000000  0.75000000  1
  K  K2  1  0.50000000  0.00000000  0.00000000  1
  K  K3  1  0.00000000  0.50000000  0.00000000  1
  K  K4  1  0.25000000  0.25000000  0.25000000  1
  K  K5  1  0.75000000  0.75000000  0.25000000  1
  K  K6  1  0.50000000  0.00000000  0.50000000  1
  K  K7  1  0.00000000  0.50000000  0.50000000  1
  Mo  Mo8  1  0.37259000  0.29083200  0.77996300  1
  Mo  Mo9  1  0.62741000  0.70916800  0.77996300  1
  Mo  Mo10  1  0.28058000  0.12951000  0.79123000  1
  Mo  Mo11  1  0.71942000  0.87049000  0.79123000  1
  Mo  Mo12  1  0.20862500  0.28154200  0.86995100  1
  Mo  Mo13  1  0.79137500  0.71845800  0.86995100  1
  Mo  Mo14  1  0.20862500  0.71845800  0.13004900  1
  Mo  Mo15  1  0.79137500  0.28154200  0.13004900  1
  Mo  Mo16  1  0.28058000  0.87049000  0.20877000  1
  Mo  Mo17  1  0.71942000  0.12951000  0.20877000  1
  Mo  Mo18  1  0.62741000  0.29083200  0.22003700  1
  Mo  Mo19  1  0.37259000  0.70916800  0.22003700  1
  Mo  Mo20  1  0.12741000  0.79083200  0.27996300  1
  Mo  Mo21  1  0.87259000  0.20916800  0.27996300  1
  Mo  Mo22  1  0.78058000  0.37049000  0.29123000  1
  Mo  Mo23  1  0.21942000  0.62951000  0.29123000  1
  Mo  Mo24  1  0.70862500  0.21845800  0.36995100  1
  Mo  Mo25  1  0.29137500  0.78154200  0.36995100  1
  Mo  Mo26  1  0.70862500  0.78154200  0.63004900  1
  Mo  Mo27  1  0.29137500  0.21845800  0.63004900  1
  Mo  Mo28  1  0.21942000  0.37049000  0.70877000  1
  Mo  Mo29  1  0.78058000  0.62951000  0.70877000  1
  Mo  Mo30  1  0.87259000  0.79083200  0.72003700  1
  Mo  Mo31  1  0.12741000  0.20916800  0.72003700  1
  Br  Br32  1  0.94258200  0.63967000  0.79753500  1
  Br  Br33  1  0.05741800  0.36033000  0.79753500  1
  Br  Br34  1  0.54358500  0.34435400  0.82297600  1
  Br  Br35  1  0.45641500  0.65564600  0.82297600  1
  Br  Br36  1  0.32693000  0.95904900  0.84685000  1
  Br  Br37  1  0.67307000  0.04095100  0.84685000  1
  Br  Br38  1  0.30049900  0.43997200  0.85744800  1
  Br  Br39  1  0.69950100  0.56002800  0.85744800  1
  Br  Br40  1  0.11861800  0.12133000  0.88013900  1
  Br  Br41  1  0.88138200  0.87867000  0.88013900  1
  Br  Br42  1  0.63964300  0.79672600  0.94008000  1
  Br  Br43  1  0.36035700  0.20327400  0.94008000  1
  Br  Br44  1  0.84732900  0.32710900  0.96000600  1
  Br  Br45  1  0.15267100  0.67289100  0.96000600  1
  Br  Br46  1  0.15267100  0.32710900  0.03999400  1
  Br  Br47  1  0.84732900  0.67289100  0.03999400  1
  Br  Br48  1  0.36035700  0.79672600  0.05992000  1
  Br  Br49  1  0.63964300  0.20327400  0.05992000  1
  Br  Br50  1  0.11861800  0.87867000  0.11986100  1
  Br  Br51  1  0.88138200  0.12133000  0.11986100  1
  Br  Br52  1  0.69950100  0.43997200  0.14255200  1
  Br  Br53  1  0.30049900  0.56002800  0.14255200  1
  Br  Br54  1  0.67307000  0.95904900  0.15315000  1
  Br  Br55  1  0.32693000  0.04095100  0.15315000  1
  Br  Br56  1  0.45641500  0.34435400  0.17702400  1
  Br  Br57  1  0.54358500  0.65564600  0.17702400  1
  Br  Br58  1  0.05741800  0.63967000  0.20246500  1
  Br  Br59  1  0.94258200  0.36033000  0.20246500  1
  Br  Br60  1  0.55741800  0.13967000  0.29753500  1
  Br  Br61  1  0.44258200  0.86033000  0.29753500  1
  Br  Br62  1  0.95641500  0.84435400  0.32297600  1
  Br  Br63  1  0.04358500  0.15564600  0.32297600  1
  Br  Br64  1  0.17307000  0.45904900  0.34685000  1
  Br  Br65  1  0.82693000  0.54095100  0.34685000  1
  Br  Br66  1  0.19950100  0.93997200  0.35744800  1
  Br  Br67  1  0.80049900  0.06002800  0.35744800  1
  Br  Br68  1  0.61861800  0.37867000  0.38013900  1
  Br  Br69  1  0.38138200  0.62133000  0.38013900  1
  Br  Br70  1  0.86035700  0.29672600  0.44008000  1
  Br  Br71  1  0.13964300  0.70327400  0.44008000  1
  Br  Br72  1  0.65267100  0.82710900  0.46000600  1
  Br  Br73  1  0.34732900  0.17289100  0.46000600  1
  Br  Br74  1  0.34732900  0.82710900  0.53999400  1
  Br  Br75  1  0.65267100  0.17289100  0.53999400  1
  Br  Br76  1  0.13964300  0.29672600  0.55992000  1
  Br  Br77  1  0.86035700  0.70327400  0.55992000  1
  Br  Br78  1  0.61861800  0.62133000  0.61986100  1
  Br  Br79  1  0.38138200  0.37867000  0.61986100  1
  Br  Br80  1  0.80049900  0.93997200  0.64255200  1
  Br  Br81  1  0.19950100  0.06002800  0.64255200  1
  Br  Br82  1  0.82693000  0.45904900  0.65315000  1
  Br  Br83  1  0.17307000  0.54095100  0.65315000  1
  Br  Br84  1  0.04358500  0.84435400  0.67702400  1
  Br  Br85  1  0.95641500  0.15564600  0.67702400  1
  Br  Br86  1  0.44258200  0.13967000  0.70246500  1
  Br  Br87  1  0.55741800  0.86033000  0.70246500  1
