# generated using pymatgen
data_Dy(IO3)3
_symmetry_space_group_name_H-M   'P 1'
_cell_length_a   7.20898900
_cell_length_b   8.60988800
_cell_length_c   13.55204256
_cell_angle_alpha   90.00000000
_cell_angle_beta   100.30349686
_cell_angle_gamma   90.00000000
_symmetry_Int_Tables_number   1
_chemical_formula_structural   Dy(IO3)3
_chemical_formula_sum   'Dy4 I12 O36'
_cell_volume   827.59176482
_cell_formula_units_Z   4
loop_
 _symmetry_equiv_pos_site_id
 _symmetry_equiv_pos_as_xyz
  1  'x, y, z'
loop_
 _atom_site_type_symbol
 _atom_site_label
 _atom_site_symmetry_multiplicity
 _atom_site_fract_x
 _atom_site_fract_y
 _atom_site_fract_z
 _atom_site_occupancy
  Dy  Dy0  1  0.17184400  0.74577800  0.64626400  1
  Dy  Dy1  1  0.82815600  0.25422200  0.35373600  1
  Dy  Dy2  1  0.82815600  0.24577800  0.85373600  1
  Dy  Dy3  1  0.17184400  0.75422200  0.14626400  1
  I  I4  1  0.66713700  0.95683800  0.64384400  1
  I  I5  1  0.66713700  0.54316200  0.14384400  1
  I  I6  1  0.33286300  0.45683800  0.85615600  1
  I  I7  1  0.16492400  0.20597600  0.60958600  1
  I  I8  1  0.83507600  0.70597600  0.89041400  1
  I  I9  1  0.73315200  0.02038400  0.10986300  1
  I  I10  1  0.33286300  0.04316200  0.35615600  1
  I  I11  1  0.26684800  0.52038400  0.39013700  1
  I  I12  1  0.73315200  0.47961600  0.60986300  1
  I  I13  1  0.26684800  0.97961600  0.89013700  1
  I  I14  1  0.83507600  0.79402400  0.39041400  1
  I  I15  1  0.16492400  0.29402400  0.10958600  1
  O  O16  1  0.84230300  0.97388700  0.31868100  1
  O  O17  1  0.32154400  0.57971900  0.52093500  1
  O  O18  1  0.22636900  0.79172600  0.82358100  1
  O  O19  1  0.85197300  0.69092500  0.17732700  1
  O  O20  1  0.01933500  0.47003400  0.38699200  1
  O  O21  1  0.33834000  0.53360200  0.73046300  1
  O  O22  1  0.77363100  0.29172600  0.67641900  1
  O  O23  1  0.77363100  0.20827400  0.17641900  1
  O  O24  1  0.98066500  0.97003400  0.11300800  1
  O  O25  1  0.46855100  0.82605300  0.63871700  1
  O  O26  1  0.66166000  0.03360200  0.76953700  1
  O  O27  1  0.03532500  0.83174500  0.49085300  1
  O  O28  1  0.22636900  0.70827400  0.32358100  1
  O  O29  1  0.14802700  0.30907500  0.82267300  1
  O  O30  1  0.15769700  0.47388700  0.18131900  1
  O  O31  1  0.67845600  0.42028100  0.47906500  1
  O  O32  1  0.32154400  0.92028100  0.02093500  1
  O  O33  1  0.46855100  0.67394700  0.13871700  1
  O  O34  1  0.03532500  0.66825500  0.99085300  1
  O  O35  1  0.63761200  0.66646600  0.95463700  1
  O  O36  1  0.66166000  0.46639800  0.26953700  1
  O  O37  1  0.96467500  0.33174500  0.00914700  1
  O  O38  1  0.53144900  0.17394700  0.36128300  1
  O  O39  1  0.63761200  0.83353400  0.45463700  1
  O  O40  1  0.36238800  0.33353400  0.04536300  1
  O  O41  1  0.01933500  0.02996600  0.88699200  1
  O  O42  1  0.15769700  0.02611300  0.68131900  1
  O  O43  1  0.84230300  0.52611300  0.81868100  1
  O  O44  1  0.53144900  0.32605300  0.86128300  1
  O  O45  1  0.85197300  0.80907500  0.67732700  1
  O  O46  1  0.98066500  0.52996600  0.61300800  1
  O  O47  1  0.36238800  0.16646600  0.54536300  1
  O  O48  1  0.96467500  0.16825500  0.50914700  1
  O  O49  1  0.14802700  0.19092500  0.32267300  1
  O  O50  1  0.33834000  0.96639800  0.23046300  1
  O  O51  1  0.67845600  0.07971900  0.97906500  1
