# generated using pymatgen
data_Bi5BrO7
_symmetry_space_group_name_H-M   'P 1'
_cell_length_a   5.44268800
_cell_length_b   16.47548400
_cell_length_c   23.77379100
_cell_angle_alpha   90.00000000
_cell_angle_beta   90.00000000
_cell_angle_gamma   90.00000000
_symmetry_Int_Tables_number   1
_chemical_formula_structural   Bi5BrO7
_chemical_formula_sum   'Bi40 Br8 O56'
_cell_volume   2131.81768853
_cell_formula_units_Z   8
loop_
 _symmetry_equiv_pos_site_id
 _symmetry_equiv_pos_as_xyz
  1  'x, y, z'
loop_
 _atom_site_type_symbol
 _atom_site_label
 _atom_site_symmetry_multiplicity
 _atom_site_fract_x
 _atom_site_fract_y
 _atom_site_fract_z
 _atom_site_occupancy
  Bi  Bi0  1  0.28582050  0.32841050  0.06082900  1
  Bi  Bi1  1  0.71585000  0.00000000  0.20169400  1
  Bi  Bi2  1  0.21585000  0.00000000  0.29830600  1
  Bi  Bi3  1  0.69026550  0.32456550  0.19073600  1
  Bi  Bi4  1  0.80973450  0.17543450  0.80926400  1
  Bi  Bi5  1  0.69026550  0.17543450  0.30926400  1
  Bi  Bi6  1  0.30973450  0.17543450  0.69073600  1
  Bi  Bi7  1  0.78582050  0.32841050  0.43917100  1
  Bi  Bi8  1  0.71417950  0.17158950  0.56082900  1
  Bi  Bi9  1  0.19026550  0.17543450  0.19073600  1
  Bi  Bi10  1  0.80973450  0.32456550  0.69073600  1
  Bi  Bi11  1  0.21417950  0.17158950  0.93917100  1
  Bi  Bi12  1  0.78415000  0.00000000  0.70169400  1
  Bi  Bi13  1  0.21417950  0.32841050  0.56082900  1
  Bi  Bi14  1  0.71417950  0.32841050  0.93917100  1
  Bi  Bi15  1  0.78582050  0.17158950  0.06082900  1
  Bi  Bi16  1  0.28582050  0.17158950  0.43917100  1
  Bi  Bi17  1  0.30973450  0.32456550  0.80926400  1
  Bi  Bi18  1  0.28415000  0.00000000  0.79830600  1
  Bi  Bi19  1  0.19026550  0.32456550  0.30926400  1
  Bi  Bi20  1  0.78582050  0.82841050  0.06082900  1
  Bi  Bi21  1  0.21585000  0.50000000  0.20169400  1
  Bi  Bi22  1  0.71585000  0.50000000  0.29830600  1
  Bi  Bi23  1  0.19026550  0.82456550  0.19073600  1
  Bi  Bi24  1  0.30973450  0.67543450  0.80926400  1
  Bi  Bi25  1  0.19026550  0.67543450  0.30926400  1
  Bi  Bi26  1  0.80973450  0.67543450  0.69073600  1
  Bi  Bi27  1  0.28582050  0.82841050  0.43917100  1
  Bi  Bi28  1  0.21417950  0.67158950  0.56082900  1
  Bi  Bi29  1  0.69026550  0.67543450  0.19073600  1
  Bi  Bi30  1  0.30973450  0.82456550  0.69073600  1
  Bi  Bi31  1  0.71417950  0.67158950  0.93917100  1
  Bi  Bi32  1  0.28415000  0.50000000  0.70169400  1
  Bi  Bi33  1  0.71417950  0.82841050  0.56082900  1
  Bi  Bi34  1  0.21417950  0.82841050  0.93917100  1
  Bi  Bi35  1  0.28582050  0.67158950  0.06082900  1
  Bi  Bi36  1  0.78582050  0.67158950  0.43917100  1
  Bi  Bi37  1  0.80973450  0.82456550  0.80926400  1
  Bi  Bi38  1  0.78415000  0.50000000  0.79830600  1
  Bi  Bi39  1  0.69026550  0.82456550  0.30926400  1
  Br  Br40  1  0.68112100  0.00000000  0.39478400  1
  Br  Br41  1  0.18112100  0.00000000  0.10521600  1
  Br  Br42  1  0.31887900  0.00000000  0.60521600  1
  Br  Br43  1  0.81887900  0.00000000  0.89478400  1
  Br  Br44  1  0.18112100  0.50000000  0.39478400  1
  Br  Br45  1  0.68112100  0.50000000  0.10521600  1
  Br  Br46  1  0.81887900  0.50000000  0.60521600  1
  Br  Br47  1  0.31887900  0.50000000  0.89478400  1
  O  O48  1  0.69782950  0.30933050  0.85023500  1
  O  O49  1  0.47988500  0.25000000  0.25000000  1
  O  O50  1  0.19782950  0.19066950  0.85023500  1
  O  O51  1  0.02011500  0.25000000  0.75000000  1
  O  O52  1  0.02758150  0.41844150  0.74696300  1
  O  O53  1  0.52758150  0.08155850  0.74696300  1
  O  O54  1  0.69782950  0.19066950  0.64976500  1
  O  O55  1  0.16563300  0.20443700  0.04996600  1
  O  O56  1  0.19782950  0.30933050  0.64976500  1
  O  O57  1  0.16563300  0.29556300  0.45003400  1
  O  O58  1  0.33436700  0.29556300  0.95003400  1
  O  O59  1  0.97988500  0.25000000  0.25000000  1
  O  O60  1  0.97241850  0.41844150  0.25303700  1
  O  O61  1  0.52758150  0.41844150  0.75303700  1
  O  O62  1  0.66563300  0.29556300  0.04996600  1
  O  O63  1  0.30217050  0.19066950  0.35023500  1
  O  O64  1  0.83436700  0.20443700  0.95003400  1
  O  O65  1  0.47241850  0.41844150  0.24696300  1
  O  O66  1  0.97241850  0.08155850  0.24696300  1
  O  O67  1  0.52011500  0.25000000  0.75000000  1
  O  O68  1  0.30217050  0.30933050  0.14976500  1
  O  O69  1  0.02758150  0.08155850  0.75303700  1
  O  O70  1  0.80217050  0.19066950  0.14976500  1
  O  O71  1  0.47241850  0.08155850  0.25303700  1
  O  O72  1  0.80217050  0.30933050  0.35023500  1
  O  O73  1  0.66563300  0.20443700  0.45003400  1
  O  O74  1  0.83436700  0.29556300  0.54996600  1
  O  O75  1  0.33436700  0.20443700  0.54996600  1
  O  O76  1  0.19782950  0.80933050  0.85023500  1
  O  O77  1  0.97988500  0.75000000  0.25000000  1
  O  O78  1  0.69782950  0.69066950  0.85023500  1
  O  O79  1  0.52011500  0.75000000  0.75000000  1
  O  O80  1  0.52758150  0.91844150  0.74696300  1
  O  O81  1  0.02758150  0.58155850  0.74696300  1
  O  O82  1  0.19782950  0.69066950  0.64976500  1
  O  O83  1  0.66563300  0.70443700  0.04996600  1
  O  O84  1  0.69782950  0.80933050  0.64976500  1
  O  O85  1  0.66563300  0.79556300  0.45003400  1
  O  O86  1  0.83436700  0.79556300  0.95003400  1
  O  O87  1  0.47988500  0.75000000  0.25000000  1
  O  O88  1  0.47241850  0.91844150  0.25303700  1
  O  O89  1  0.02758150  0.91844150  0.75303700  1
  O  O90  1  0.16563300  0.79556300  0.04996600  1
  O  O91  1  0.80217050  0.69066950  0.35023500  1
  O  O92  1  0.33436700  0.70443700  0.95003400  1
  O  O93  1  0.97241850  0.91844150  0.24696300  1
  O  O94  1  0.47241850  0.58155850  0.24696300  1
  O  O95  1  0.02011500  0.75000000  0.75000000  1
  O  O96  1  0.80217050  0.80933050  0.14976500  1
  O  O97  1  0.52758150  0.58155850  0.75303700  1
  O  O98  1  0.30217050  0.69066950  0.14976500  1
  O  O99  1  0.97241850  0.58155850  0.25303700  1
  O  O100  1  0.30217050  0.80933050  0.35023500  1
  O  O101  1  0.16563300  0.70443700  0.45003400  1
  O  O102  1  0.33436700  0.79556300  0.54996600  1
  O  O103  1  0.83436700  0.70443700  0.54996600  1
