# generated using pymatgen
data_CsHoS2
_symmetry_space_group_name_H-M   'P 1'
_cell_length_a   4.08286783
_cell_length_b   4.08286783
_cell_length_c   24.15231265
_cell_angle_alpha   90.00000000
_cell_angle_beta   90.00000000
_cell_angle_gamma   120.00000000
_symmetry_Int_Tables_number   1
_chemical_formula_structural   CsHoS2
_chemical_formula_sum   'Cs3 Ho3 S6'
_cell_volume   348.67434701
_cell_formula_units_Z   3
loop_
 _symmetry_equiv_pos_site_id
 _symmetry_equiv_pos_as_xyz
  1  'x, y, z'
loop_
 _atom_site_type_symbol
 _atom_site_label
 _atom_site_symmetry_multiplicity
 _atom_site_fract_x
 _atom_site_fract_y
 _atom_site_fract_z
 _atom_site_occupancy
  Cs  Cs0  1  0.00000000  0.00000000  0.00000000  1
  Cs  Cs1  1  0.66666667  0.33333333  0.33333333  1
  Cs  Cs2  1  0.33333333  0.66666667  0.66666667  1
  Ho  Ho3  1  0.33333333  0.66666667  0.16666667  1
  Ho  Ho4  1  1.00000000  1.00000000  0.50000000  1
  Ho  Ho5  1  0.66666667  0.33333333  0.83333333  1
  S  S6  1  0.00000000  0.00000000  0.22731400  1
  S  S7  1  0.66666667  0.33333333  0.10601933  1
  S  S8  1  0.66666667  0.33333333  0.56064733  1
  S  S9  1  0.33333333  0.66666667  0.43935267  1
  S  S10  1  0.33333333  0.66666667  0.89398067  1
  S  S11  1  0.00000000  0.00000000  0.77268600  1
