# generated using pymatgen
data_SiO2
_symmetry_space_group_name_H-M   'P 1'
_cell_length_a   12.77384700
_cell_length_b   12.77384700
_cell_length_c   13.35445000
_cell_angle_alpha   90.00000000
_cell_angle_beta   90.00000000
_cell_angle_gamma   90.00000000
_symmetry_Int_Tables_number   1
_chemical_formula_structural   SiO2
_chemical_formula_sum   'Si32 O64'
_cell_volume   2179.06119354
_cell_formula_units_Z   32
loop_
 _symmetry_equiv_pos_site_id
 _symmetry_equiv_pos_as_xyz
  1  'x, y, z'
loop_
 _atom_site_type_symbol
 _atom_site_label
 _atom_site_symmetry_multiplicity
 _atom_site_fract_x
 _atom_site_fract_y
 _atom_site_fract_z
 _atom_site_occupancy
  Si  Si0  1  0.62225900  0.12461600  0.11460800  1
  Si  Si1  1  0.87538400  0.37774100  0.38539200  1
  Si  Si2  1  0.12461600  0.37774100  0.61460800  1
  Si  Si3  1  0.19415300  0.80584700  0.75000000  1
  Si  Si4  1  0.37774100  0.87538400  0.11460800  1
  Si  Si5  1  0.87538400  0.62225900  0.38539200  1
  Si  Si6  1  0.87348300  0.00000000  0.61813900  1
  Si  Si7  1  0.87348300  0.00000000  0.38186100  1
  Si  Si8  1  0.19415300  0.80584700  0.25000000  1
  Si  Si9  1  0.12461600  0.62225900  0.61460800  1
  Si  Si10  1  0.37774100  0.12461600  0.11460800  1
  Si  Si11  1  0.62225900  0.87538400  0.11460800  1
  Si  Si12  1  0.80584700  0.19415300  0.75000000  1
  Si  Si13  1  0.87538400  0.37774100  0.61460800  1
  Si  Si14  1  0.00000000  0.12651700  0.11813900  1
  Si  Si15  1  0.80584700  0.80584700  0.75000000  1
  Si  Si16  1  0.00000000  0.87348300  0.11813900  1
  Si  Si17  1  0.00000000  0.12651700  0.88186100  1
  Si  Si18  1  0.12461600  0.37774100  0.38539200  1
  Si  Si19  1  0.80584700  0.19415300  0.25000000  1
  Si  Si20  1  0.00000000  0.87348300  0.88186100  1
  Si  Si21  1  0.80584700  0.80584700  0.25000000  1
  Si  Si22  1  0.12651700  0.00000000  0.61813900  1
  Si  Si23  1  0.87538400  0.62225900  0.61460800  1
  Si  Si24  1  0.19415300  0.19415300  0.25000000  1
  Si  Si25  1  0.19415300  0.19415300  0.75000000  1
  Si  Si26  1  0.62225900  0.87538400  0.88539200  1
  Si  Si27  1  0.12651700  0.00000000  0.38186100  1
  Si  Si28  1  0.37774100  0.12461600  0.88539200  1
  Si  Si29  1  0.62225900  0.12461600  0.88539200  1
  Si  Si30  1  0.37774100  0.87538400  0.88539200  1
  Si  Si31  1  0.12461600  0.62225900  0.38539200  1
  O  O32  1  0.16034800  0.34980400  0.50000000  1
  O  O33  1  0.35378400  0.00000000  0.87296500  1
  O  O34  1  0.10309100  0.18045600  0.83374400  1
  O  O35  1  0.18854800  0.30713900  0.69453200  1
  O  O36  1  0.18854800  0.69286100  0.69453200  1
  O  O37  1  0.50000000  0.85090400  0.13881600  1
  O  O38  1  0.81954400  0.89690900  0.33374400  1
  O  O39  1  0.89690900  0.18045600  0.16625600  1
  O  O40  1  0.81145200  0.69286100  0.69453200  1
  O  O41  1  0.18045600  0.10309100  0.33374400  1
  O  O42  1  0.50000000  0.14909600  0.86118400  1
  O  O43  1  0.18045600  0.89690900  0.66625600  1
  O  O44  1  0.10309100  0.81954400  0.16625600  1
  O  O45  1  0.81954400  0.89690900  0.66625600  1
  O  O46  1  0.81145200  0.30713900  0.30546800  1
  O  O47  1  0.81954400  0.10309100  0.66625600  1
  O  O48  1  0.18045600  0.10309100  0.66625600  1
  O  O49  1  0.83965200  0.65019600  0.50000000  1
  O  O50  1  0.81954400  0.10309100  0.33374400  1
  O  O51  1  0.69286100  0.18854800  0.80546800  1
  O  O52  1  0.64621600  0.00000000  0.87296500  1
  O  O53  1  0.15210500  0.00000000  0.50000000  1
  O  O54  1  0.00000000  0.35378400  0.62703500  1
  O  O55  1  0.18045600  0.89690900  0.33374400  1
  O  O56  1  0.30713900  0.81145200  0.80546800  1
  O  O57  1  0.18854800  0.69286100  0.30546800  1
  O  O58  1  0.30713900  0.18854800  0.80546800  1
  O  O59  1  0.35378400  0.00000000  0.12703500  1
  O  O60  1  0.00000000  0.35378400  0.37296500  1
  O  O61  1  0.00000000  0.84789500  0.00000000  1
  O  O62  1  0.69286100  0.18854800  0.19453200  1
  O  O63  1  0.83965200  0.34980400  0.50000000  1
  O  O64  1  0.89690900  0.81954400  0.83374400  1
  O  O65  1  0.85090400  0.50000000  0.36118400  1
  O  O66  1  0.00000000  0.64621600  0.62703500  1
  O  O67  1  0.50000000  0.85090400  0.86118400  1
  O  O68  1  0.30713900  0.81145200  0.19453200  1
  O  O69  1  0.00000000  0.15210500  0.00000000  1
  O  O70  1  0.89690900  0.18045600  0.83374400  1
  O  O71  1  0.00000000  0.00000000  0.36362200  1
  O  O72  1  0.89690900  0.81954400  0.16625600  1
  O  O73  1  0.18854800  0.30713900  0.30546800  1
  O  O74  1  0.14909600  0.50000000  0.36118400  1
  O  O75  1  0.00000000  0.00000000  0.86362200  1
  O  O76  1  0.84789500  0.00000000  0.50000000  1
  O  O77  1  0.10309100  0.18045600  0.16625600  1
  O  O78  1  0.64621600  0.00000000  0.12703500  1
  O  O79  1  0.81145200  0.69286100  0.30546800  1
  O  O80  1  0.00000000  0.00000000  0.63637800  1
  O  O81  1  0.34980400  0.16034800  0.00000000  1
  O  O82  1  0.00000000  0.64621600  0.37296500  1
  O  O83  1  0.14909600  0.50000000  0.63881600  1
  O  O84  1  0.50000000  0.14909600  0.13881600  1
  O  O85  1  0.30713900  0.18854800  0.19453200  1
  O  O86  1  0.81145200  0.30713900  0.69453200  1
  O  O87  1  0.69286100  0.81145200  0.19453200  1
  O  O88  1  0.00000000  0.00000000  0.13637800  1
  O  O89  1  0.16034800  0.65019600  0.50000000  1
  O  O90  1  0.69286100  0.81145200  0.80546800  1
  O  O91  1  0.85090400  0.50000000  0.63881600  1
  O  O92  1  0.65019600  0.83965200  0.00000000  1
  O  O93  1  0.10309100  0.81954400  0.83374400  1
  O  O94  1  0.34980400  0.83965200  0.00000000  1
  O  O95  1  0.65019600  0.16034800  0.00000000  1
