# generated using pymatgen
data_KNaSi2O5
_symmetry_space_group_name_H-M   'P 1'
_cell_length_a   4.91333500
_cell_length_b   13.76190000
_cell_length_c   7.58399421
_cell_angle_alpha   90.00000000
_cell_angle_beta   91.25636298
_cell_angle_gamma   90.00000000
_symmetry_Int_Tables_number   1
_chemical_formula_structural   KNaSi2O5
_chemical_formula_sum   'K4 Na4 Si8 O20'
_cell_volume   512.68232915
_cell_formula_units_Z   4
loop_
 _symmetry_equiv_pos_site_id
 _symmetry_equiv_pos_as_xyz
  1  'x, y, z'
loop_
 _atom_site_type_symbol
 _atom_site_label
 _atom_site_symmetry_multiplicity
 _atom_site_fract_x
 _atom_site_fract_y
 _atom_site_fract_z
 _atom_site_occupancy
  K  K0  1  0.19940100  0.79937800  0.28796500  1
  K  K1  1  0.80059900  0.20062200  0.71203500  1
  K  K2  1  0.80059900  0.29937800  0.21203500  1
  K  K3  1  0.19940100  0.70062200  0.78796500  1
  Na  Na4  1  0.27657700  0.40599900  0.97180800  1
  Na  Na5  1  0.72342300  0.59400100  0.02819200  1
  Na  Na6  1  0.27657700  0.09400100  0.47180800  1
  Na  Na7  1  0.72342300  0.90599900  0.52819200  1
  Si  Si8  1  0.80202500  0.04860300  0.21576100  1
  Si  Si9  1  0.80202500  0.45139700  0.71576100  1
  Si  Si10  1  0.19797500  0.95139700  0.78423900  1
  Si  Si11  1  0.29574000  0.36970500  0.51472600  1
  Si  Si12  1  0.29574000  0.13029500  0.01472600  1
  Si  Si13  1  0.19797500  0.54860300  0.28423900  1
  Si  Si14  1  0.70426000  0.63029500  0.48527400  1
  Si  Si15  1  0.70426000  0.86970500  0.98527400  1
  O  O16  1  0.87473600  0.57005500  0.33268900  1
  O  O17  1  0.21886200  0.24107200  0.99150700  1
  O  O18  1  0.74892600  0.07299000  0.41716400  1
  O  O19  1  0.12526400  0.42994500  0.66731100  1
  O  O20  1  0.37745000  0.88533300  0.92874100  1
  O  O21  1  0.87473600  0.92994500  0.83268900  1
  O  O22  1  0.25183000  0.43072500  0.32434200  1
  O  O23  1  0.74892600  0.42701000  0.91716400  1
  O  O24  1  0.78113800  0.75892800  0.00849300  1
  O  O25  1  0.25107400  0.57299000  0.08283600  1
  O  O26  1  0.74817000  0.93072500  0.17565800  1
  O  O27  1  0.37745000  0.61466700  0.42874100  1
  O  O28  1  0.62255000  0.11466700  0.07125900  1
  O  O29  1  0.78113800  0.74107200  0.50849300  1
  O  O30  1  0.62255000  0.38533300  0.57125900  1
  O  O31  1  0.25107400  0.92701000  0.58283600  1
  O  O32  1  0.21886200  0.25892800  0.49150700  1
  O  O33  1  0.74817000  0.56927500  0.67565800  1
  O  O34  1  0.12526400  0.07005500  0.16731100  1
  O  O35  1  0.25183000  0.06927500  0.82434200  1
