# generated using pymatgen
data_K2Ag2GeS4
_symmetry_space_group_name_H-M   'P 1'
_cell_length_a   6.42097800
_cell_length_b   13.62654800
_cell_length_c   21.32091800
_cell_angle_alpha   90.00000000
_cell_angle_beta   90.00000000
_cell_angle_gamma   90.00000000
_symmetry_Int_Tables_number   1
_chemical_formula_structural   K2Ag2GeS4
_chemical_formula_sum   'K16 Ag16 Ge8 S32'
_cell_volume   1865.49002929
_cell_formula_units_Z   8
loop_
 _symmetry_equiv_pos_site_id
 _symmetry_equiv_pos_as_xyz
  1  'x, y, z'
loop_
 _atom_site_type_symbol
 _atom_site_label
 _atom_site_symmetry_multiplicity
 _atom_site_fract_x
 _atom_site_fract_y
 _atom_site_fract_z
 _atom_site_occupancy
  K  K0  1  0.50000000  0.00000000  0.81290300  1
  K  K1  1  0.00000000  0.00000000  0.68709700  1
  K  K2  1  0.75000000  0.75000000  0.56290300  1
  K  K3  1  0.75000000  0.75000000  0.93709700  1
  K  K4  1  0.50000000  0.50000000  0.31290300  1
  K  K5  1  0.00000000  0.50000000  0.18709700  1
  K  K6  1  0.75000000  0.25000000  0.06290300  1
  K  K7  1  0.75000000  0.25000000  0.43709700  1
  K  K8  1  0.00000000  0.00000000  0.31290300  1
  K  K9  1  0.50000000  0.00000000  0.18709700  1
  K  K10  1  0.25000000  0.75000000  0.06290300  1
  K  K11  1  0.25000000  0.75000000  0.43709700  1
  K  K12  1  0.00000000  0.50000000  0.81290300  1
  K  K13  1  0.50000000  0.50000000  0.68709700  1
  K  K14  1  0.25000000  0.25000000  0.56290300  1
  K  K15  1  0.25000000  0.25000000  0.93709700  1
  Ag  Ag16  1  0.25000000  0.75000000  0.67523400  1
  Ag  Ag17  1  0.00000000  0.00000000  0.92523400  1
  Ag  Ag18  1  0.50000000  0.00000000  0.57476600  1
  Ag  Ag19  1  0.25000000  0.75000000  0.82476600  1
  Ag  Ag20  1  0.25000000  0.25000000  0.17523400  1
  Ag  Ag21  1  0.00000000  0.50000000  0.42523400  1
  Ag  Ag22  1  0.50000000  0.50000000  0.07476600  1
  Ag  Ag23  1  0.25000000  0.25000000  0.32476600  1
  Ag  Ag24  1  0.75000000  0.75000000  0.17523400  1
  Ag  Ag25  1  0.50000000  0.00000000  0.42523400  1
  Ag  Ag26  1  0.00000000  0.00000000  0.07476600  1
  Ag  Ag27  1  0.75000000  0.75000000  0.32476600  1
  Ag  Ag28  1  0.75000000  0.25000000  0.67523400  1
  Ag  Ag29  1  0.50000000  0.50000000  0.92523400  1
  Ag  Ag30  1  0.00000000  0.50000000  0.57476600  1
  Ag  Ag31  1  0.75000000  0.25000000  0.82476600  1
  Ge  Ge32  1  0.50000000  0.00000000  0.00000000  1
  Ge  Ge33  1  0.75000000  0.75000000  0.75000000  1
  Ge  Ge34  1  0.50000000  0.50000000  0.50000000  1
  Ge  Ge35  1  0.75000000  0.25000000  0.25000000  1
  Ge  Ge36  1  0.00000000  0.00000000  0.50000000  1
  Ge  Ge37  1  0.25000000  0.75000000  0.25000000  1
  Ge  Ge38  1  0.00000000  0.50000000  0.00000000  1
  Ge  Ge39  1  0.25000000  0.25000000  0.75000000  1
  S  S40  1  0.55748400  0.64884550  0.81064950  1
  S  S41  1  0.55748400  0.85115450  0.68935050  1
  S  S42  1  0.30748400  0.89884550  0.93935050  1
  S  S43  1  0.94251600  0.64884550  0.68935050  1
  S  S44  1  0.19251600  0.89884550  0.56064950  1
  S  S45  1  0.94251600  0.85115450  0.81064950  1
  S  S46  1  0.30748400  0.60115450  0.56064950  1
  S  S47  1  0.19251600  0.60115450  0.93935050  1
  S  S48  1  0.55748400  0.14884550  0.31064950  1
  S  S49  1  0.55748400  0.35115450  0.18935050  1
  S  S50  1  0.30748400  0.39884550  0.43935050  1
  S  S51  1  0.94251600  0.14884550  0.18935050  1
  S  S52  1  0.19251600  0.39884550  0.06064950  1
  S  S53  1  0.94251600  0.35115450  0.31064950  1
  S  S54  1  0.30748400  0.10115450  0.06064950  1
  S  S55  1  0.19251600  0.10115450  0.43935050  1
  S  S56  1  0.05748400  0.64884550  0.31064950  1
  S  S57  1  0.05748400  0.85115450  0.18935050  1
  S  S58  1  0.80748400  0.89884550  0.43935050  1
  S  S59  1  0.44251600  0.64884550  0.18935050  1
  S  S60  1  0.69251600  0.89884550  0.06064950  1
  S  S61  1  0.44251600  0.85115450  0.31064950  1
  S  S62  1  0.80748400  0.60115450  0.06064950  1
  S  S63  1  0.69251600  0.60115450  0.43935050  1
  S  S64  1  0.05748400  0.14884550  0.81064950  1
  S  S65  1  0.05748400  0.35115450  0.68935050  1
  S  S66  1  0.80748400  0.39884550  0.93935050  1
  S  S67  1  0.44251600  0.14884550  0.68935050  1
  S  S68  1  0.69251600  0.39884550  0.56064950  1
  S  S69  1  0.44251600  0.35115450  0.81064950  1
  S  S70  1  0.80748400  0.10115450  0.56064950  1
  S  S71  1  0.69251600  0.10115450  0.93935050  1
