# generated using pymatgen
data_Ba2Ni7F18
_symmetry_space_group_name_H-M   'P 1'
_cell_length_a   7.00401900
_cell_length_b   7.31191720
_cell_length_c   7.55517260
_cell_angle_alpha   94.43936122
_cell_angle_beta   93.10269033
_cell_angle_gamma   115.76651566
_symmetry_Int_Tables_number   1
_chemical_formula_structural   Ba2Ni7F18
_chemical_formula_sum   'Ba2 Ni7 F18'
_cell_volume   345.74173343
_cell_formula_units_Z   1
loop_
 _symmetry_equiv_pos_site_id
 _symmetry_equiv_pos_as_xyz
  1  'x, y, z'
loop_
 _atom_site_type_symbol
 _atom_site_label
 _atom_site_symmetry_multiplicity
 _atom_site_fract_x
 _atom_site_fract_y
 _atom_site_fract_z
 _atom_site_occupancy
  Ba  Ba0  1  0.68613300  0.30641800  0.36646200  1
  Ba  Ba1  1  0.31386700  0.69358200  0.63353800  1
  Ni  Ni2  1  0.39438000  0.27803500  0.88203500  1
  Ni  Ni3  1  0.60562000  0.72196500  0.11796500  1
  Ni  Ni4  1  0.18110400  0.38414300  0.19520000  1
  Ni  Ni5  1  0.81889600  0.61585700  0.80480000  1
  Ni  Ni6  1  0.81045900  0.12468900  0.81812000  1
  Ni  Ni7  1  0.18954100  0.87531100  0.18188000  1
  Ni  Ni8  1  0.00000000  0.00000000  0.50000000  1
  F  F9  1  0.31901500  0.51234400  0.97373700  1
  F  F10  1  0.68098500  0.48765600  0.02626300  1
  F  F11  1  0.50443000  0.07803100  0.81746400  1
  F  F12  1  0.49557000  0.92196900  0.18253600  1
  F  F13  1  0.90027900  0.39493600  0.71938400  1
  F  F14  1  0.09972100  0.60506400  0.28061600  1
  F  F15  1  0.29391700  0.17414400  0.11937400  1
  F  F16  1  0.70608300  0.82585600  0.88062600  1
  F  F17  1  0.09755600  0.12785000  0.75800200  1
  F  F18  1  0.47925600  0.55913200  0.32137400  1
  F  F19  1  0.52074400  0.44086800  0.67862600  1
  F  F20  1  0.10760900  0.77012900  0.92730500  1
  F  F21  1  0.89239100  0.22987100  0.07269500  1
  F  F22  1  0.71832900  0.99265900  0.55855300  1
  F  F23  1  0.28167100  0.00734100  0.44144700  1
  F  F24  1  0.92230300  0.71938400  0.57452400  1
  F  F25  1  0.07769700  0.28061600  0.42547600  1
  F  F26  1  0.90244400  0.87215000  0.24199800  1
