# generated using pymatgen
data_Sr5B3BrO9
_symmetry_space_group_name_H-M   'P 1'
_cell_length_a   10.13475400
_cell_length_b   14.41829200
_cell_length_c   7.61403800
_cell_angle_alpha   90.00000000
_cell_angle_beta   90.00000000
_cell_angle_gamma   90.00000000
_symmetry_Int_Tables_number   1
_chemical_formula_structural   Sr5B3BrO9
_chemical_formula_sum   'Sr20 B12 Br4 O36'
_cell_volume   1112.60771773
_cell_formula_units_Z   4
loop_
 _symmetry_equiv_pos_site_id
 _symmetry_equiv_pos_as_xyz
  1  'x, y, z'
loop_
 _atom_site_type_symbol
 _atom_site_label
 _atom_site_symmetry_multiplicity
 _atom_site_fract_x
 _atom_site_fract_y
 _atom_site_fract_z
 _atom_site_occupancy
  Sr  Sr0  1  0.75709200  0.00000000  0.50000000  1
  Sr  Sr1  1  0.13613150  0.13033550  0.42727100  1
  Sr  Sr2  1  0.50000000  0.86381100  0.25000000  1
  Sr  Sr3  1  0.50000000  0.13662400  0.25000000  1
  Sr  Sr4  1  0.86386850  0.86966450  0.92727100  1
  Sr  Sr5  1  0.24290800  0.00000000  0.00000000  1
  Sr  Sr6  1  0.86386850  0.13033550  0.07272900  1
  Sr  Sr7  1  0.50000000  0.13618900  0.75000000  1
  Sr  Sr8  1  0.50000000  0.86337600  0.75000000  1
  Sr  Sr9  1  0.13613150  0.86966450  0.57272900  1
  Sr  Sr10  1  0.25709200  0.50000000  0.50000000  1
  Sr  Sr11  1  0.63613150  0.63033550  0.42727100  1
  Sr  Sr12  1  0.00000000  0.36381100  0.25000000  1
  Sr  Sr13  1  0.00000000  0.63662400  0.25000000  1
  Sr  Sr14  1  0.36386850  0.36966450  0.92727100  1
  Sr  Sr15  1  0.74290800  0.50000000  0.00000000  1
  Sr  Sr16  1  0.36386850  0.63033550  0.07272900  1
  Sr  Sr17  1  0.00000000  0.63618900  0.75000000  1
  Sr  Sr18  1  0.00000000  0.36337600  0.75000000  1
  Sr  Sr19  1  0.63613150  0.36966450  0.57272900  1
  B  B20  1  0.37254500  0.00000000  0.50000000  1
  B  B21  1  0.62745500  0.00000000  0.00000000  1
  B  B22  1  0.30190650  0.28804550  0.52752300  1
  B  B23  1  0.30190650  0.71195450  0.47247700  1
  B  B24  1  0.69809350  0.71195450  0.02752300  1
  B  B25  1  0.69809350  0.28804550  0.97247700  1
  B  B26  1  0.87254500  0.50000000  0.50000000  1
  B  B27  1  0.12745500  0.50000000  0.00000000  1
  B  B28  1  0.80190650  0.78804550  0.52752300  1
  B  B29  1  0.80190650  0.21195450  0.47247700  1
  B  B30  1  0.19809350  0.21195450  0.02752300  1
  B  B31  1  0.19809350  0.78804550  0.97247700  1
  Br  Br32  1  0.50000000  0.55869100  0.75000000  1
  Br  Br33  1  0.50000000  0.44130900  0.25000000  1
  Br  Br34  1  0.00000000  0.05869100  0.75000000  1
  Br  Br35  1  0.00000000  0.94130900  0.25000000  1
  O  O36  1  0.48888800  0.00000000  0.00000000  1
  O  O37  1  0.69220750  0.99728950  0.83945300  1
  O  O38  1  0.33042300  0.80878200  0.01319000  1
  O  O39  1  0.66957700  0.19121800  0.51319000  1
  O  O40  1  0.66957700  0.80878200  0.48681000  1
  O  O41  1  0.35435450  0.79854050  0.51315100  1
  O  O42  1  0.35435450  0.20145950  0.48684900  1
  O  O43  1  0.64564550  0.20145950  0.01315100  1
  O  O44  1  0.51111200  0.00000000  0.50000000  1
  O  O45  1  0.62102050  0.35320750  0.88662500  1
  O  O46  1  0.64564550  0.79854050  0.98684900  1
  O  O47  1  0.30779250  0.00271050  0.33945300  1
  O  O48  1  0.62102050  0.64679250  0.11337500  1
  O  O49  1  0.30779250  0.99728950  0.66054700  1
  O  O50  1  0.37897950  0.35320750  0.61337500  1
  O  O51  1  0.33042300  0.19121800  0.98681000  1
  O  O52  1  0.69220750  0.00271050  0.16054700  1
  O  O53  1  0.37897950  0.64679250  0.38662500  1
  O  O54  1  0.98888800  0.50000000  0.00000000  1
  O  O55  1  0.19220750  0.49728950  0.83945300  1
  O  O56  1  0.83042300  0.30878200  0.01319000  1
  O  O57  1  0.16957700  0.69121800  0.51319000  1
  O  O58  1  0.16957700  0.30878200  0.48681000  1
  O  O59  1  0.85435450  0.29854050  0.51315100  1
  O  O60  1  0.85435450  0.70145950  0.48684900  1
  O  O61  1  0.14564550  0.70145950  0.01315100  1
  O  O62  1  0.01111200  0.50000000  0.50000000  1
  O  O63  1  0.12102050  0.85320750  0.88662500  1
  O  O64  1  0.14564550  0.29854050  0.98684900  1
  O  O65  1  0.80779250  0.50271050  0.33945300  1
  O  O66  1  0.12102050  0.14679250  0.11337500  1
  O  O67  1  0.80779250  0.49728950  0.66054700  1
  O  O68  1  0.87897950  0.85320750  0.61337500  1
  O  O69  1  0.83042300  0.69121800  0.98681000  1
  O  O70  1  0.19220750  0.50271050  0.16054700  1
  O  O71  1  0.87897950  0.14679250  0.38662500  1
