# generated using pymatgen
data_CsNaTiO3
_symmetry_space_group_name_H-M   'P 1'
_cell_length_a   6.07520600
_cell_length_b   11.39441200
_cell_length_c   5.67114000
_cell_angle_alpha   90.00000000
_cell_angle_beta   90.00000000
_cell_angle_gamma   90.00000000
_symmetry_Int_Tables_number   1
_chemical_formula_structural   CsNaTiO3
_chemical_formula_sum   'Cs4 Na4 Ti4 O12'
_cell_volume   392.57559352
_cell_formula_units_Z   4
loop_
 _symmetry_equiv_pos_site_id
 _symmetry_equiv_pos_as_xyz
  1  'x, y, z'
loop_
 _atom_site_type_symbol
 _atom_site_label
 _atom_site_symmetry_multiplicity
 _atom_site_fract_x
 _atom_site_fract_y
 _atom_site_fract_z
 _atom_site_occupancy
  Cs  Cs0  1  0.00000000  0.26766300  0.25000000  1
  Cs  Cs1  1  0.50000000  0.23233700  0.75000000  1
  Cs  Cs2  1  0.50000000  0.76766300  0.25000000  1
  Cs  Cs3  1  0.00000000  0.73233700  0.75000000  1
  Na  Na4  1  0.00000000  0.42618300  0.75000000  1
  Na  Na5  1  0.50000000  0.07381700  0.25000000  1
  Na  Na6  1  0.50000000  0.92618300  0.75000000  1
  Na  Na7  1  0.00000000  0.57381700  0.25000000  1
  Ti  Ti8  1  0.00000000  0.04887400  0.75000000  1
  Ti  Ti9  1  0.50000000  0.45112600  0.25000000  1
  Ti  Ti10  1  0.50000000  0.54887400  0.75000000  1
  Ti  Ti11  1  0.00000000  0.95112600  0.25000000  1
  O  O12  1  0.00000000  0.20423400  0.75000000  1
  O  O13  1  0.21071700  0.00000000  0.50000000  1
  O  O14  1  0.78928300  0.00000000  0.00000000  1
  O  O15  1  0.21071700  0.00000000  0.00000000  1
  O  O16  1  0.78928300  0.00000000  0.50000000  1
  O  O17  1  0.50000000  0.29576600  0.25000000  1
  O  O18  1  0.50000000  0.70423400  0.75000000  1
  O  O19  1  0.71071700  0.50000000  0.50000000  1
  O  O20  1  0.28928300  0.50000000  0.00000000  1
  O  O21  1  0.71071700  0.50000000  0.00000000  1
  O  O22  1  0.28928300  0.50000000  0.50000000  1
  O  O23  1  0.00000000  0.79576600  0.25000000  1
