# generated using pymatgen
data_Ba3In2Cl2O5
_symmetry_space_group_name_H-M   'P 1'
_cell_length_a   4.30120800
_cell_length_b   4.30120800
_cell_length_c   25.50405200
_cell_angle_alpha   90.00000000
_cell_angle_beta   90.00000000
_cell_angle_gamma   90.00000000
_symmetry_Int_Tables_number   1
_chemical_formula_structural   Ba3In2Cl2O5
_chemical_formula_sum   'Ba6 In4 Cl4 O10'
_cell_volume   471.83491519
_cell_formula_units_Z   2
loop_
 _symmetry_equiv_pos_site_id
 _symmetry_equiv_pos_as_xyz
  1  'x, y, z'
loop_
 _atom_site_type_symbol
 _atom_site_label
 _atom_site_symmetry_multiplicity
 _atom_site_fract_x
 _atom_site_fract_y
 _atom_site_fract_z
 _atom_site_occupancy
  Ba  Ba0  1  0.50000000  0.50000000  0.16124600  1
  Ba  Ba1  1  0.50000000  0.50000000  0.00000000  1
  Ba  Ba2  1  0.00000000  0.00000000  0.33875400  1
  Ba  Ba3  1  0.00000000  0.00000000  0.66124600  1
  Ba  Ba4  1  0.00000000  0.00000000  0.50000000  1
  Ba  Ba5  1  0.50000000  0.50000000  0.83875400  1
  In  In6  1  0.50000000  0.50000000  0.41757200  1
  In  In7  1  0.00000000  0.00000000  0.08242800  1
  In  In8  1  0.00000000  0.00000000  0.91757200  1
  In  In9  1  0.50000000  0.50000000  0.58242800  1
  Cl  Cl10  1  0.00000000  0.00000000  0.20518900  1
  Cl  Cl11  1  0.50000000  0.50000000  0.29481100  1
  Cl  Cl12  1  0.50000000  0.50000000  0.70518900  1
  Cl  Cl13  1  0.00000000  0.00000000  0.79481100  1
  O  O14  1  0.00000000  0.50000000  0.09405900  1
  O  O15  1  0.00000000  0.50000000  0.40594100  1
  O  O16  1  0.50000000  0.00000000  0.40594100  1
  O  O17  1  0.00000000  0.00000000  0.00000000  1
  O  O18  1  0.50000000  0.00000000  0.09405900  1
  O  O19  1  0.50000000  0.00000000  0.59405900  1
  O  O20  1  0.50000000  0.00000000  0.90594100  1
  O  O21  1  0.00000000  0.50000000  0.90594100  1
  O  O22  1  0.50000000  0.50000000  0.50000000  1
  O  O23  1  0.00000000  0.50000000  0.59405900  1
