# generated using pymatgen
data_MoF6
_symmetry_space_group_name_H-M   'P 1'
_cell_length_a   6.55799000
_cell_length_b   6.55799000
_cell_length_c   6.55799000
_cell_angle_alpha   90.00000000
_cell_angle_beta   90.00000000
_cell_angle_gamma   90.00000000
_symmetry_Int_Tables_number   1
_chemical_formula_structural   MoF6
_chemical_formula_sum   'Mo2 F12'
_cell_volume   282.04100289
_cell_formula_units_Z   2
loop_
 _symmetry_equiv_pos_site_id
 _symmetry_equiv_pos_as_xyz
  1  'x, y, z'
loop_
 _atom_site_type_symbol
 _atom_site_label
 _atom_site_symmetry_multiplicity
 _atom_site_fract_x
 _atom_site_fract_y
 _atom_site_fract_z
 _atom_site_occupancy
  Mo  Mo0  1  0.00000000  0.00000000  0.00000000  1
  Mo  Mo1  1  0.50000000  0.50000000  0.50000000  1
  F  F2  1  0.00000000  0.00000000  0.71510700  1
  F  F3  1  0.00000000  0.00000000  0.28489300  1
  F  F4  1  0.28489300  0.00000000  0.00000000  1
  F  F5  1  0.71510700  0.00000000  0.00000000  1
  F  F6  1  0.00000000  0.71510700  0.00000000  1
  F  F7  1  0.00000000  0.28489300  0.00000000  1
  F  F8  1  0.50000000  0.50000000  0.21510700  1
  F  F9  1  0.50000000  0.50000000  0.78489300  1
  F  F10  1  0.78489300  0.50000000  0.50000000  1
  F  F11  1  0.21510700  0.50000000  0.50000000  1
  F  F12  1  0.50000000  0.21510700  0.50000000  1
  F  F13  1  0.50000000  0.78489300  0.50000000  1
