# generated using pymatgen
data_CsZr6BI14
_symmetry_space_group_name_H-M   'P 1'
_cell_length_a   14.93752600
_cell_length_b   16.20787200
_cell_length_c   13.22673800
_cell_angle_alpha   90.00000000
_cell_angle_beta   90.00000000
_cell_angle_gamma   90.00000000
_symmetry_Int_Tables_number   1
_chemical_formula_structural   CsZr6BI14
_chemical_formula_sum   'Cs4 Zr24 B4 I56'
_cell_volume   3202.26614125
_cell_formula_units_Z   4
loop_
 _symmetry_equiv_pos_site_id
 _symmetry_equiv_pos_as_xyz
  1  'x, y, z'
loop_
 _atom_site_type_symbol
 _atom_site_label
 _atom_site_symmetry_multiplicity
 _atom_site_fract_x
 _atom_site_fract_y
 _atom_site_fract_z
 _atom_site_occupancy
  Cs  Cs0  1  0.00000000  0.00000000  0.00000000  1
  Cs  Cs1  1  0.50000000  0.00000000  0.50000000  1
  Cs  Cs2  1  0.50000000  0.50000000  0.00000000  1
  Cs  Cs3  1  0.00000000  0.50000000  0.50000000  1
  Zr  Zr4  1  0.86917300  0.00000000  0.59670600  1
  Zr  Zr5  1  0.36917300  0.00000000  0.90329400  1
  Zr  Zr6  1  0.43727150  0.10541150  0.10808700  1
  Zr  Zr7  1  0.13082700  0.00000000  0.40329400  1
  Zr  Zr8  1  0.56272850  0.39458850  0.60808700  1
  Zr  Zr9  1  0.56272850  0.10541150  0.89191300  1
  Zr  Zr10  1  0.56272850  0.89458850  0.89191300  1
  Zr  Zr11  1  0.56272850  0.60541150  0.60808700  1
  Zr  Zr12  1  0.43727150  0.60541150  0.39191300  1
  Zr  Zr13  1  0.63082700  0.00000000  0.09670600  1
  Zr  Zr14  1  0.43727150  0.89458850  0.10808700  1
  Zr  Zr15  1  0.43727150  0.39458850  0.39191300  1
  Zr  Zr16  1  0.36917300  0.50000000  0.59670600  1
  Zr  Zr17  1  0.86917300  0.50000000  0.90329400  1
  Zr  Zr18  1  0.93727150  0.60541150  0.10808700  1
  Zr  Zr19  1  0.63082700  0.50000000  0.40329400  1
  Zr  Zr20  1  0.06272850  0.89458850  0.60808700  1
  Zr  Zr21  1  0.06272850  0.60541150  0.89191300  1
  Zr  Zr22  1  0.06272850  0.39458850  0.89191300  1
  Zr  Zr23  1  0.06272850  0.10541150  0.60808700  1
  Zr  Zr24  1  0.93727150  0.10541150  0.39191300  1
  Zr  Zr25  1  0.13082700  0.50000000  0.09670600  1
  Zr  Zr26  1  0.93727150  0.39458850  0.10808700  1
  Zr  Zr27  1  0.93727150  0.89458850  0.39191300  1
  B  B28  1  0.50000000  0.00000000  0.00000000  1
  B  B29  1  0.00000000  0.00000000  0.50000000  1
  B  B30  1  0.00000000  0.50000000  0.00000000  1
  B  B31  1  0.50000000  0.50000000  0.50000000  1
  I  I32  1  0.58772500  0.12335800  0.24704100  1
  I  I33  1  0.41227500  0.87664200  0.75295900  1
  I  I34  1  0.64628900  0.75000000  0.75000000  1
  I  I35  1  0.23559250  0.87575650  0.50678500  1
  I  I36  1  0.34556600  0.00000000  0.25743500  1
  I  I37  1  0.26440750  0.12424350  0.00678500  1
  I  I38  1  0.15443400  0.00000000  0.75743500  1
  I  I39  1  0.50000000  0.74857400  0.50000000  1
  I  I40  1  0.65443400  0.00000000  0.74256500  1
  I  I41  1  0.76440750  0.87575650  0.49321500  1
  I  I42  1  0.50000000  0.25142600  0.50000000  1
  I  I43  1  0.41227500  0.37664200  0.74704100  1
  I  I44  1  0.73559250  0.12424350  0.99321500  1
  I  I45  1  0.35371100  0.25000000  0.25000000  1
  I  I46  1  0.58772500  0.87664200  0.24704100  1
  I  I47  1  0.50000000  0.75142600  0.00000000  1
  I  I48  1  0.64628900  0.25000000  0.75000000  1
  I  I49  1  0.73559250  0.87575650  0.99321500  1
  I  I50  1  0.41227500  0.12335800  0.75295900  1
  I  I51  1  0.23559250  0.12424350  0.50678500  1
  I  I52  1  0.50000000  0.24857400  0.00000000  1
  I  I53  1  0.41227500  0.62335800  0.74704100  1
  I  I54  1  0.76440750  0.12424350  0.49321500  1
  I  I55  1  0.58772500  0.37664200  0.25295900  1
  I  I56  1  0.84556600  0.00000000  0.24256500  1
  I  I57  1  0.58772500  0.62335800  0.25295900  1
  I  I58  1  0.26440750  0.87575650  0.00678500  1
  I  I59  1  0.35371100  0.75000000  0.25000000  1
  I  I60  1  0.08772500  0.62335800  0.24704100  1
  I  I61  1  0.91227500  0.37664200  0.75295900  1
  I  I62  1  0.14628900  0.25000000  0.75000000  1
  I  I63  1  0.73559250  0.37575650  0.50678500  1
  I  I64  1  0.84556600  0.50000000  0.25743500  1
  I  I65  1  0.76440750  0.62424350  0.00678500  1
  I  I66  1  0.65443400  0.50000000  0.75743500  1
  I  I67  1  0.00000000  0.24857400  0.50000000  1
  I  I68  1  0.15443400  0.50000000  0.74256500  1
  I  I69  1  0.26440750  0.37575650  0.49321500  1
  I  I70  1  0.00000000  0.75142600  0.50000000  1
  I  I71  1  0.91227500  0.87664200  0.74704100  1
  I  I72  1  0.23559250  0.62424350  0.99321500  1
  I  I73  1  0.85371100  0.75000000  0.25000000  1
  I  I74  1  0.08772500  0.37664200  0.24704100  1
  I  I75  1  0.00000000  0.25142600  0.00000000  1
  I  I76  1  0.14628900  0.75000000  0.75000000  1
  I  I77  1  0.23559250  0.37575650  0.99321500  1
  I  I78  1  0.91227500  0.62335800  0.75295900  1
  I  I79  1  0.73559250  0.62424350  0.50678500  1
  I  I80  1  0.00000000  0.74857400  0.00000000  1
  I  I81  1  0.91227500  0.12335800  0.74704100  1
  I  I82  1  0.26440750  0.62424350  0.49321500  1
  I  I83  1  0.08772500  0.87664200  0.25295900  1
  I  I84  1  0.34556600  0.50000000  0.24256500  1
  I  I85  1  0.08772500  0.12335800  0.25295900  1
  I  I86  1  0.76440750  0.37575650  0.00678500  1
  I  I87  1  0.85371100  0.25000000  0.25000000  1
