# generated using pymatgen
data_Cs2NaCrF6
_symmetry_space_group_name_H-M   'P 1'
_cell_length_a   6.35921195
_cell_length_b   6.35921195
_cell_length_c   30.97635054
_cell_angle_alpha   90.00000000
_cell_angle_beta   90.00000000
_cell_angle_gamma   120.00000000
_symmetry_Int_Tables_number   1
_chemical_formula_structural   Cs2NaCrF6
_chemical_formula_sum   'Cs12 Na6 Cr6 F36'
_cell_volume   1084.84447596
_cell_formula_units_Z   6
loop_
 _symmetry_equiv_pos_site_id
 _symmetry_equiv_pos_as_xyz
  1  'x, y, z'
loop_
 _atom_site_type_symbol
 _atom_site_label
 _atom_site_symmetry_multiplicity
 _atom_site_fract_x
 _atom_site_fract_y
 _atom_site_fract_z
 _atom_site_occupancy
  Cs  Cs0  1  0.66666667  0.33333333  0.05133333  1
  Cs  Cs1  1  0.00000000  0.00000000  0.28200000  1
  Cs  Cs2  1  0.66666667  0.33333333  0.20528433  1
  Cs  Cs3  1  0.00000000  0.00000000  0.12804900  1
  Cs  Cs4  1  0.33333333  0.66666667  0.38466667  1
  Cs  Cs5  1  0.66666667  0.33333333  0.61533333  1
  Cs  Cs6  1  0.33333333  0.66666667  0.53861767  1
  Cs  Cs7  1  0.66666667  0.33333333  0.46138233  1
  Cs  Cs8  1  0.00000000  0.00000000  0.71800000  1
  Cs  Cs9  1  0.33333333  0.66666667  0.94866667  1
  Cs  Cs10  1  0.00000000  0.00000000  0.87195100  1
  Cs  Cs11  1  0.33333333  0.66666667  0.79471567  1
  Na  Na12  1  0.33333333  0.66666667  0.06988767  1
  Na  Na13  1  0.33333333  0.66666667  0.26344567  1
  Na  Na14  1  0.00000000  0.00000000  0.40322100  1
  Na  Na15  1  0.00000000  0.00000000  0.59677900  1
  Na  Na16  1  0.66666667  0.33333333  0.73655433  1
  Na  Na17  1  0.66666667  0.33333333  0.93011233  1
  Cr  Cr18  1  0.00000000  0.00000000  0.00000000  1
  Cr  Cr19  1  0.33333333  0.66666667  0.16666667  1
  Cr  Cr20  1  0.66666667  0.33333333  0.33333333  1
  Cr  Cr21  1  1.00000000  1.00000000  0.50000000  1
  Cr  Cr22  1  0.33333333  0.66666667  0.66666667  1
  Cr  Cr23  1  0.66666667  0.33333333  0.83333333  1
  F  F24  1  0.14696400  0.29392800  0.03611500  1
  F  F25  1  0.70607200  0.85303600  0.03611500  1
  F  F26  1  0.14696400  0.85303600  0.03611500  1
  F  F27  1  0.51970267  0.48029733  0.29721833  1
  F  F28  1  0.51970267  0.03940533  0.29721833  1
  F  F29  1  0.96059467  0.48029733  0.29721833  1
  F  F30  1  0.19136700  0.38273400  0.20474800  1
  F  F31  1  0.61726600  0.80863300  0.20474800  1
  F  F32  1  0.04940067  0.52470033  0.12858533  1
  F  F33  1  0.47529967  0.95059933  0.12858533  1
  F  F34  1  0.47529967  0.52470033  0.12858533  1
  F  F35  1  0.19136700  0.80863300  0.20474800  1
  F  F36  1  0.81363067  0.62726133  0.36944833  1
  F  F37  1  0.37273867  0.18636933  0.36944833  1
  F  F38  1  0.81363067  0.18636933  0.36944833  1
  F  F39  1  0.18636933  0.81363067  0.63055167  1
  F  F40  1  0.18636933  0.37273867  0.63055167  1
  F  F41  1  0.62726133  0.81363067  0.63055167  1
  F  F42  1  0.85803367  0.71606733  0.53808133  1
  F  F43  1  0.28393267  0.14196633  0.53808133  1
  F  F44  1  0.71606733  0.85803367  0.46191867  1
  F  F45  1  0.14196633  0.28393267  0.46191867  1
  F  F46  1  0.14196633  0.85803367  0.46191867  1
  F  F47  1  0.85803367  0.14196633  0.53808133  1
  F  F48  1  0.48029733  0.96059467  0.70278167  1
  F  F49  1  0.03940533  0.51970267  0.70278167  1
  F  F50  1  0.48029733  0.51970267  0.70278167  1
  F  F51  1  0.85303600  0.14696400  0.96388500  1
  F  F52  1  0.85303600  0.70607200  0.96388500  1
  F  F53  1  0.29392800  0.14696400  0.96388500  1
  F  F54  1  0.52470033  0.04940067  0.87141467  1
  F  F55  1  0.95059933  0.47529967  0.87141467  1
  F  F56  1  0.38273400  0.19136700  0.79525200  1
  F  F57  1  0.80863300  0.61726600  0.79525200  1
  F  F58  1  0.80863300  0.19136700  0.79525200  1
  F  F59  1  0.52470033  0.47529967  0.87141467  1
