# generated using pymatgen
data_Cs3Tb10C4Cl21
_symmetry_space_group_name_H-M   'P 1'
_cell_length_a   23.54285400
_cell_length_b   12.64786200
_cell_length_c   15.28033891
_cell_angle_alpha   90.00000000
_cell_angle_beta   98.15886629
_cell_angle_gamma   90.00000000
_symmetry_Int_Tables_number   1
_chemical_formula_structural   Cs3Tb10C4Cl21
_chemical_formula_sum   'Cs12 Tb40 C16 Cl84'
_cell_volume   4503.92396133
_cell_formula_units_Z   4
loop_
 _symmetry_equiv_pos_site_id
 _symmetry_equiv_pos_as_xyz
  1  'x, y, z'
loop_
 _atom_site_type_symbol
 _atom_site_label
 _atom_site_symmetry_multiplicity
 _atom_site_fract_x
 _atom_site_fract_y
 _atom_site_fract_z
 _atom_site_occupancy
  Cs  Cs0  1  0.00000000  0.02725700  0.75000000  1
  Cs  Cs1  1  0.00000000  0.97274300  0.25000000  1
  Cs  Cs2  1  0.60509400  0.25479000  0.54750700  1
  Cs  Cs3  1  0.89490600  0.75479000  0.95249300  1
  Cs  Cs4  1  0.89490600  0.24521000  0.45249300  1
  Cs  Cs5  1  0.60509400  0.74521000  0.04750700  1
  Cs  Cs6  1  0.50000000  0.52725700  0.75000000  1
  Cs  Cs7  1  0.50000000  0.47274300  0.25000000  1
  Cs  Cs8  1  0.10509400  0.75479000  0.54750700  1
  Cs  Cs9  1  0.39490600  0.25479000  0.95249300  1
  Cs  Cs10  1  0.39490600  0.74521000  0.45249300  1
  Cs  Cs11  1  0.10509400  0.24521000  0.04750700  1
  Tb  Tb12  1  0.62910700  0.87459100  0.62870600  1
  Tb  Tb13  1  0.59624600  0.36347400  0.01654300  1
  Tb  Tb14  1  0.78362000  0.13559600  0.80018000  1
  Tb  Tb15  1  0.62315700  0.87133200  0.38150300  1
  Tb  Tb16  1  0.76322750  0.13716550  0.04038300  1
  Tb  Tb17  1  0.76322750  0.86283450  0.54038300  1
  Tb  Tb18  1  0.62910700  0.12540900  0.12870600  1
  Tb  Tb19  1  0.87684300  0.62866800  0.61849700  1
  Tb  Tb20  1  0.71638000  0.63559600  0.69982000  1
  Tb  Tb21  1  0.90375400  0.13652600  0.98345700  1
  Tb  Tb22  1  0.62315700  0.12866800  0.88150300  1
  Tb  Tb23  1  0.73677250  0.36283450  0.95961700  1
  Tb  Tb24  1  0.87684300  0.37133200  0.11849700  1
  Tb  Tb25  1  0.87089300  0.62540900  0.37129400  1
  Tb  Tb26  1  0.71638000  0.36440400  0.19982000  1
  Tb  Tb27  1  0.90375400  0.86347400  0.48345700  1
  Tb  Tb28  1  0.59624600  0.63652600  0.51654300  1
  Tb  Tb29  1  0.78362000  0.86440400  0.30018000  1
  Tb  Tb30  1  0.73677250  0.63716550  0.45961700  1
  Tb  Tb31  1  0.87089300  0.37459100  0.87129400  1
  Tb  Tb32  1  0.12910700  0.37459100  0.62870600  1
  Tb  Tb33  1  0.09624600  0.86347400  0.01654300  1
  Tb  Tb34  1  0.28362000  0.63559600  0.80018000  1
  Tb  Tb35  1  0.12315700  0.37133200  0.38150300  1
  Tb  Tb36  1  0.26322750  0.63716550  0.04038300  1
  Tb  Tb37  1  0.26322750  0.36283450  0.54038300  1
  Tb  Tb38  1  0.12910700  0.62540900  0.12870600  1
  Tb  Tb39  1  0.37684300  0.12866800  0.61849700  1
  Tb  Tb40  1  0.21638000  0.13559600  0.69982000  1
  Tb  Tb41  1  0.40375400  0.63652600  0.98345700  1
  Tb  Tb42  1  0.12315700  0.62866800  0.88150300  1
  Tb  Tb43  1  0.23677250  0.86283450  0.95961700  1
  Tb  Tb44  1  0.37684300  0.87133200  0.11849700  1
  Tb  Tb45  1  0.37089300  0.12540900  0.37129400  1
  Tb  Tb46  1  0.21638000  0.86440400  0.19982000  1
  Tb  Tb47  1  0.40375400  0.36347400  0.48345700  1
  Tb  Tb48  1  0.09624600  0.13652600  0.51654300  1
  Tb  Tb49  1  0.28362000  0.36440400  0.30018000  1
  Tb  Tb50  1  0.23677250  0.13716550  0.45961700  1
  Tb  Tb51  1  0.37089300  0.87459100  0.87129400  1
  C  C52  1  0.83437100  0.28579700  0.99797300  1
  C  C53  1  0.81273600  0.77825000  0.42360000  1
  C  C54  1  0.68726400  0.27825000  0.07640000  1
  C  C55  1  0.68726400  0.72175000  0.57640000  1
  C  C56  1  0.81273600  0.22175000  0.92360000  1
  C  C57  1  0.83437100  0.71420300  0.49797300  1
  C  C58  1  0.66562900  0.21420300  0.00202700  1
  C  C59  1  0.66562900  0.78579700  0.50202700  1
  C  C60  1  0.33437100  0.78579700  0.99797300  1
  C  C61  1  0.31273600  0.27825000  0.42360000  1
  C  C62  1  0.18726400  0.77825000  0.07640000  1
  C  C63  1  0.18726400  0.22175000  0.57640000  1
  C  C64  1  0.31273600  0.72175000  0.92360000  1
  C  C65  1  0.33437100  0.21420300  0.49797300  1
  C  C66  1  0.16562900  0.71420300  0.00202700  1
  C  C67  1  0.16562900  0.28579700  0.50202700  1
  Cl  Cl68  1  0.72170400  0.00453200  0.89760100  1
  Cl  Cl69  1  0.53292300  0.75532500  0.61349000  1
  Cl  Cl70  1  0.53781000  0.27467000  0.86601100  1
  Cl  Cl71  1  0.68512450  0.74203150  0.27811000  1
  Cl  Cl72  1  0.53781000  0.72533000  0.36601100  1
  Cl  Cl73  1  0.53292300  0.24467500  0.11349000  1
  Cl  Cl74  1  0.87324450  0.00389250  0.83869400  1
  Cl  Cl75  1  0.81487550  0.24203150  0.22189000  1
  Cl  Cl76  1  0.96707700  0.25532500  0.88651000  1
  Cl  Cl77  1  0.65993350  0.22875550  0.28964800  1
  Cl  Cl78  1  0.78013500  0.51256600  0.85340300  1
  Cl  Cl79  1  0.77829600  0.49546800  0.10239900  1
  Cl  Cl80  1  0.57626350  0.99753050  0.48963200  1
  Cl  Cl81  1  0.64521750  0.50319650  0.92092600  1
  Cl  Cl82  1  0.58188400  0.97071400  0.22246700  1
  Cl  Cl83  1  0.57626350  0.00246950  0.98963200  1
  Cl  Cl84  1  0.96219000  0.77467000  0.63398900  1
  Cl  Cl85  1  0.71986500  0.98743400  0.14659700  1
  Cl  Cl86  1  0.96707700  0.74467500  0.38651000  1
  Cl  Cl87  1  0.84006650  0.72875550  0.21035200  1
  Cl  Cl88  1  0.62675550  0.49610750  0.16130600  1
  Cl  Cl89  1  0.78013500  0.48743400  0.35340300  1
  Cl  Cl90  1  0.68512450  0.25796850  0.77811000  1
  Cl  Cl91  1  0.65993350  0.77124450  0.78964800  1
  Cl  Cl92  1  0.91811600  0.47071400  0.27753300  1
  Cl  Cl93  1  0.71986500  0.01256600  0.64659700  1
  Cl  Cl94  1  0.87324450  0.99610750  0.33869400  1
  Cl  Cl95  1  0.00000000  0.00000000  0.00000000  1
  Cl  Cl96  1  0.85478250  0.99680350  0.07907400  1
  Cl  Cl97  1  0.92373650  0.50246950  0.51036800  1
  Cl  Cl98  1  0.92373650  0.49753050  0.01036800  1
  Cl  Cl99  1  0.81487550  0.75796850  0.72189000  1
  Cl  Cl100  1  0.58188400  0.02928600  0.72246700  1
  Cl  Cl101  1  0.84006650  0.27124450  0.71035200  1
  Cl  Cl102  1  0.85478250  0.00319650  0.57907400  1
  Cl  Cl103  1  0.72170400  0.99546800  0.39760100  1
  Cl  Cl104  1  0.62675550  0.50389250  0.66130600  1
  Cl  Cl105  1  0.96219000  0.22533000  0.13398900  1
  Cl  Cl106  1  0.77829600  0.50453200  0.60239900  1
  Cl  Cl107  1  0.91811600  0.52928600  0.77753300  1
  Cl  Cl108  1  0.64521750  0.49680350  0.42092600  1
  Cl  Cl109  1  0.00000000  0.00000000  0.50000000  1
  Cl  Cl110  1  0.22170400  0.50453200  0.89760100  1
  Cl  Cl111  1  0.03292300  0.25532500  0.61349000  1
  Cl  Cl112  1  0.03781000  0.77467000  0.86601100  1
  Cl  Cl113  1  0.18512450  0.24203150  0.27811000  1
  Cl  Cl114  1  0.03781000  0.22533000  0.36601100  1
  Cl  Cl115  1  0.03292300  0.74467500  0.11349000  1
  Cl  Cl116  1  0.37324450  0.50389250  0.83869400  1
  Cl  Cl117  1  0.31487550  0.74203150  0.22189000  1
  Cl  Cl118  1  0.46707700  0.75532500  0.88651000  1
  Cl  Cl119  1  0.15993350  0.72875550  0.28964800  1
  Cl  Cl120  1  0.28013500  0.01256600  0.85340300  1
  Cl  Cl121  1  0.27829600  0.99546800  0.10239900  1
  Cl  Cl122  1  0.07626350  0.49753050  0.48963200  1
  Cl  Cl123  1  0.14521750  0.00319650  0.92092600  1
  Cl  Cl124  1  0.08188400  0.47071400  0.22246700  1
  Cl  Cl125  1  0.07626350  0.50246950  0.98963200  1
  Cl  Cl126  1  0.46219000  0.27467000  0.63398900  1
  Cl  Cl127  1  0.21986500  0.48743400  0.14659700  1
  Cl  Cl128  1  0.46707700  0.24467500  0.38651000  1
  Cl  Cl129  1  0.34006650  0.22875550  0.21035200  1
  Cl  Cl130  1  0.12675550  0.99610750  0.16130600  1
  Cl  Cl131  1  0.28013500  0.98743400  0.35340300  1
  Cl  Cl132  1  0.18512450  0.75796850  0.77811000  1
  Cl  Cl133  1  0.15993350  0.27124450  0.78964800  1
  Cl  Cl134  1  0.41811600  0.97071400  0.27753300  1
  Cl  Cl135  1  0.21986500  0.51256600  0.64659700  1
  Cl  Cl136  1  0.37324450  0.49610750  0.33869400  1
  Cl  Cl137  1  0.50000000  0.50000000  0.00000000  1
  Cl  Cl138  1  0.35478250  0.49680350  0.07907400  1
  Cl  Cl139  1  0.42373650  0.00246950  0.51036800  1
  Cl  Cl140  1  0.42373650  0.99753050  0.01036800  1
  Cl  Cl141  1  0.31487550  0.25796850  0.72189000  1
  Cl  Cl142  1  0.08188400  0.52928600  0.72246700  1
  Cl  Cl143  1  0.34006650  0.77124450  0.71035200  1
  Cl  Cl144  1  0.35478250  0.50319650  0.57907400  1
  Cl  Cl145  1  0.22170400  0.49546800  0.39760100  1
  Cl  Cl146  1  0.12675550  0.00389250  0.66130600  1
  Cl  Cl147  1  0.46219000  0.72533000  0.13398900  1
  Cl  Cl148  1  0.27829600  0.00453200  0.60239900  1
  Cl  Cl149  1  0.41811600  0.02928600  0.77753300  1
  Cl  Cl150  1  0.14521750  0.99680350  0.42092600  1
  Cl  Cl151  1  0.50000000  0.50000000  0.50000000  1
