# generated using pymatgen
data_BaLiZr2F11
_symmetry_space_group_name_H-M   'P 1'
_cell_length_a   8.33752200
_cell_length_b   8.33752200
_cell_length_c   11.45603600
_cell_angle_alpha   90.00000000
_cell_angle_beta   90.00000000
_cell_angle_gamma   90.00000000
_symmetry_Int_Tables_number   1
_chemical_formula_structural   BaLiZr2F11
_chemical_formula_sum   'Ba4 Li4 Zr8 F44'
_cell_volume   796.35801515
_cell_formula_units_Z   4
loop_
 _symmetry_equiv_pos_site_id
 _symmetry_equiv_pos_as_xyz
  1  'x, y, z'
loop_
 _atom_site_type_symbol
 _atom_site_label
 _atom_site_symmetry_multiplicity
 _atom_site_fract_x
 _atom_site_fract_y
 _atom_site_fract_z
 _atom_site_occupancy
  Ba  Ba0  1  0.00000000  0.00000000  0.19324400  1
  Ba  Ba1  1  0.00000000  0.00000000  0.80675600  1
  Ba  Ba2  1  0.50000000  0.50000000  0.69324400  1
  Ba  Ba3  1  0.50000000  0.50000000  0.30675600  1
  Li  Li4  1  0.00000000  0.50000000  0.25000000  1
  Li  Li5  1  0.50000000  0.00000000  0.25000000  1
  Li  Li6  1  0.50000000  0.00000000  0.75000000  1
  Li  Li7  1  0.00000000  0.50000000  0.75000000  1
  Zr  Zr8  1  0.21502100  0.63653500  0.00000000  1
  Zr  Zr9  1  0.13653500  0.28497900  0.50000000  1
  Zr  Zr10  1  0.28497900  0.86346500  0.50000000  1
  Zr  Zr11  1  0.36346500  0.21502100  0.00000000  1
  Zr  Zr12  1  0.71502100  0.13653500  0.50000000  1
  Zr  Zr13  1  0.63653500  0.78497900  0.00000000  1
  Zr  Zr14  1  0.78497900  0.36346500  0.00000000  1
  Zr  Zr15  1  0.86346500  0.71502100  0.50000000  1
  F  F16  1  0.92731400  0.20515100  0.60439800  1
  F  F17  1  0.37880600  0.31398400  0.50000000  1
  F  F18  1  0.67480050  0.88908650  0.16331350  1
  F  F19  1  0.38908650  0.82519950  0.33668650  1
  F  F20  1  0.29484900  0.42731400  0.10439800  1
  F  F21  1  0.20515100  0.07268600  0.60439800  1
  F  F22  1  0.88908650  0.32519950  0.16331350  1
  F  F23  1  0.92731400  0.20515100  0.39560200  1
  F  F24  1  0.61091350  0.17480050  0.33668650  1
  F  F25  1  0.81398400  0.12119400  0.00000000  1
  F  F26  1  0.00000000  0.50000000  0.00000000  1
  F  F27  1  0.68601600  0.37880600  0.50000000  1
  F  F28  1  0.82519950  0.61091350  0.33668650  1
  F  F29  1  0.20515100  0.07268600  0.39560200  1
  F  F30  1  0.57268600  0.29484900  0.10439800  1
  F  F31  1  0.57268600  0.29484900  0.89560200  1
  F  F32  1  0.29484900  0.42731400  0.89560200  1
  F  F33  1  0.11091350  0.67480050  0.16331350  1
  F  F34  1  0.50000000  0.00000000  0.00000000  1
  F  F35  1  0.17480050  0.38908650  0.33668650  1
  F  F36  1  0.12119400  0.18601600  0.00000000  1
  F  F37  1  0.32519950  0.11091350  0.16331350  1
  F  F38  1  0.42731400  0.70515100  0.10439800  1
  F  F39  1  0.87880600  0.81398400  0.00000000  1
  F  F40  1  0.17480050  0.38908650  0.66331350  1
  F  F41  1  0.88908650  0.32519950  0.83668650  1
  F  F42  1  0.79484900  0.92731400  0.60439800  1
  F  F43  1  0.70515100  0.57268600  0.10439800  1
  F  F44  1  0.38908650  0.82519950  0.66331350  1
  F  F45  1  0.42731400  0.70515100  0.89560200  1
  F  F46  1  0.11091350  0.67480050  0.83668650  1
  F  F47  1  0.31398400  0.62119400  0.50000000  1
  F  F48  1  0.50000000  0.00000000  0.50000000  1
  F  F49  1  0.18601600  0.87880600  0.00000000  1
  F  F50  1  0.32519950  0.11091350  0.83668650  1
  F  F51  1  0.70515100  0.57268600  0.89560200  1
  F  F52  1  0.07268600  0.79484900  0.60439800  1
  F  F53  1  0.07268600  0.79484900  0.39560200  1
  F  F54  1  0.79484900  0.92731400  0.39560200  1
  F  F55  1  0.61091350  0.17480050  0.66331350  1
  F  F56  1  0.00000000  0.50000000  0.50000000  1
  F  F57  1  0.67480050  0.88908650  0.83668650  1
  F  F58  1  0.62119400  0.68601600  0.50000000  1
  F  F59  1  0.82519950  0.61091350  0.66331350  1
