# generated using pymatgen
data_RbNb(GeO3)3
_symmetry_space_group_name_H-M   'P 1'
_cell_length_a   7.16918583
_cell_length_b   7.16918583
_cell_length_c   10.32929800
_cell_angle_alpha   90.00000000
_cell_angle_beta   90.00000000
_cell_angle_gamma   120.00000000
_symmetry_Int_Tables_number   1
_chemical_formula_structural   RbNb(GeO3)3
_chemical_formula_sum   'Rb2 Nb2 Ge6 O18'
_cell_volume   459.77051194
_cell_formula_units_Z   2
loop_
 _symmetry_equiv_pos_site_id
 _symmetry_equiv_pos_as_xyz
  1  'x, y, z'
loop_
 _atom_site_type_symbol
 _atom_site_label
 _atom_site_symmetry_multiplicity
 _atom_site_fract_x
 _atom_site_fract_y
 _atom_site_fract_z
 _atom_site_occupancy
  Rb  Rb0  1  0.66666667  0.33333333  0.00000000  1
  Rb  Rb1  1  0.66666667  0.33333333  0.50000000  1
  Nb  Nb2  1  0.33333333  0.66666667  0.00000000  1
  Nb  Nb3  1  0.33333333  0.66666667  0.50000000  1
  Ge  Ge4  1  0.07603767  0.28809533  0.25000000  1
  Ge  Ge5  1  0.21205767  0.92396233  0.25000000  1
  Ge  Ge6  1  0.71190467  0.78794233  0.25000000  1
  Ge  Ge7  1  0.71190467  0.92396233  0.75000000  1
  Ge  Ge8  1  0.21205767  0.28809533  0.75000000  1
  Ge  Ge9  1  0.07603767  0.78794233  0.75000000  1
  O  O10  1  0.26412867  0.19482233  0.25000000  1
  O  O11  1  0.93069367  0.73587133  0.25000000  1
  O  O12  1  0.80517767  0.06930633  0.25000000  1
  O  O13  1  0.80517767  0.73587133  0.75000000  1
  O  O14  1  0.93069367  0.19482233  0.75000000  1
  O  O15  1  0.26412867  0.06930633  0.75000000  1
  O  O16  1  0.10187767  0.43823433  0.11067400  1
  O  O17  1  0.33635667  0.89812233  0.38932600  1
  O  O18  1  0.56176567  0.66364333  0.38932600  1
  O  O19  1  0.56176567  0.66364333  0.11067400  1
  O  O20  1  0.33635667  0.89812233  0.11067400  1
  O  O21  1  0.56176567  0.89812233  0.88932600  1
  O  O22  1  0.33635667  0.43823433  0.88932600  1
  O  O23  1  0.10187767  0.66364333  0.88932600  1
  O  O24  1  0.33635667  0.43823433  0.61067400  1
  O  O25  1  0.10187767  0.66364333  0.61067400  1
  O  O26  1  0.10187767  0.43823433  0.38932600  1
  O  O27  1  0.56176567  0.89812233  0.61067400  1
