# generated using pymatgen
data_CaMg3Si3O10
_symmetry_space_group_name_H-M   'P 1'
_cell_length_a   8.93076100
_cell_length_b   9.83294466
_cell_length_c   10.38657191
_cell_angle_alpha   115.62343353
_cell_angle_beta   84.01368025
_cell_angle_gamma   114.12731194
_symmetry_Int_Tables_number   1
_chemical_formula_structural   CaMg3Si3O10
_chemical_formula_sum   'Ca4 Mg12 Si12 O40'
_cell_volume   747.64076892
_cell_formula_units_Z   4
loop_
 _symmetry_equiv_pos_site_id
 _symmetry_equiv_pos_as_xyz
  1  'x, y, z'
loop_
 _atom_site_type_symbol
 _atom_site_label
 _atom_site_symmetry_multiplicity
 _atom_site_fract_x
 _atom_site_fract_y
 _atom_site_fract_z
 _atom_site_occupancy
  Ca  Ca0  1  0.38303900  0.63362700  0.42778800  1
  Ca  Ca1  1  0.61696100  0.36637300  0.57221200  1
  Ca  Ca2  1  0.36605300  0.61894000  0.94984600  1
  Ca  Ca3  1  0.63394700  0.38106000  0.05015400  1
  Mg  Mg4  1  0.50000000  0.00000000  0.00000000  1
  Mg  Mg5  1  0.00000000  0.50000000  0.50000000  1
  Mg  Mg6  1  0.16812800  0.84731800  0.54030300  1
  Mg  Mg7  1  0.83187200  0.15268200  0.45969700  1
  Mg  Mg8  1  0.15289300  0.83344500  0.05036100  1
  Mg  Mg9  1  0.84710700  0.16655500  0.94963900  1
  Mg  Mg10  1  0.06702100  0.93014700  0.84110700  1
  Mg  Mg11  1  0.93297900  0.06985300  0.15889300  1
  Mg  Mg12  1  0.06478900  0.94172800  0.34488900  1
  Mg  Mg13  1  0.93521100  0.05827200  0.65511100  1
  Mg  Mg14  1  0.25746900  0.74372300  0.74697700  1
  Mg  Mg15  1  0.74253100  0.25627700  0.25302300  1
  Si  Si16  1  0.32932800  0.22956400  0.75684800  1
  Si  Si17  1  0.67067200  0.77043600  0.24315200  1
  Si  Si18  1  0.34001300  0.22635200  0.24900200  1
  Si  Si19  1  0.65998700  0.77364800  0.75099800  1
  Si  Si20  1  0.23361100  0.33683100  0.55065400  1
  Si  Si21  1  0.76638900  0.66316900  0.44934600  1
  Si  Si22  1  0.22043100  0.33350400  0.06229700  1
  Si  Si23  1  0.77956900  0.66649600  0.93770300  1
  Si  Si24  1  0.43883600  0.94775000  0.30439900  1
  Si  Si25  1  0.56116400  0.05225000  0.69560100  1
  Si  Si26  1  0.04795300  0.56359000  0.20187400  1
  Si  Si27  1  0.95204700  0.43641000  0.79812600  1
  O  O28  1  0.16278000  0.06721000  0.71211300  1
  O  O29  1  0.83722000  0.93279000  0.28788700  1
  O  O30  1  0.16931900  0.06506800  0.21459300  1
  O  O31  1  0.83068100  0.93493200  0.78540700  1
  O  O32  1  0.28759400  0.95489800  0.40555500  1
  O  O33  1  0.71240600  0.04510200  0.59444500  1
  O  O34  1  0.27092500  0.94222300  0.92506500  1
  O  O35  1  0.72907500  0.05777700  0.07493500  1
  O  O36  1  0.39906000  0.87632100  0.62380700  1
  O  O37  1  0.60094000  0.12367900  0.37619300  1
  O  O38  1  0.38412200  0.87426300  0.13243700  1
  O  O39  1  0.61587800  0.12573700  0.86756300  1
  O  O40  1  0.49722300  0.19986500  0.70194200  1
  O  O41  1  0.50277700  0.80013500  0.29805800  1
  O  O42  1  0.49066300  0.77759500  0.82174300  1
  O  O43  1  0.50933700  0.22240500  0.17825700  1
  O  O44  1  0.37388800  0.31832500  0.42876200  1
  O  O45  1  0.62611200  0.68167500  0.57123800  1
  O  O46  1  0.35831000  0.34004100  0.93685600  1
  O  O47  1  0.64169000  0.65995900  0.06314400  1
  O  O48  1  0.06998400  0.16795900  0.51677600  1
  O  O49  1  0.93001600  0.83204100  0.48322400  1
  O  O50  1  0.06316700  0.16296400  0.00858200  1
  O  O51  1  0.93683300  0.83703600  0.99141800  1
  O  O52  1  0.03938800  0.71497900  0.18079300  1
  O  O53  1  0.96061200  0.28502100  0.81920700  1
  O  O54  1  0.05978800  0.72958300  0.66021100  1
  O  O55  1  0.94021200  0.27041700  0.33978900  1
  O  O56  1  0.12304800  0.61567200  0.36295300  1
  O  O57  1  0.87695200  0.38432800  0.63704700  1
  O  O58  1  0.12751500  0.59986600  0.86367600  1
  O  O59  1  0.87248500  0.40013400  0.13632400  1
  O  O60  1  0.19211000  0.50041000  0.09780900  1
  O  O61  1  0.80789000  0.49959000  0.90219100  1
  O  O62  1  0.22512400  0.50688800  0.57371900  1
  O  O63  1  0.77487600  0.49311200  0.42628100  1
  O  O64  1  0.31824000  0.36784700  0.20739600  1
  O  O65  1  0.68176000  0.63215300  0.79260400  1
  O  O66  1  0.33822300  0.36582300  0.69666600  1
  O  O67  1  0.66177700  0.63417700  0.30333400  1
