# generated using pymatgen
data_Ba3Lu(BO2)9
_symmetry_space_group_name_H-M   'P 1'
_cell_length_a   7.25957167
_cell_length_b   7.25957167
_cell_length_c   17.26634700
_cell_angle_alpha   90.00000000
_cell_angle_beta   90.00000000
_cell_angle_gamma   120.00000000
_symmetry_Int_Tables_number   1
_chemical_formula_structural   Ba3Lu(BO2)9
_chemical_formula_sum   'Ba6 Lu2 B18 O36'
_cell_volume   788.04876021
_cell_formula_units_Z   2
loop_
 _symmetry_equiv_pos_site_id
 _symmetry_equiv_pos_as_xyz
  1  'x, y, z'
loop_
 _atom_site_type_symbol
 _atom_site_label
 _atom_site_symmetry_multiplicity
 _atom_site_fract_x
 _atom_site_fract_y
 _atom_site_fract_z
 _atom_site_occupancy
  Ba  Ba0  1  0.66666667  0.33333333  0.36905600  1
  Ba  Ba1  1  0.00000000  0.00000000  0.25000000  1
  Ba  Ba2  1  0.66666667  0.33333333  0.13094400  1
  Ba  Ba3  1  0.33333333  0.66666667  0.63094400  1
  Ba  Ba4  1  0.33333333  0.66666667  0.86905600  1
  Ba  Ba5  1  0.00000000  0.00000000  0.75000000  1
  Lu  Lu6  1  0.00000000  0.00000000  0.50000000  1
  Lu  Lu7  1  0.00000000  0.00000000  0.00000000  1
  B  B8  1  0.28110000  0.83304900  0.08012800  1
  B  B9  1  0.49481100  0.11699000  0.75000000  1
  B  B10  1  0.37782100  0.49481100  0.25000000  1
  B  B11  1  0.83304900  0.55194900  0.91987200  1
  B  B12  1  0.55194900  0.71890000  0.41987200  1
  B  B13  1  0.16695100  0.44805100  0.41987200  1
  B  B14  1  0.16695100  0.44805100  0.08012800  1
  B  B15  1  0.50518900  0.88301000  0.25000000  1
  B  B16  1  0.44805100  0.28110000  0.58012800  1
  B  B17  1  0.88301000  0.37782100  0.75000000  1
  B  B18  1  0.71890000  0.16695100  0.91987200  1
  B  B19  1  0.11699000  0.62217900  0.25000000  1
  B  B20  1  0.62217900  0.50518900  0.75000000  1
  B  B21  1  0.28110000  0.83304900  0.41987200  1
  B  B22  1  0.44805100  0.28110000  0.91987200  1
  B  B23  1  0.83304900  0.55194900  0.58012800  1
  B  B24  1  0.71890000  0.16695100  0.58012800  1
  B  B25  1  0.55194900  0.71890000  0.08012800  1
  O  O26  1  0.87799800  0.38353200  0.58062900  1
  O  O27  1  0.38353200  0.50553400  0.08062900  1
  O  O28  1  0.87799800  0.38353200  0.91937100  1
  O  O29  1  0.23897700  0.99186900  0.42145400  1
  O  O30  1  0.66819000  0.08104700  0.25000000  1
  O  O31  1  0.49446600  0.87799800  0.41937100  1
  O  O32  1  0.12200200  0.61646800  0.08062900  1
  O  O33  1  0.75289200  0.76102300  0.07854600  1
  O  O34  1  0.61646800  0.49446600  0.91937100  1
  O  O35  1  0.91895300  0.58714300  0.25000000  1
  O  O36  1  0.76102300  0.00813100  0.57854600  1
  O  O37  1  0.24710800  0.23897700  0.57854600  1
  O  O38  1  0.70896600  0.16673400  0.75000000  1
  O  O39  1  0.83326600  0.54223200  0.75000000  1
  O  O40  1  0.41285700  0.33181000  0.25000000  1
  O  O41  1  0.38353200  0.50553400  0.41937100  1
  O  O42  1  0.00813100  0.24710800  0.07854600  1
  O  O43  1  0.58714300  0.66819000  0.75000000  1
  O  O44  1  0.50553400  0.12200200  0.58062900  1
  O  O45  1  0.61646800  0.49446600  0.58062900  1
  O  O46  1  0.45776800  0.29103400  0.75000000  1
  O  O47  1  0.99186900  0.75289200  0.57854600  1
  O  O48  1  0.00813100  0.24710800  0.42145400  1
  O  O49  1  0.75289200  0.76102300  0.42145400  1
  O  O50  1  0.24710800  0.23897700  0.92145400  1
  O  O51  1  0.29103400  0.83326600  0.25000000  1
  O  O52  1  0.08104700  0.41285700  0.75000000  1
  O  O53  1  0.54223200  0.70896600  0.25000000  1
  O  O54  1  0.12200200  0.61646800  0.41937100  1
  O  O55  1  0.49446600  0.87799800  0.08062900  1
  O  O56  1  0.76102300  0.00813100  0.92145400  1
  O  O57  1  0.23897700  0.99186900  0.07854600  1
  O  O58  1  0.99186900  0.75289200  0.92145400  1
  O  O59  1  0.16673400  0.45776800  0.25000000  1
  O  O60  1  0.50553400  0.12200200  0.91937100  1
  O  O61  1  0.33181000  0.91895300  0.75000000  1
