# generated using pymatgen
data_Ti(GaO2)4
_symmetry_space_group_name_H-M   'P 1'
_cell_length_a   12.44061400
_cell_length_b   3.05682000
_cell_length_c   9.60691563
_cell_angle_alpha   90.00000000
_cell_angle_beta   124.42104127
_cell_angle_gamma   90.00000000
_symmetry_Int_Tables_number   1
_chemical_formula_structural   Ti(GaO2)4
_chemical_formula_sum   'Ti2 Ga8 O16'
_cell_volume   301.37005799
_cell_formula_units_Z   2
loop_
 _symmetry_equiv_pos_site_id
 _symmetry_equiv_pos_as_xyz
  1  'x, y, z'
loop_
 _atom_site_type_symbol
 _atom_site_label
 _atom_site_symmetry_multiplicity
 _atom_site_fract_x
 _atom_site_fract_y
 _atom_site_fract_z
 _atom_site_occupancy
  Ti  Ti0  1  0.00000000  0.00000000  0.00000000  1
  Ti  Ti1  1  0.50000000  0.50000000  0.00000000  1
  Ga  Ga2  1  0.03571500  0.50000000  0.71202000  1
  Ga  Ga3  1  0.75935100  0.00000000  0.36258200  1
  Ga  Ga4  1  0.24064900  0.00000000  0.63741800  1
  Ga  Ga5  1  0.96428500  0.50000000  0.28798000  1
  Ga  Ga6  1  0.53571500  0.00000000  0.71202000  1
  Ga  Ga7  1  0.25935100  0.50000000  0.36258200  1
  Ga  Ga8  1  0.74064900  0.50000000  0.63741800  1
  Ga  Ga9  1  0.46428500  0.00000000  0.28798000  1
  O  O10  1  0.89226600  0.00000000  0.30972300  1
  O  O11  1  0.05473700  0.50000000  0.91885900  1
  O  O12  1  0.94526300  0.50000000  0.08114100  1
  O  O13  1  0.33330200  0.50000000  0.78174300  1
  O  O14  1  0.10773400  0.00000000  0.69027700  1
  O  O15  1  0.14551700  0.50000000  0.45925200  1
  O  O16  1  0.85448300  0.50000000  0.54074800  1
  O  O17  1  0.66669800  0.50000000  0.21825700  1
  O  O18  1  0.39226600  0.50000000  0.30972300  1
  O  O19  1  0.55473700  0.00000000  0.91885900  1
  O  O20  1  0.44526300  0.00000000  0.08114100  1
  O  O21  1  0.83330200  0.00000000  0.78174300  1
  O  O22  1  0.60773400  0.50000000  0.69027700  1
  O  O23  1  0.64551700  0.00000000  0.45925200  1
  O  O24  1  0.35448300  0.00000000  0.54074800  1
  O  O25  1  0.16669800  0.00000000  0.21825700  1
