# generated using pymatgen
data_LiMn(PO3)4
_symmetry_space_group_name_H-M   'P 1'
_cell_length_a   16.77196600
_cell_length_b   12.10656200
_cell_length_c   5.23126535
_cell_angle_alpha   90.00000000
_cell_angle_beta   100.63748274
_cell_angle_gamma   90.00000000
_symmetry_Int_Tables_number   1
_chemical_formula_structural   LiMn(PO3)4
_chemical_formula_sum   'Li4 Mn4 P16 O48'
_cell_volume   1043.95851408
_cell_formula_units_Z   4
loop_
 _symmetry_equiv_pos_site_id
 _symmetry_equiv_pos_as_xyz
  1  'x, y, z'
loop_
 _atom_site_type_symbol
 _atom_site_label
 _atom_site_symmetry_multiplicity
 _atom_site_fract_x
 _atom_site_fract_y
 _atom_site_fract_z
 _atom_site_occupancy
  Li  Li0  1  0.57402800  0.00000000  0.58461400  1
  Li  Li1  1  0.42597200  0.00000000  0.41538600  1
  Li  Li2  1  0.07402800  0.50000000  0.58461400  1
  Li  Li3  1  0.92597200  0.50000000  0.41538600  1
  Mn  Mn4  1  0.25000000  0.75000000  0.00000000  1
  Mn  Mn5  1  0.25000000  0.25000000  0.00000000  1
  Mn  Mn6  1  0.75000000  0.25000000  0.00000000  1
  Mn  Mn7  1  0.75000000  0.75000000  0.00000000  1
  P  P8  1  0.18319350  0.87850050  0.48370500  1
  P  P9  1  0.18319350  0.12149950  0.48370500  1
  P  P10  1  0.42329550  0.79117250  0.81882500  1
  P  P11  1  0.81680650  0.87850050  0.51629500  1
  P  P12  1  0.57670450  0.20882750  0.18117500  1
  P  P13  1  0.81680650  0.12149950  0.51629500  1
  P  P14  1  0.42329550  0.20882750  0.81882500  1
  P  P15  1  0.57670450  0.79117250  0.18117500  1
  P  P16  1  0.68319350  0.37850050  0.48370500  1
  P  P17  1  0.68319350  0.62149950  0.48370500  1
  P  P18  1  0.92329550  0.29117250  0.81882500  1
  P  P19  1  0.31680650  0.37850050  0.51629500  1
  P  P20  1  0.07670450  0.70882750  0.18117500  1
  P  P21  1  0.31680650  0.62149950  0.51629500  1
  P  P22  1  0.92329550  0.70882750  0.81882500  1
  P  P23  1  0.07670450  0.29117250  0.18117500  1
  O  O24  1  0.20231900  0.12910800  0.77820100  1
  O  O25  1  0.35888600  0.80861900  0.98353300  1
  O  O26  1  0.79768100  0.12910800  0.22179900  1
  O  O27  1  0.50000000  0.26752900  0.00000000  1
  O  O28  1  0.75084300  0.85358500  0.66392800  1
  O  O29  1  0.85332100  0.00000000  0.58304400  1
  O  O30  1  0.50000000  0.73247100  0.00000000  1
  O  O31  1  0.44960400  0.11198300  0.68154800  1
  O  O32  1  0.24915700  0.85358500  0.33607200  1
  O  O33  1  0.55039600  0.88801700  0.31845200  1
  O  O34  1  0.64111400  0.19138100  0.01646700  1
  O  O35  1  0.20231900  0.87089200  0.77820100  1
  O  O36  1  0.55039600  0.11198300  0.31845200  1
  O  O37  1  0.44960400  0.88801700  0.68154800  1
  O  O38  1  0.39748050  0.30847850  0.61572100  1
  O  O39  1  0.60251950  0.30847850  0.38427900  1
  O  O40  1  0.35888600  0.19138100  0.98353300  1
  O  O41  1  0.14667900  0.00000000  0.41695600  1
  O  O42  1  0.24915700  0.14641500  0.33607200  1
  O  O43  1  0.79768100  0.87089200  0.22179900  1
  O  O44  1  0.39748050  0.69152150  0.61572100  1
  O  O45  1  0.64111400  0.80861900  0.01646700  1
  O  O46  1  0.75084300  0.14641500  0.66392800  1
  O  O47  1  0.60251950  0.69152150  0.38427900  1
  O  O48  1  0.70231900  0.62910800  0.77820100  1
  O  O49  1  0.85888600  0.30861900  0.98353300  1
  O  O50  1  0.29768100  0.62910800  0.22179900  1
  O  O51  1  0.00000000  0.76752900  0.00000000  1
  O  O52  1  0.25084300  0.35358500  0.66392800  1
  O  O53  1  0.35332100  0.50000000  0.58304400  1
  O  O54  1  0.00000000  0.23247100  0.00000000  1
  O  O55  1  0.94960400  0.61198300  0.68154800  1
  O  O56  1  0.74915700  0.35358500  0.33607200  1
  O  O57  1  0.05039600  0.38801700  0.31845200  1
  O  O58  1  0.14111400  0.69138100  0.01646700  1
  O  O59  1  0.70231900  0.37089200  0.77820100  1
  O  O60  1  0.05039600  0.61198300  0.31845200  1
  O  O61  1  0.94960400  0.38801700  0.68154800  1
  O  O62  1  0.89748050  0.80847850  0.61572100  1
  O  O63  1  0.10251950  0.80847850  0.38427900  1
  O  O64  1  0.85888600  0.69138100  0.98353300  1
  O  O65  1  0.64667900  0.50000000  0.41695600  1
  O  O66  1  0.74915700  0.64641500  0.33607200  1
  O  O67  1  0.29768100  0.37089200  0.22179900  1
  O  O68  1  0.89748050  0.19152150  0.61572100  1
  O  O69  1  0.14111400  0.30861900  0.01646700  1
  O  O70  1  0.25084300  0.64641500  0.66392800  1
  O  O71  1  0.10251950  0.19152150  0.38427900  1
