# generated using pymatgen
data_Ba2TiO4
_symmetry_space_group_name_H-M   'P 1'
_cell_length_a   6.20926700
_cell_length_b   10.69316300
_cell_length_c   23.32857700
_cell_angle_alpha   90.00000000
_cell_angle_beta   90.00000000
_cell_angle_gamma   90.00000000
_symmetry_Int_Tables_number   1
_chemical_formula_structural   Ba2TiO4
_chemical_formula_sum   'Ba24 Ti12 O48'
_cell_volume   1548.94062511
_cell_formula_units_Z   12
loop_
 _symmetry_equiv_pos_site_id
 _symmetry_equiv_pos_as_xyz
  1  'x, y, z'
loop_
 _atom_site_type_symbol
 _atom_site_label
 _atom_site_symmetry_multiplicity
 _atom_site_fract_x
 _atom_site_fract_y
 _atom_site_fract_z
 _atom_site_occupancy
  Ba  Ba0  1  0.23693100  0.57828200  0.88970800  1
  Ba  Ba1  1  0.26185100  0.20121600  0.83553900  1
  Ba  Ba2  1  0.76185100  0.79878400  0.16446100  1
  Ba  Ba3  1  0.71465900  0.42847600  0.44486100  1
  Ba  Ba4  1  0.76000200  0.07348400  0.27988500  1
  Ba  Ba5  1  0.71257000  0.79981300  0.49763000  1
  Ba  Ba6  1  0.23693100  0.92171800  0.38970800  1
  Ba  Ba7  1  0.74798700  0.80173500  0.83026300  1
  Ba  Ba8  1  0.71257000  0.70018700  0.99763000  1
  Ba  Ba9  1  0.73693100  0.07828200  0.61029200  1
  Ba  Ba10  1  0.74798700  0.69826500  0.33026300  1
  Ba  Ba11  1  0.26185100  0.29878400  0.33553900  1
  Ba  Ba12  1  0.21465900  0.57152400  0.55513900  1
  Ba  Ba13  1  0.76000200  0.42651600  0.77988500  1
  Ba  Ba14  1  0.76185100  0.70121600  0.66446100  1
  Ba  Ba15  1  0.73693100  0.42171800  0.11029200  1
  Ba  Ba16  1  0.21257000  0.20018700  0.50237000  1
  Ba  Ba17  1  0.71465900  0.07152400  0.94486100  1
  Ba  Ba18  1  0.24798700  0.19826500  0.16973700  1
  Ba  Ba19  1  0.24798700  0.30173500  0.66973700  1
  Ba  Ba20  1  0.21465900  0.92847600  0.05513900  1
  Ba  Ba21  1  0.21257000  0.29981300  0.00237000  1
  Ba  Ba22  1  0.26000200  0.57348400  0.22011500  1
  Ba  Ba23  1  0.26000200  0.92651600  0.72011500  1
  Ti  Ti24  1  0.24468500  0.58559200  0.07252400  1
  Ti  Ti25  1  0.72001100  0.08568600  0.09470100  1
  Ti  Ti26  1  0.25159600  0.91301700  0.24049000  1
  Ti  Ti27  1  0.74468500  0.41440800  0.92747600  1
  Ti  Ti28  1  0.24468500  0.91440800  0.57252400  1
  Ti  Ti29  1  0.22001100  0.91431400  0.90529900  1
  Ti  Ti30  1  0.22001100  0.58568600  0.40529900  1
  Ti  Ti31  1  0.74468500  0.08559200  0.42747600  1
  Ti  Ti32  1  0.72001100  0.41431400  0.59470100  1
  Ti  Ti33  1  0.25159600  0.58698300  0.74049000  1
  Ti  Ti34  1  0.75159600  0.41301700  0.25951000  1
  Ti  Ti35  1  0.75159600  0.08698300  0.75951000  1
  O  O36  1  0.48583600  0.64843200  0.42469500  1
  O  O37  1  0.96329700  0.20487100  0.74871100  1
  O  O38  1  0.46329700  0.79512900  0.25128900  1
  O  O39  1  0.53050900  0.20314900  0.41932400  1
  O  O40  1  0.17334900  0.06105400  0.60971500  1
  O  O41  1  0.18120500  0.43673500  0.44458700  1
  O  O42  1  0.19154300  0.56061800  0.66530100  1
  O  O43  1  0.31638200  0.55449100  0.99827800  1
  O  O44  1  0.81638200  0.44550900  0.00172200  1
  O  O45  1  0.99759900  0.63988100  0.77298700  1
  O  O46  1  0.32011800  0.06144100  0.27699800  1
  O  O47  1  0.81638200  0.05449100  0.50172200  1
  O  O48  1  0.17334900  0.43894600  0.10971500  1
  O  O49  1  0.99523700  0.14056500  0.39354300  1
  O  O50  1  0.01142300  0.69779100  0.42635900  1
  O  O51  1  0.69091100  0.44478200  0.67060500  1
  O  O52  1  0.46329700  0.70487100  0.75128900  1
  O  O53  1  0.99759900  0.86011900  0.27298700  1
  O  O54  1  0.68120500  0.93673500  0.05541300  1
  O  O55  1  0.96329700  0.29512900  0.24871100  1
  O  O56  1  0.19154300  0.93938200  0.16530100  1
  O  O57  1  0.53050900  0.29685100  0.91932400  1
  O  O58  1  0.82011800  0.93855900  0.72300200  1
  O  O59  1  0.98583600  0.35156800  0.57530500  1
  O  O60  1  0.69091100  0.05521800  0.17060500  1
  O  O61  1  0.49759900  0.36011900  0.22701300  1
  O  O62  1  0.19091100  0.55521800  0.32939500  1
  O  O63  1  0.67334900  0.93894600  0.39028500  1
  O  O64  1  0.49523700  0.64056500  0.10645700  1
  O  O65  1  0.32011800  0.43855900  0.77699800  1
  O  O66  1  0.03050900  0.70314900  0.08067600  1
  O  O67  1  0.67334900  0.56105400  0.89028500  1
  O  O68  1  0.18120500  0.06326500  0.94458700  1
  O  O69  1  0.03050900  0.79685100  0.58067600  1
  O  O70  1  0.19091100  0.94478200  0.82939500  1
  O  O71  1  0.69154300  0.06061800  0.83469900  1
  O  O72  1  0.69154300  0.43938200  0.33469900  1
  O  O73  1  0.68120500  0.56326500  0.55541300  1
  O  O74  1  0.98583600  0.14843200  0.07530500  1
  O  O75  1  0.31638200  0.94550900  0.49827800  1
  O  O76  1  0.99523700  0.35943500  0.89354300  1
  O  O77  1  0.01142300  0.80220900  0.92635900  1
  O  O78  1  0.82011800  0.56144100  0.22300200  1
  O  O79  1  0.49759900  0.13988100  0.72701300  1
  O  O80  1  0.49523700  0.85943500  0.60645700  1
  O  O81  1  0.48583600  0.85156800  0.92469500  1
  O  O82  1  0.51142300  0.19779100  0.07364100  1
  O  O83  1  0.51142300  0.30220900  0.57364100  1
