# generated using pymatgen
data_Na2SeO4
_symmetry_space_group_name_H-M   'P 1'
_cell_length_a   6.20120400
_cell_length_b   10.34255000
_cell_length_c   12.78708400
_cell_angle_alpha   90.00000000
_cell_angle_beta   90.00000000
_cell_angle_gamma   90.00000000
_symmetry_Int_Tables_number   1
_chemical_formula_structural   Na2SeO4
_chemical_formula_sum   'Na16 Se8 O32'
_cell_volume   820.11577514
_cell_formula_units_Z   8
loop_
 _symmetry_equiv_pos_site_id
 _symmetry_equiv_pos_as_xyz
  1  'x, y, z'
loop_
 _atom_site_type_symbol
 _atom_site_label
 _atom_site_symmetry_multiplicity
 _atom_site_fract_x
 _atom_site_fract_y
 _atom_site_fract_z
 _atom_site_occupancy
  Na  Na0  1  0.50000000  0.68509100  0.00000000  1
  Na  Na1  1  0.75000000  0.93509100  0.25000000  1
  Na  Na2  1  0.50000000  0.31490900  0.00000000  1
  Na  Na3  1  0.75000000  0.56490900  0.25000000  1
  Na  Na4  1  0.50000000  0.18509100  0.50000000  1
  Na  Na5  1  0.75000000  0.43509100  0.75000000  1
  Na  Na6  1  0.50000000  0.81490900  0.50000000  1
  Na  Na7  1  0.75000000  0.06490900  0.75000000  1
  Na  Na8  1  0.00000000  0.68509100  0.50000000  1
  Na  Na9  1  0.25000000  0.93509100  0.75000000  1
  Na  Na10  1  0.00000000  0.31490900  0.50000000  1
  Na  Na11  1  0.25000000  0.56490900  0.75000000  1
  Na  Na12  1  0.00000000  0.18509100  0.00000000  1
  Na  Na13  1  0.25000000  0.43509100  0.25000000  1
  Na  Na14  1  0.00000000  0.81490900  0.00000000  1
  Na  Na15  1  0.25000000  0.06490900  0.25000000  1
  Se  Se16  1  0.75000000  0.25000000  0.25000000  1
  Se  Se17  1  0.50000000  0.00000000  0.00000000  1
  Se  Se18  1  0.75000000  0.75000000  0.75000000  1
  Se  Se19  1  0.50000000  0.50000000  0.50000000  1
  Se  Se20  1  0.25000000  0.25000000  0.75000000  1
  Se  Se21  1  0.00000000  0.00000000  0.50000000  1
  Se  Se22  1  0.25000000  0.75000000  0.25000000  1
  Se  Se23  1  0.00000000  0.50000000  0.00000000  1
  O  O24  1  0.59478850  0.34806550  0.17750700  1
  O  O25  1  0.90521150  0.34806550  0.32249300  1
  O  O26  1  0.15521150  0.09806550  0.42750700  1
  O  O27  1  0.65521150  0.90193450  0.07249300  1
  O  O28  1  0.34478850  0.09806550  0.07249300  1
  O  O29  1  0.90521150  0.15193450  0.17750700  1
  O  O30  1  0.59478850  0.15193450  0.32249300  1
  O  O31  1  0.84478850  0.90193450  0.42750700  1
  O  O32  1  0.59478850  0.84806550  0.67750700  1
  O  O33  1  0.90521150  0.84806550  0.82249300  1
  O  O34  1  0.15521150  0.59806550  0.92750700  1
  O  O35  1  0.65521150  0.40193450  0.57249300  1
  O  O36  1  0.34478850  0.59806550  0.57249300  1
  O  O37  1  0.90521150  0.65193450  0.67750700  1
  O  O38  1  0.59478850  0.65193450  0.82249300  1
  O  O39  1  0.84478850  0.40193450  0.92750700  1
  O  O40  1  0.09478850  0.34806550  0.67750700  1
  O  O41  1  0.40521150  0.34806550  0.82249300  1
  O  O42  1  0.65521150  0.09806550  0.92750700  1
  O  O43  1  0.15521150  0.90193450  0.57249300  1
  O  O44  1  0.84478850  0.09806550  0.57249300  1
  O  O45  1  0.40521150  0.15193450  0.67750700  1
  O  O46  1  0.09478850  0.15193450  0.82249300  1
  O  O47  1  0.34478850  0.90193450  0.92750700  1
  O  O48  1  0.09478850  0.84806550  0.17750700  1
  O  O49  1  0.40521150  0.84806550  0.32249300  1
  O  O50  1  0.65521150  0.59806550  0.42750700  1
  O  O51  1  0.15521150  0.40193450  0.07249300  1
  O  O52  1  0.84478850  0.59806550  0.07249300  1
  O  O53  1  0.40521150  0.65193450  0.17750700  1
  O  O54  1  0.09478850  0.65193450  0.32249300  1
  O  O55  1  0.34478850  0.40193450  0.42750700  1
