# generated using pymatgen
data_Ag2Hg7(P4Br3)2
_symmetry_space_group_name_H-M   'P 1'
_cell_length_a   13.11928400
_cell_length_b   11.11102400
_cell_length_c   8.27716752
_cell_angle_alpha   90.00000000
_cell_angle_beta   101.47431103
_cell_angle_gamma   90.00000000
_symmetry_Int_Tables_number   1
_chemical_formula_structural   Ag2Hg7(P4Br3)2
_chemical_formula_sum   'Ag4 Hg14 P16 Br12'
_cell_volume   1182.43762733
_cell_formula_units_Z   2
loop_
 _symmetry_equiv_pos_site_id
 _symmetry_equiv_pos_as_xyz
  1  'x, y, z'
loop_
 _atom_site_type_symbol
 _atom_site_label
 _atom_site_symmetry_multiplicity
 _atom_site_fract_x
 _atom_site_fract_y
 _atom_site_fract_z
 _atom_site_occupancy
  Ag  Ag0  1  0.75000000  0.75000000  0.50000000  1
  Ag  Ag1  1  0.75000000  0.25000000  0.50000000  1
  Ag  Ag2  1  0.25000000  0.25000000  0.50000000  1
  Ag  Ag3  1  0.25000000  0.75000000  0.50000000  1
  Hg  Hg4  1  0.45007550  0.18290350  0.23534800  1
  Hg  Hg5  1  0.72640200  0.00000000  0.13329300  1
  Hg  Hg6  1  0.45007550  0.81709650  0.23534800  1
  Hg  Hg7  1  0.54992450  0.81709650  0.76465200  1
  Hg  Hg8  1  0.00000000  0.00000000  0.00000000  1
  Hg  Hg9  1  0.27359800  0.00000000  0.86670700  1
  Hg  Hg10  1  0.54992450  0.18290350  0.76465200  1
  Hg  Hg11  1  0.95007550  0.68290350  0.23534800  1
  Hg  Hg12  1  0.22640200  0.50000000  0.13329300  1
  Hg  Hg13  1  0.95007550  0.31709650  0.23534800  1
  Hg  Hg14  1  0.04992450  0.31709650  0.76465200  1
  Hg  Hg15  1  0.50000000  0.50000000  0.00000000  1
  Hg  Hg16  1  0.77359800  0.50000000  0.86670700  1
  Hg  Hg17  1  0.04992450  0.68290350  0.76465200  1
  P  P18  1  0.58084200  0.34344400  0.57521600  1
  P  P19  1  0.08656100  0.00000000  0.74409600  1
  P  P20  1  0.43738200  0.00000000  0.06779200  1
  P  P21  1  0.41915800  0.65655600  0.42478400  1
  P  P22  1  0.91343900  0.00000000  0.25590400  1
  P  P23  1  0.58084200  0.65655600  0.57521600  1
  P  P24  1  0.41915800  0.34344400  0.42478400  1
  P  P25  1  0.56261800  0.00000000  0.93220800  1
  P  P26  1  0.08084200  0.84344400  0.57521600  1
  P  P27  1  0.58656100  0.50000000  0.74409600  1
  P  P28  1  0.93738200  0.50000000  0.06779200  1
  P  P29  1  0.91915800  0.15655600  0.42478400  1
  P  P30  1  0.41343900  0.50000000  0.25590400  1
  P  P31  1  0.08084200  0.15655600  0.57521600  1
  P  P32  1  0.91915800  0.84344400  0.42478400  1
  P  P33  1  0.06261800  0.50000000  0.93220800  1
  Br  Br34  1  0.65599300  0.29414700  0.14682000  1
  Br  Br35  1  0.64528400  0.00000000  0.45695200  1
  Br  Br36  1  0.35471600  0.00000000  0.54304800  1
  Br  Br37  1  0.65599300  0.70585300  0.14682000  1
  Br  Br38  1  0.34400700  0.29414700  0.85318000  1
  Br  Br39  1  0.34400700  0.70585300  0.85318000  1
  Br  Br40  1  0.15599300  0.79414700  0.14682000  1
  Br  Br41  1  0.14528400  0.50000000  0.45695200  1
  Br  Br42  1  0.85471600  0.50000000  0.54304800  1
  Br  Br43  1  0.15599300  0.20585300  0.14682000  1
  Br  Br44  1  0.84400700  0.79414700  0.85318000  1
  Br  Br45  1  0.84400700  0.20585300  0.85318000  1
