# generated using pymatgen
data_Pr3Si2ClO8
_symmetry_space_group_name_H-M   'P 1'
_cell_length_a   14.41151800
_cell_length_b   6.49950600
_cell_length_c   8.87446772
_cell_angle_alpha   90.00000000
_cell_angle_beta   98.12849630
_cell_angle_gamma   90.00000000
_symmetry_Int_Tables_number   1
_chemical_formula_structural   Pr3Si2ClO8
_chemical_formula_sum   'Pr12 Si8 Cl4 O32'
_cell_volume   822.90020064
_cell_formula_units_Z   4
loop_
 _symmetry_equiv_pos_site_id
 _symmetry_equiv_pos_as_xyz
  1  'x, y, z'
loop_
 _atom_site_type_symbol
 _atom_site_label
 _atom_site_symmetry_multiplicity
 _atom_site_fract_x
 _atom_site_fract_y
 _atom_site_fract_z
 _atom_site_occupancy
  Pr  Pr0  1  0.81488050  0.10482350  0.82890000  1
  Pr  Pr1  1  0.81488050  0.89517650  0.32890000  1
  Pr  Pr2  1  0.00000000  0.42629900  0.25000000  1
  Pr  Pr3  1  0.68511950  0.39517650  0.17110000  1
  Pr  Pr4  1  0.68511950  0.60482350  0.67110000  1
  Pr  Pr5  1  0.00000000  0.57370100  0.75000000  1
  Pr  Pr6  1  0.31488050  0.60482350  0.82890000  1
  Pr  Pr7  1  0.31488050  0.39517650  0.32890000  1
  Pr  Pr8  1  0.50000000  0.92629900  0.25000000  1
  Pr  Pr9  1  0.18511950  0.89517650  0.17110000  1
  Pr  Pr10  1  0.18511950  0.10482350  0.67110000  1
  Pr  Pr11  1  0.50000000  0.07370100  0.75000000  1
  Si  Si12  1  0.84206300  0.44553800  0.47474000  1
  Si  Si13  1  0.65793700  0.05446200  0.52526000  1
  Si  Si14  1  0.65793700  0.94553800  0.02526000  1
  Si  Si15  1  0.84206300  0.55446200  0.97474000  1
  Si  Si16  1  0.34206300  0.94553800  0.47474000  1
  Si  Si17  1  0.15793700  0.55446200  0.52526000  1
  Si  Si18  1  0.15793700  0.44553800  0.02526000  1
  Si  Si19  1  0.34206300  0.05446200  0.97474000  1
  Cl  Cl20  1  0.00000000  0.97559800  0.25000000  1
  Cl  Cl21  1  0.00000000  0.02440200  0.75000000  1
  Cl  Cl22  1  0.50000000  0.47559800  0.25000000  1
  Cl  Cl23  1  0.50000000  0.52440200  0.75000000  1
  O  O24  1  0.65451700  0.88655900  0.84536600  1
  O  O25  1  0.84548300  0.61344100  0.15463400  1
  O  O26  1  0.76079500  0.05661600  0.08128100  1
  O  O27  1  0.92220600  0.37352600  0.96815700  1
  O  O28  1  0.73920500  0.55661600  0.41871900  1
  O  O29  1  0.65451700  0.11344100  0.34536600  1
  O  O30  1  0.85712000  0.26143900  0.35558900  1
  O  O31  1  0.73920500  0.44338400  0.91871900  1
  O  O32  1  0.76079500  0.94338400  0.58128100  1
  O  O33  1  0.64288000  0.23856100  0.64441100  1
  O  O34  1  0.84548300  0.38655900  0.65463400  1
  O  O35  1  0.57779400  0.87352600  0.53184300  1
  O  O36  1  0.85712000  0.73856100  0.85558900  1
  O  O37  1  0.64288000  0.76143900  0.14441100  1
  O  O38  1  0.92220600  0.62647400  0.46815700  1
  O  O39  1  0.57779400  0.12647400  0.03184300  1
  O  O40  1  0.15451700  0.38655900  0.84536600  1
  O  O41  1  0.34548300  0.11344100  0.15463400  1
  O  O42  1  0.26079500  0.55661600  0.08128100  1
  O  O43  1  0.42220600  0.87352600  0.96815700  1
  O  O44  1  0.23920500  0.05661600  0.41871900  1
  O  O45  1  0.15451700  0.61344100  0.34536600  1
  O  O46  1  0.35712000  0.76143900  0.35558900  1
  O  O47  1  0.23920500  0.94338400  0.91871900  1
  O  O48  1  0.26079500  0.44338400  0.58128100  1
  O  O49  1  0.14288000  0.73856100  0.64441100  1
  O  O50  1  0.34548300  0.88655900  0.65463400  1
  O  O51  1  0.07779400  0.37352600  0.53184300  1
  O  O52  1  0.35712000  0.23856100  0.85558900  1
  O  O53  1  0.14288000  0.26143900  0.14441100  1
  O  O54  1  0.42220600  0.12647400  0.46815700  1
  O  O55  1  0.07779400  0.62647400  0.03184300  1
