# generated using pymatgen
data_Sm3Ga5O12
_symmetry_space_group_name_H-M   'P 1'
_cell_length_a   12.56659600
_cell_length_b   12.56659600
_cell_length_c   12.56659600
_cell_angle_alpha   90.00000000
_cell_angle_beta   90.00000000
_cell_angle_gamma   90.00000000
_symmetry_Int_Tables_number   1
_chemical_formula_structural   Sm3Ga5O12
_chemical_formula_sum   'Sm24 Ga40 O96'
_cell_volume   1984.50848388
_cell_formula_units_Z   8
loop_
 _symmetry_equiv_pos_site_id
 _symmetry_equiv_pos_as_xyz
  1  'x, y, z'
loop_
 _atom_site_type_symbol
 _atom_site_label
 _atom_site_symmetry_multiplicity
 _atom_site_fract_x
 _atom_site_fract_y
 _atom_site_fract_z
 _atom_site_occupancy
  Sm  Sm0  1  0.25000000  0.37500000  0.50000000  1
  Sm  Sm1  1  0.00000000  0.25000000  0.62500000  1
  Sm  Sm2  1  0.50000000  0.25000000  0.37500000  1
  Sm  Sm3  1  0.62500000  0.00000000  0.25000000  1
  Sm  Sm4  1  0.37500000  0.50000000  0.25000000  1
  Sm  Sm5  1  0.25000000  0.62500000  0.00000000  1
  Sm  Sm6  1  0.25000000  0.12500000  0.00000000  1
  Sm  Sm7  1  0.50000000  0.25000000  0.87500000  1
  Sm  Sm8  1  0.00000000  0.25000000  0.12500000  1
  Sm  Sm9  1  0.87500000  0.50000000  0.25000000  1
  Sm  Sm10  1  0.12500000  0.00000000  0.25000000  1
  Sm  Sm11  1  0.25000000  0.87500000  0.50000000  1
  Sm  Sm12  1  0.75000000  0.87500000  0.00000000  1
  Sm  Sm13  1  0.50000000  0.75000000  0.12500000  1
  Sm  Sm14  1  0.00000000  0.75000000  0.87500000  1
  Sm  Sm15  1  0.12500000  0.50000000  0.75000000  1
  Sm  Sm16  1  0.87500000  0.00000000  0.75000000  1
  Sm  Sm17  1  0.75000000  0.12500000  0.50000000  1
  Sm  Sm18  1  0.75000000  0.62500000  0.50000000  1
  Sm  Sm19  1  0.00000000  0.75000000  0.37500000  1
  Sm  Sm20  1  0.50000000  0.75000000  0.62500000  1
  Sm  Sm21  1  0.37500000  0.00000000  0.75000000  1
  Sm  Sm22  1  0.62500000  0.50000000  0.75000000  1
  Sm  Sm23  1  0.75000000  0.37500000  0.00000000  1
  Ga  Ga24  1  0.75000000  0.12500000  0.00000000  1
  Ga  Ga25  1  0.75000000  0.37500000  0.50000000  1
  Ga  Ga26  1  0.12500000  0.50000000  0.25000000  1
  Ga  Ga27  1  0.50000000  0.75000000  0.37500000  1
  Ga  Ga28  1  0.37500000  0.50000000  0.75000000  1
  Ga  Ga29  1  0.50000000  0.25000000  0.12500000  1
  Ga  Ga30  1  0.25000000  0.37500000  0.00000000  1
  Ga  Ga31  1  0.00000000  0.75000000  0.12500000  1
  Ga  Ga32  1  0.00000000  0.25000000  0.37500000  1
  Ga  Ga33  1  0.12500000  0.00000000  0.75000000  1
  Ga  Ga34  1  0.37500000  0.00000000  0.25000000  1
  Ga  Ga35  1  0.25000000  0.12500000  0.50000000  1
  Ga  Ga36  1  0.00000000  0.50000000  0.00000000  1
  Ga  Ga37  1  0.25000000  0.75000000  0.25000000  1
  Ga  Ga38  1  0.25000000  0.25000000  0.25000000  1
  Ga  Ga39  1  0.25000000  0.25000000  0.75000000  1
  Ga  Ga40  1  0.00000000  0.00000000  0.00000000  1
  Ga  Ga41  1  0.50000000  0.00000000  0.00000000  1
  Ga  Ga42  1  0.00000000  0.00000000  0.50000000  1
  Ga  Ga43  1  0.75000000  0.25000000  0.25000000  1
  Ga  Ga44  1  0.25000000  0.62500000  0.50000000  1
  Ga  Ga45  1  0.25000000  0.87500000  0.00000000  1
  Ga  Ga46  1  0.62500000  0.00000000  0.75000000  1
  Ga  Ga47  1  0.00000000  0.25000000  0.87500000  1
  Ga  Ga48  1  0.87500000  0.00000000  0.25000000  1
  Ga  Ga49  1  0.00000000  0.75000000  0.62500000  1
  Ga  Ga50  1  0.75000000  0.87500000  0.50000000  1
  Ga  Ga51  1  0.50000000  0.25000000  0.62500000  1
  Ga  Ga52  1  0.50000000  0.75000000  0.87500000  1
  Ga  Ga53  1  0.62500000  0.50000000  0.25000000  1
  Ga  Ga54  1  0.87500000  0.50000000  0.75000000  1
  Ga  Ga55  1  0.75000000  0.62500000  0.00000000  1
  Ga  Ga56  1  0.50000000  0.00000000  0.50000000  1
  Ga  Ga57  1  0.75000000  0.25000000  0.75000000  1
  Ga  Ga58  1  0.75000000  0.75000000  0.75000000  1
  Ga  Ga59  1  0.75000000  0.75000000  0.25000000  1
  Ga  Ga60  1  0.50000000  0.50000000  0.50000000  1
  Ga  Ga61  1  0.00000000  0.50000000  0.50000000  1
  Ga  Ga62  1  0.50000000  0.50000000  0.00000000  1
  Ga  Ga63  1  0.25000000  0.75000000  0.75000000  1
  O  O64  1  0.35051100  0.02856000  0.55367100  1
  O  O65  1  0.55367100  0.35051100  0.02856000  1
  O  O66  1  0.47144000  0.44632900  0.85051100  1
  O  O67  1  0.14948900  0.02856000  0.44632900  1
  O  O68  1  0.30367100  0.72144000  0.60051100  1
  O  O69  1  0.05367100  0.14948900  0.97144000  1
  O  O70  1  0.19632900  0.27856000  0.10051100  1
  O  O71  1  0.02856000  0.55367100  0.35051100  1
  O  O72  1  0.30367100  0.27856000  0.89948900  1
  O  O73  1  0.10051100  0.19632900  0.27856000  1
  O  O74  1  0.72144000  0.60051100  0.30367100  1
  O  O75  1  0.22144000  0.89948900  0.69632900  1
  O  O76  1  0.89948900  0.69632900  0.22144000  1
  O  O77  1  0.27856000  0.10051100  0.19632900  1
  O  O78  1  0.89948900  0.30367100  0.27856000  1
  O  O79  1  0.27856000  0.89948900  0.30367100  1
  O  O80  1  0.60051100  0.30367100  0.72144000  1
  O  O81  1  0.85051100  0.47144000  0.44632900  1
  O  O82  1  0.14948900  0.97144000  0.05367100  1
  O  O83  1  0.19632900  0.22144000  0.60051100  1
  O  O84  1  0.44632900  0.14948900  0.02856000  1
  O  O85  1  0.02856000  0.44632900  0.14948900  1
  O  O86  1  0.97144000  0.05367100  0.14948900  1
  O  O87  1  0.69632900  0.22144000  0.89948900  1
  O  O88  1  0.14948900  0.47144000  0.94632900  1
  O  O89  1  0.94632900  0.14948900  0.47144000  1
  O  O90  1  0.02856000  0.05367100  0.64948900  1
  O  O91  1  0.35051100  0.47144000  0.05367100  1
  O  O92  1  0.19632900  0.77856000  0.89948900  1
  O  O93  1  0.44632900  0.35051100  0.52856000  1
  O  O94  1  0.30367100  0.22144000  0.39948900  1
  O  O95  1  0.47144000  0.94632900  0.14948900  1
  O  O96  1  0.80367100  0.27856000  0.60051100  1
  O  O97  1  0.52856000  0.44632900  0.35051100  1
  O  O98  1  0.47144000  0.05367100  0.35051100  1
  O  O99  1  0.05367100  0.64948900  0.02856000  1
  O  O100  1  0.05367100  0.35051100  0.47144000  1
  O  O101  1  0.35051100  0.52856000  0.44632900  1
  O  O102  1  0.64948900  0.02856000  0.05367100  1
  O  O103  1  0.89948900  0.19632900  0.77856000  1
  O  O104  1  0.22144000  0.60051100  0.19632900  1
  O  O105  1  0.60051100  0.19632900  0.22144000  1
  O  O106  1  0.22144000  0.39948900  0.30367100  1
  O  O107  1  0.60051100  0.80367100  0.27856000  1
  O  O108  1  0.27856000  0.60051100  0.80367100  1
  O  O109  1  0.77856000  0.89948900  0.19632900  1
  O  O110  1  0.39948900  0.30367100  0.22144000  1
  O  O111  1  0.44632900  0.85051100  0.47144000  1
  O  O112  1  0.85051100  0.52856000  0.05367100  1
  O  O113  1  0.05367100  0.85051100  0.52856000  1
  O  O114  1  0.97144000  0.94632900  0.35051100  1
  O  O115  1  0.64948900  0.52856000  0.94632900  1
  O  O116  1  0.80367100  0.22144000  0.10051100  1
  O  O117  1  0.55367100  0.64948900  0.47144000  1
  O  O118  1  0.69632900  0.77856000  0.60051100  1
  O  O119  1  0.52856000  0.05367100  0.85051100  1
  O  O120  1  0.80367100  0.77856000  0.39948900  1
  O  O121  1  0.60051100  0.69632900  0.77856000  1
  O  O122  1  0.22144000  0.10051100  0.80367100  1
  O  O123  1  0.72144000  0.39948900  0.19632900  1
  O  O124  1  0.39948900  0.19632900  0.72144000  1
  O  O125  1  0.77856000  0.60051100  0.69632900  1
  O  O126  1  0.39948900  0.80367100  0.77856000  1
  O  O127  1  0.77856000  0.39948900  0.80367100  1
  O  O128  1  0.10051100  0.80367100  0.22144000  1
  O  O129  1  0.35051100  0.97144000  0.94632900  1
  O  O130  1  0.64948900  0.47144000  0.55367100  1
  O  O131  1  0.69632900  0.72144000  0.10051100  1
  O  O132  1  0.94632900  0.64948900  0.52856000  1
  O  O133  1  0.52856000  0.94632900  0.64948900  1
  O  O134  1  0.47144000  0.55367100  0.64948900  1
  O  O135  1  0.19632900  0.72144000  0.39948900  1
  O  O136  1  0.64948900  0.97144000  0.44632900  1
  O  O137  1  0.44632900  0.64948900  0.97144000  1
  O  O138  1  0.52856000  0.55367100  0.14948900  1
  O  O139  1  0.85051100  0.97144000  0.55367100  1
  O  O140  1  0.69632900  0.27856000  0.39948900  1
  O  O141  1  0.94632900  0.85051100  0.02856000  1
  O  O142  1  0.80367100  0.72144000  0.89948900  1
  O  O143  1  0.97144000  0.44632900  0.64948900  1
  O  O144  1  0.30367100  0.77856000  0.10051100  1
  O  O145  1  0.02856000  0.94632900  0.85051100  1
  O  O146  1  0.97144000  0.55367100  0.85051100  1
  O  O147  1  0.55367100  0.14948900  0.52856000  1
  O  O148  1  0.55367100  0.85051100  0.97144000  1
  O  O149  1  0.85051100  0.02856000  0.94632900  1
  O  O150  1  0.14948900  0.52856000  0.55367100  1
  O  O151  1  0.39948900  0.69632900  0.27856000  1
  O  O152  1  0.72144000  0.10051100  0.69632900  1
  O  O153  1  0.10051100  0.69632900  0.72144000  1
  O  O154  1  0.72144000  0.89948900  0.80367100  1
  O  O155  1  0.10051100  0.30367100  0.77856000  1
  O  O156  1  0.77856000  0.10051100  0.30367100  1
  O  O157  1  0.27856000  0.39948900  0.69632900  1
  O  O158  1  0.89948900  0.80367100  0.72144000  1
  O  O159  1  0.94632900  0.35051100  0.97144000  1
