# generated using pymatgen
data_Zn8B3H3O14
_symmetry_space_group_name_H-M   'P 1'
_cell_length_a   8.23876579
_cell_length_b   8.23876579
_cell_length_c   17.87557976
_cell_angle_alpha   90.00000000
_cell_angle_beta   90.00000000
_cell_angle_gamma   120.00000000
_symmetry_Int_Tables_number   1
_chemical_formula_structural   Zn8B3H3O14
_chemical_formula_sum   'Zn24 B9 H9 O42'
_cell_volume   1050.78794561
_cell_formula_units_Z   3
loop_
 _symmetry_equiv_pos_site_id
 _symmetry_equiv_pos_as_xyz
  1  'x, y, z'
loop_
 _atom_site_type_symbol
 _atom_site_label
 _atom_site_symmetry_multiplicity
 _atom_site_fract_x
 _atom_site_fract_y
 _atom_site_fract_z
 _atom_site_occupancy
  Zn  Zn0  1  0.33333333  0.66666667  0.07489267  1
  Zn  Zn1  1  0.10274600  0.64391700  0.41457400  1
  Zn  Zn2  1  0.35608300  0.45882900  0.41457400  1
  Zn  Zn3  1  0.56392067  0.87450433  0.91875933  1
  Zn  Zn4  1  0.54117100  0.89725400  0.41457400  1
  Zn  Zn5  1  0.31058367  0.43607933  0.91875933  1
  Zn  Zn6  1  0.33333333  0.66666667  0.25844067  1
  Zn  Zn7  1  0.12549567  0.68941633  0.91875933  1
  Zn  Zn8  1  0.00000000  0.00000000  0.40822600  1
  Zn  Zn9  1  0.76941267  0.97725033  0.74790733  1
  Zn  Zn10  1  0.02274967  0.79216233  0.74790733  1
  Zn  Zn11  1  0.23058733  0.20783767  0.25209267  1
  Zn  Zn12  1  0.20783767  0.23058733  0.74790733  1
  Zn  Zn13  1  0.97725033  0.76941267  0.25209267  1
  Zn  Zn14  1  1.00000000  0.00000000  0.59177400  1
  Zn  Zn15  1  0.79216233  0.02274967  0.25209267  1
  Zn  Zn16  1  0.66666667  0.33333333  0.74155933  1
  Zn  Zn17  1  0.43607933  0.31058367  0.08124067  1
  Zn  Zn18  1  0.68941633  0.12549567  0.08124067  1
  Zn  Zn19  1  0.89725400  0.54117100  0.58542600  1
  Zn  Zn20  1  0.87450433  0.56392067  0.08124067  1
  Zn  Zn21  1  0.64391700  0.10274600  0.58542600  1
  Zn  Zn22  1  0.66666667  0.33333333  0.92510733  1
  Zn  Zn23  1  0.45882900  0.35608300  0.58542600  1
  B  B24  1  0.63144233  0.66666667  0.16666667  1
  B  B25  1  0.03522433  0.36855767  0.16666667  1
  B  B26  1  0.33333333  0.96477567  0.16666667  1
  B  B27  1  0.29810900  0.00000000  0.50000000  1
  B  B28  1  0.70189100  0.70189100  0.50000000  1
  B  B29  1  0.00000000  0.29810900  0.50000000  1
  B  B30  1  0.96477567  0.33333333  0.83333333  1
  B  B31  1  0.36855767  0.03522433  0.83333333  1
  B  B32  1  0.66666667  0.63144233  0.83333333  1
  H  H33  1  0.00000000  0.86028050  0.00000000  1
  H  H34  1  0.86028050  0.00000000  0.00000000  1
  H  H35  1  0.80638617  0.47305283  0.33333333  1
  H  H36  1  0.66666667  0.19361383  0.33333333  1
  H  H37  1  0.52694717  0.33333333  0.33333333  1
  H  H38  1  0.47305283  0.80638617  0.66666667  1
  H  H39  1  0.33333333  0.52694717  0.66666667  1
  H  H40  1  0.19361383  0.66666667  0.66666667  1
  H  H41  1  0.13971950  0.13971950  0.00000000  1
  O  O42  1  0.74312200  0.00000000  0.00000000  1
  O  O43  1  0.33333333  0.66666667  0.37016767  1
  O  O44  1  0.00000000  0.74312200  0.00000000  1
  O  O45  1  0.23612567  0.83304233  0.22162433  1
  O  O46  1  0.16695767  0.40308333  0.22162433  1
  O  O47  1  0.86564433  0.19897767  0.16666667  1
  O  O48  1  0.43054100  0.93025000  0.11170900  1
  O  O49  1  0.92354467  0.59021133  0.33333333  1
  O  O50  1  0.06975000  0.50029100  0.11170900  1
  O  O51  1  0.59691667  0.76387433  0.22162433  1
  O  O52  1  0.80102233  0.66666667  0.16666667  1
  O  O53  1  0.33333333  0.66666667  0.96316567  1
  O  O54  1  0.49970900  0.56945900  0.11170900  1
  O  O55  1  0.33333333  0.13435567  0.16666667  1
  O  O56  1  0.40978867  0.33333333  0.33333333  1
  O  O57  1  0.00000000  0.00000000  0.70350100  1
  O  O58  1  0.66666667  0.07645533  0.33333333  1
  O  O59  1  0.90279233  0.16637567  0.55495767  1
  O  O60  1  0.83362433  0.73641667  0.55495767  1
  O  O61  1  0.53231100  0.53231100  0.50000000  1
  O  O62  1  0.09720767  0.26358333  0.44504233  1
  O  O63  1  0.59021133  0.92354467  0.66666667  1
  O  O64  1  0.73641667  0.83362433  0.44504233  1
  O  O65  1  0.26358333  0.09720767  0.55495767  1
  O  O66  1  0.46768900  0.00000000  0.50000000  1
  O  O67  1  1.00000000  0.00000000  0.29649900  1
  O  O68  1  0.16637567  0.90279233  0.44504233  1
  O  O69  1  0.00000000  0.46768900  0.50000000  1
  O  O70  1  0.07645533  0.66666667  0.66666667  1
  O  O71  1  0.66666667  0.33333333  0.03683433  1
  O  O72  1  0.33333333  0.40978867  0.66666667  1
  O  O73  1  0.56945900  0.49970900  0.88829100  1
  O  O74  1  0.50029100  0.06975000  0.88829100  1
  O  O75  1  0.19897767  0.86564433  0.83333333  1
  O  O76  1  0.76387433  0.59691667  0.77837567  1
  O  O77  1  0.25687800  0.25687800  0.00000000  1
  O  O78  1  0.40308333  0.16695767  0.77837567  1
  O  O79  1  0.93025000  0.43054100  0.88829100  1
  O  O80  1  0.13435567  0.33333333  0.83333333  1
  O  O81  1  0.66666667  0.33333333  0.62983233  1
  O  O82  1  0.83304233  0.23612567  0.77837567  1
  O  O83  1  0.66666667  0.80102233  0.83333333  1
