# generated using pymatgen
data_Ca2SiO4
_symmetry_space_group_name_H-M   'P 1'
_cell_length_a   5.59798000
_cell_length_b   9.34881500
_cell_length_c   20.53646700
_cell_angle_alpha   90.00000000
_cell_angle_beta   90.00000000
_cell_angle_gamma   90.00000000
_symmetry_Int_Tables_number   1
_chemical_formula_structural   Ca2SiO4
_chemical_formula_sum   'Ca24 Si12 O48'
_cell_volume   1074.76530903
_cell_formula_units_Z   12
loop_
 _symmetry_equiv_pos_site_id
 _symmetry_equiv_pos_as_xyz
  1  'x, y, z'
loop_
 _atom_site_type_symbol
 _atom_site_label
 _atom_site_symmetry_multiplicity
 _atom_site_fract_x
 _atom_site_fract_y
 _atom_site_fract_z
 _atom_site_occupancy
  Ca  Ca0  1  0.24056700  0.57381100  0.72092700  1
  Ca  Ca1  1  0.78193300  0.05898100  0.44263400  1
  Ca  Ca2  1  0.76506000  0.42709700  0.61015200  1
  Ca  Ca3  1  0.28193300  0.55898100  0.05736600  1
  Ca  Ca4  1  0.73994300  0.70350100  0.16385100  1
  Ca  Ca5  1  0.75909600  0.78967500  0.32941200  1
  Ca  Ca6  1  0.74056700  0.42618900  0.27907300  1
  Ca  Ca7  1  0.28997700  0.19966000  0.00407000  1
  Ca  Ca8  1  0.28193300  0.94101900  0.55736600  1
  Ca  Ca9  1  0.23994300  0.29649900  0.83614900  1
  Ca  Ca10  1  0.23994300  0.20350100  0.33614900  1
  Ca  Ca11  1  0.78997700  0.80034000  0.99593000  1
  Ca  Ca12  1  0.75909600  0.71032500  0.82941200  1
  Ca  Ca13  1  0.78193300  0.44101900  0.94263400  1
  Ca  Ca14  1  0.78997700  0.69966000  0.49593000  1
  Ca  Ca15  1  0.28997700  0.30034000  0.50407000  1
  Ca  Ca16  1  0.76506000  0.07290300  0.11015200  1
  Ca  Ca17  1  0.24056700  0.92618900  0.22092700  1
  Ca  Ca18  1  0.74056700  0.07381100  0.77907300  1
  Ca  Ca19  1  0.25909600  0.21032500  0.67058800  1
  Ca  Ca20  1  0.73994300  0.79649900  0.66385100  1
  Ca  Ca21  1  0.25909600  0.28967500  0.17058800  1
  Ca  Ca22  1  0.26506000  0.57290300  0.38984800  1
  Ca  Ca23  1  0.26506000  0.92709700  0.88984800  1
  Si  Si24  1  0.25879600  0.59244400  0.57170300  1
  Si  Si25  1  0.28649300  0.59250300  0.90401600  1
  Si  Si26  1  0.25879600  0.90755600  0.07170300  1
  Si  Si27  1  0.78649300  0.09250300  0.59598400  1
  Si  Si28  1  0.74405100  0.08021900  0.25912600  1
  Si  Si29  1  0.75879600  0.09244400  0.92829700  1
  Si  Si30  1  0.74405100  0.41978100  0.75912600  1
  Si  Si31  1  0.24405100  0.58021900  0.24087400  1
  Si  Si32  1  0.75879600  0.40755600  0.42829700  1
  Si  Si33  1  0.78649300  0.40749700  0.09598400  1
  Si  Si34  1  0.24405100  0.91978100  0.74087400  1
  Si  Si35  1  0.28649300  0.90749700  0.40401600  1
  O  O36  1  0.02588700  0.66244200  0.92337600  1
  O  O37  1  0.49729300  0.78851400  0.41952100  1
  O  O38  1  0.34072900  0.45026000  0.61432800  1
  O  O39  1  0.53817900  0.29513200  0.74988100  1
  O  O40  1  0.49655900  0.86503900  0.77515700  1
  O  O41  1  0.33524400  0.05032500  0.45089400  1
  O  O42  1  0.83524400  0.55032500  0.04910600  1
  O  O43  1  0.50473400  0.35104700  0.39471200  1
  O  O44  1  0.84072900  0.95026000  0.88567200  1
  O  O45  1  0.99729300  0.21148600  0.58047900  1
  O  O46  1  0.96706400  0.21696600  0.92365500  1
  O  O47  1  0.79728000  0.45529200  0.17197600  1
  O  O48  1  0.18985400  0.54853700  0.49703900  1
  O  O49  1  0.99655900  0.13496100  0.22484300  1
  O  O50  1  0.18985400  0.95146300  0.99703900  1
  O  O51  1  0.46706400  0.78303400  0.07634500  1
  O  O52  1  0.49729300  0.71148600  0.91952100  1
  O  O53  1  0.79888400  0.04600500  0.33516800  1
  O  O54  1  0.00473400  0.64895300  0.60528800  1
  O  O55  1  0.99729300  0.28851400  0.08047900  1
  O  O56  1  0.66767700  0.93221600  0.21927400  1
  O  O57  1  0.52588700  0.16244200  0.57662400  1
  O  O58  1  0.00473400  0.85104700  0.10528800  1
  O  O59  1  0.16767700  0.43221600  0.28072600  1
  O  O60  1  0.79728000  0.04470800  0.67197600  1
  O  O61  1  0.66767700  0.56778400  0.71927400  1
  O  O62  1  0.46706400  0.71696600  0.57634500  1
  O  O63  1  0.16767700  0.06778400  0.78072600  1
  O  O64  1  0.03817900  0.79513200  0.75011900  1
  O  O65  1  0.29728000  0.95529200  0.32802400  1
  O  O66  1  0.68985400  0.04853700  0.00296100  1
  O  O67  1  0.79888400  0.45399500  0.83516800  1
  O  O68  1  0.29888400  0.54600500  0.16483200  1
  O  O69  1  0.99655900  0.36503900  0.72484300  1
  O  O70  1  0.68985400  0.45146300  0.50296100  1
  O  O71  1  0.33524400  0.44967500  0.95089400  1
  O  O72  1  0.02588700  0.83755800  0.42337600  1
  O  O73  1  0.50473400  0.14895300  0.89471200  1
  O  O74  1  0.34072900  0.04974000  0.11432800  1
  O  O75  1  0.53817900  0.20486800  0.24988100  1
  O  O76  1  0.84072900  0.54974000  0.38567200  1
  O  O77  1  0.29888400  0.95399500  0.66483200  1
  O  O78  1  0.52588700  0.33755800  0.07662400  1
  O  O79  1  0.83524400  0.94967500  0.54910600  1
  O  O80  1  0.49655900  0.63496100  0.27515700  1
  O  O81  1  0.96706400  0.28303400  0.42365500  1
  O  O82  1  0.03817900  0.70486800  0.25011900  1
  O  O83  1  0.29728000  0.54470800  0.82802400  1
