# generated using pymatgen
data_Rb2GdGa(SiO3)4
_symmetry_space_group_name_H-M   'P 1'
_cell_length_a   27.30336600
_cell_length_b   7.40918400
_cell_length_c   15.08151053
_cell_angle_alpha   90.00000000
_cell_angle_beta   123.29870270
_cell_angle_gamma   90.00000000
_symmetry_Int_Tables_number   1
_chemical_formula_structural   Rb2GdGa(SiO3)4
_chemical_formula_sum   'Rb16 Gd8 Ga8 Si32 O96'
_cell_volume   2550.02280164
_cell_formula_units_Z   8
loop_
 _symmetry_equiv_pos_site_id
 _symmetry_equiv_pos_as_xyz
  1  'x, y, z'
loop_
 _atom_site_type_symbol
 _atom_site_label
 _atom_site_symmetry_multiplicity
 _atom_site_fract_x
 _atom_site_fract_y
 _atom_site_fract_z
 _atom_site_occupancy
  Rb  Rb0  1  0.80817350  0.50324050  0.03386500  1
  Rb  Rb1  1  0.19182650  0.49675950  0.96613500  1
  Rb  Rb2  1  0.19182650  0.50324050  0.46613500  1
  Rb  Rb3  1  0.80817350  0.49675950  0.53386500  1
  Rb  Rb4  1  0.03478000  0.73743500  0.95286200  1
  Rb  Rb5  1  0.96522000  0.73743500  0.54713800  1
  Rb  Rb6  1  0.96522000  0.26256500  0.04713800  1
  Rb  Rb7  1  0.03478000  0.26256500  0.45286200  1
  Rb  Rb8  1  0.30817350  0.00324050  0.03386500  1
  Rb  Rb9  1  0.69182650  0.99675950  0.96613500  1
  Rb  Rb10  1  0.69182650  0.00324050  0.46613500  1
  Rb  Rb11  1  0.30817350  0.99675950  0.53386500  1
  Rb  Rb12  1  0.53478000  0.23743500  0.95286200  1
  Rb  Rb13  1  0.46522000  0.23743500  0.54713800  1
  Rb  Rb14  1  0.46522000  0.76256500  0.04713800  1
  Rb  Rb15  1  0.53478000  0.76256500  0.45286200  1
  Gd  Gd16  1  0.23116050  0.28267650  0.75001900  1
  Gd  Gd17  1  0.76883950  0.71732350  0.24998100  1
  Gd  Gd18  1  0.26883950  0.78267650  0.74998100  1
  Gd  Gd19  1  0.73116050  0.21732350  0.25001900  1
  Gd  Gd20  1  0.73116050  0.78267650  0.75001900  1
  Gd  Gd21  1  0.26883950  0.21732350  0.24998100  1
  Gd  Gd22  1  0.76883950  0.28267650  0.74998100  1
  Gd  Gd23  1  0.23116050  0.71732350  0.25001900  1
  Ga  Ga24  1  0.06992300  0.30111800  0.72623800  1
  Ga  Ga25  1  0.06992300  0.69888200  0.22623800  1
  Ga  Ga26  1  0.93007700  0.69888200  0.27376200  1
  Ga  Ga27  1  0.93007700  0.30111800  0.77376200  1
  Ga  Ga28  1  0.56992300  0.80111800  0.72623800  1
  Ga  Ga29  1  0.56992300  0.19888200  0.22623800  1
  Ga  Ga30  1  0.43007700  0.19888200  0.27376200  1
  Ga  Ga31  1  0.43007700  0.80111800  0.77376200  1
  Si  Si32  1  0.88055200  0.35886300  0.33907600  1
  Si  Si33  1  0.11944800  0.64113700  0.66092400  1
  Si  Si34  1  0.83251100  0.97209600  0.49124100  1
  Si  Si35  1  0.93777400  0.22963700  0.57733700  1
  Si  Si36  1  0.06222600  0.22963700  0.92266300  1
  Si  Si37  1  0.16205850  0.97638550  0.79533700  1
  Si  Si38  1  0.06222600  0.77036300  0.42266300  1
  Si  Si39  1  0.16748900  0.02790400  0.50875900  1
  Si  Si40  1  0.38055200  0.14113700  0.83907600  1
  Si  Si41  1  0.83794150  0.02361450  0.20466300  1
  Si  Si42  1  0.61944800  0.85886300  0.16092400  1
  Si  Si43  1  0.66205850  0.52361450  0.29533700  1
  Si  Si44  1  0.66748900  0.47209600  0.00875900  1
  Si  Si45  1  0.93777400  0.77036300  0.07733700  1
  Si  Si46  1  0.33794150  0.47638550  0.70466300  1
  Si  Si47  1  0.33251100  0.52790400  0.99124100  1
  Si  Si48  1  0.38055200  0.85886300  0.33907600  1
  Si  Si49  1  0.61944800  0.14113700  0.66092400  1
  Si  Si50  1  0.33251100  0.47209600  0.49124100  1
  Si  Si51  1  0.43777400  0.72963700  0.57733700  1
  Si  Si52  1  0.56222600  0.72963700  0.92266300  1
  Si  Si53  1  0.66205850  0.47638550  0.79533700  1
  Si  Si54  1  0.56222600  0.27036300  0.42266300  1
  Si  Si55  1  0.66748900  0.52790400  0.50875900  1
  Si  Si56  1  0.88055200  0.64113700  0.83907600  1
  Si  Si57  1  0.33794150  0.52361450  0.20466300  1
  Si  Si58  1  0.11944800  0.35886300  0.16092400  1
  Si  Si59  1  0.16205850  0.02361450  0.29533700  1
  Si  Si60  1  0.16748900  0.97209600  0.00875900  1
  Si  Si61  1  0.43777400  0.27036300  0.07733700  1
  Si  Si62  1  0.83794150  0.97638550  0.70466300  1
  Si  Si63  1  0.83251100  0.02790400  0.99124100  1
  O  O64  1  0.71235800  0.63529700  0.07461400  1
  O  O65  1  0.28764200  0.36470300  0.92538600  1
  O  O66  1  0.59109950  0.84687950  0.03226700  1
  O  O67  1  0.82476700  0.09387600  0.08984600  1
  O  O68  1  0.82476700  0.90612400  0.58984600  1
  O  O69  1  0.92684400  0.48773100  0.33275300  1
  O  O70  1  0.31279800  0.07686300  0.77458200  1
  O  O71  1  0.61283950  0.65632250  0.20062900  1
  O  O72  1  0.17523300  0.90612400  0.91015400  1
  O  O73  1  0.32701300  0.70565300  0.92422900  1
  O  O74  1  0.93167100  0.63872300  0.15727600  1
  O  O75  1  0.92684400  0.51226900  0.83275300  1
  O  O76  1  0.90258200  0.03897000  0.55588800  1
  O  O77  1  0.88716050  0.15632250  0.29937100  1
  O  O78  1  0.90890050  0.34687950  0.46773300  1
  O  O79  1  0.77759500  0.01990000  0.20160900  1
  O  O80  1  0.17298700  0.20565300  0.57577100  1
  O  O81  1  0.38716050  0.34367750  0.79937100  1
  O  O82  1  0.81279800  0.42313700  0.27458200  1
  O  O83  1  0.17523300  0.09387600  0.41015400  1
  O  O84  1  0.64051200  0.31195900  0.27010400  1
  O  O85  1  0.67298700  0.29434700  0.07577100  1
  O  O86  1  0.00557850  0.82467750  0.12141100  1
  O  O87  1  0.93167100  0.36127700  0.65727600  1
  O  O88  1  0.07315600  0.51226900  0.66724700  1
  O  O89  1  0.99442150  0.82467750  0.37858900  1
  O  O90  1  0.14051200  0.18804100  0.77010400  1
  O  O91  1  0.72240500  0.51990000  0.29839100  1
  O  O92  1  0.99442150  0.17532250  0.87858900  1
  O  O93  1  0.07315600  0.48773100  0.16724700  1
  O  O94  1  0.78764200  0.13529700  0.42538600  1
  O  O95  1  0.21235800  0.86470300  0.57461400  1
  O  O96  1  0.18720200  0.57686300  0.72541800  1
  O  O97  1  0.06832900  0.36127700  0.84272400  1
  O  O98  1  0.68720200  0.92313700  0.22541800  1
  O  O99  1  0.09741800  0.96103000  0.44411200  1
  O  O100  1  0.09109950  0.65312050  0.53226700  1
  O  O101  1  0.85948800  0.81195900  0.22989600  1
  O  O102  1  0.82701300  0.79434700  0.42422900  1
  O  O103  1  0.06832900  0.63872300  0.34272400  1
  O  O104  1  0.00557850  0.17532250  0.62141100  1
  O  O105  1  0.22240500  0.98010000  0.79839100  1
  O  O106  1  0.90258200  0.96103000  0.05588800  1
  O  O107  1  0.09741800  0.03897000  0.94411200  1
  O  O108  1  0.40890050  0.15312050  0.96773300  1
  O  O109  1  0.11283950  0.84367750  0.70062900  1
  O  O110  1  0.35948800  0.68804100  0.72989600  1
  O  O111  1  0.27759500  0.48010000  0.70160900  1
  O  O112  1  0.21235800  0.13529700  0.07461400  1
  O  O113  1  0.78764200  0.86470300  0.92538600  1
  O  O114  1  0.09109950  0.34687950  0.03226700  1
  O  O115  1  0.32476700  0.59387600  0.08984600  1
  O  O116  1  0.32476700  0.40612400  0.58984600  1
  O  O117  1  0.42684400  0.98773100  0.33275300  1
  O  O118  1  0.81279800  0.57686300  0.77458200  1
  O  O119  1  0.11283950  0.15632250  0.20062900  1
  O  O120  1  0.67523300  0.40612400  0.91015400  1
  O  O121  1  0.82701300  0.20565300  0.92422900  1
  O  O122  1  0.43167100  0.13872300  0.15727600  1
  O  O123  1  0.42684400  0.01226900  0.83275300  1
  O  O124  1  0.40258200  0.53897000  0.55588800  1
  O  O125  1  0.38716050  0.65632250  0.29937100  1
  O  O126  1  0.40890050  0.84687950  0.46773300  1
  O  O127  1  0.27759500  0.51990000  0.20160900  1
  O  O128  1  0.67298700  0.70565300  0.57577100  1
  O  O129  1  0.88716050  0.84367750  0.79937100  1
  O  O130  1  0.31279800  0.92313700  0.27458200  1
  O  O131  1  0.67523300  0.59387600  0.41015400  1
  O  O132  1  0.14051200  0.81195900  0.27010400  1
  O  O133  1  0.17298700  0.79434700  0.07577100  1
  O  O134  1  0.50557850  0.32467750  0.12141100  1
  O  O135  1  0.43167100  0.86127700  0.65727600  1
  O  O136  1  0.57315600  0.01226900  0.66724700  1
  O  O137  1  0.49442150  0.32467750  0.37858900  1
  O  O138  1  0.64051200  0.68804100  0.77010400  1
  O  O139  1  0.22240500  0.01990000  0.29839100  1
  O  O140  1  0.49442150  0.67532250  0.87858900  1
  O  O141  1  0.57315600  0.98773100  0.16724700  1
  O  O142  1  0.28764200  0.63529700  0.42538600  1
  O  O143  1  0.71235800  0.36470300  0.57461400  1
  O  O144  1  0.68720200  0.07686300  0.72541800  1
  O  O145  1  0.56832900  0.86127700  0.84272400  1
  O  O146  1  0.18720200  0.42313700  0.22541800  1
  O  O147  1  0.59741800  0.46103000  0.44411200  1
  O  O148  1  0.59109950  0.15312050  0.53226700  1
  O  O149  1  0.35948800  0.31195900  0.22989600  1
  O  O150  1  0.32701300  0.29434700  0.42422900  1
  O  O151  1  0.56832900  0.13872300  0.34272400  1
  O  O152  1  0.50557850  0.67532250  0.62141100  1
  O  O153  1  0.72240500  0.48010000  0.79839100  1
  O  O154  1  0.40258200  0.46103000  0.05588800  1
  O  O155  1  0.59741800  0.53897000  0.94411200  1
  O  O156  1  0.90890050  0.65312050  0.96773300  1
  O  O157  1  0.61283950  0.34367750  0.70062900  1
  O  O158  1  0.85948800  0.18804100  0.72989600  1
  O  O159  1  0.77759500  0.98010000  0.70160900  1
