# generated using pymatgen
data_NaLiB4O7
_symmetry_space_group_name_H-M   'P 1'
_cell_length_a   10.45503200
_cell_length_b   13.43821800
_cell_length_c   14.28435200
_cell_angle_alpha   90.00000000
_cell_angle_beta   90.00000000
_cell_angle_gamma   90.00000000
_symmetry_Int_Tables_number   1
_chemical_formula_structural   NaLiB4O7
_chemical_formula_sum   'Na16 Li16 B64 O112'
_cell_volume   2006.90859170
_cell_formula_units_Z   16
loop_
 _symmetry_equiv_pos_site_id
 _symmetry_equiv_pos_as_xyz
  1  'x, y, z'
loop_
 _atom_site_type_symbol
 _atom_site_label
 _atom_site_symmetry_multiplicity
 _atom_site_fract_x
 _atom_site_fract_y
 _atom_site_fract_z
 _atom_site_occupancy
  Na  Na0  1  0.12427250  0.35122750  0.51024900  1
  Na  Na1  1  0.62427250  0.64877250  0.98975100  1
  Na  Na2  1  0.87427250  0.10122750  0.73975100  1
  Na  Na3  1  0.37427250  0.89877250  0.76024900  1
  Na  Na4  1  0.62427250  0.35122750  0.01024900  1
  Na  Na5  1  0.12427250  0.64877250  0.48975100  1
  Na  Na6  1  0.37427250  0.10122750  0.23975100  1
  Na  Na7  1  0.87427250  0.89877250  0.26024900  1
  Na  Na8  1  0.62427250  0.85122750  0.51024900  1
  Na  Na9  1  0.12427250  0.14877250  0.98975100  1
  Na  Na10  1  0.37427250  0.60122750  0.73975100  1
  Na  Na11  1  0.87427250  0.39877250  0.76024900  1
  Na  Na12  1  0.12427250  0.85122750  0.01024900  1
  Na  Na13  1  0.62427250  0.14877250  0.48975100  1
  Na  Na14  1  0.87427250  0.60122750  0.23975100  1
  Na  Na15  1  0.37427250  0.39877250  0.26024900  1
  Li  Li16  1  0.12865900  0.99755200  0.63525800  1
  Li  Li17  1  0.37865900  0.25244800  0.88525800  1
  Li  Li18  1  0.87865900  0.74755200  0.61474200  1
  Li  Li19  1  0.62865900  0.00244800  0.86474200  1
  Li  Li20  1  0.62865900  0.99755200  0.13525800  1
  Li  Li21  1  0.87865900  0.25244800  0.38525800  1
  Li  Li22  1  0.37865900  0.74755200  0.11474200  1
  Li  Li23  1  0.12865900  0.00244800  0.36474200  1
  Li  Li24  1  0.62865900  0.49755200  0.63525800  1
  Li  Li25  1  0.87865900  0.75244800  0.88525800  1
  Li  Li26  1  0.37865900  0.24755200  0.61474200  1
  Li  Li27  1  0.12865900  0.50244800  0.86474200  1
  Li  Li28  1  0.12865900  0.49755200  0.13525800  1
  Li  Li29  1  0.37865900  0.75244800  0.38525800  1
  Li  Li30  1  0.87865900  0.24755200  0.11474200  1
  Li  Li31  1  0.62865900  0.50244800  0.36474200  1
  B  B32  1  0.82866500  0.08558650  0.97257450  1
  B  B33  1  0.07866500  0.83558650  0.77742550  1
  B  B34  1  0.07866500  0.66441350  0.72257450  1
  B  B35  1  0.09894500  0.21453250  0.67348450  1
  B  B36  1  0.59894500  0.78546750  0.82651550  1
  B  B37  1  0.32866500  0.91441350  0.52742550  1
  B  B38  1  0.19558500  0.79592750  0.63002350  1
  B  B39  1  0.21587050  0.12442550  0.79514500  1
  B  B40  1  0.21587050  0.37557450  0.70485500  1
  B  B41  1  0.19558500  0.70407250  0.86997650  1
  B  B42  1  0.44558500  0.04592750  0.61997650  1
  B  B43  1  0.96587050  0.12557450  0.54514500  1
  B  B44  1  0.94558500  0.95407250  0.88002350  1
  B  B45  1  0.46587050  0.87442550  0.95485500  1
  B  B46  1  0.84894500  0.96453250  0.57651550  1
  B  B47  1  0.34894500  0.03546750  0.92348450  1
  B  B48  1  0.32866500  0.08558650  0.47257450  1
  B  B49  1  0.57866500  0.83558650  0.27742550  1
  B  B50  1  0.57866500  0.66441350  0.22257450  1
  B  B51  1  0.59894500  0.21453250  0.17348450  1
  B  B52  1  0.09894500  0.78546750  0.32651550  1
  B  B53  1  0.82866500  0.91441350  0.02742550  1
  B  B54  1  0.69558500  0.79592750  0.13002350  1
  B  B55  1  0.71587050  0.12442550  0.29514500  1
  B  B56  1  0.71587050  0.37557450  0.20485500  1
  B  B57  1  0.69558500  0.70407250  0.36997650  1
  B  B58  1  0.94558500  0.04592750  0.11997650  1
  B  B59  1  0.46587050  0.12557450  0.04514500  1
  B  B60  1  0.44558500  0.95407250  0.38002350  1
  B  B61  1  0.96587050  0.87442550  0.45485500  1
  B  B62  1  0.34894500  0.96453250  0.07651550  1
  B  B63  1  0.84894500  0.03546750  0.42348450  1
  B  B64  1  0.32866500  0.58558650  0.97257450  1
  B  B65  1  0.57866500  0.33558650  0.77742550  1
  B  B66  1  0.57866500  0.16441350  0.72257450  1
  B  B67  1  0.59894500  0.71453250  0.67348450  1
  B  B68  1  0.09894500  0.28546750  0.82651550  1
  B  B69  1  0.82866500  0.41441350  0.52742550  1
  B  B70  1  0.69558500  0.29592750  0.63002350  1
  B  B71  1  0.71587050  0.62442550  0.79514500  1
  B  B72  1  0.71587050  0.87557450  0.70485500  1
  B  B73  1  0.69558500  0.20407250  0.86997650  1
  B  B74  1  0.94558500  0.54592750  0.61997650  1
  B  B75  1  0.46587050  0.62557450  0.54514500  1
  B  B76  1  0.44558500  0.45407250  0.88002350  1
  B  B77  1  0.96587050  0.37442550  0.95485500  1
  B  B78  1  0.34894500  0.46453250  0.57651550  1
  B  B79  1  0.84894500  0.53546750  0.92348450  1
  B  B80  1  0.82866500  0.58558650  0.47257450  1
  B  B81  1  0.07866500  0.33558650  0.27742550  1
  B  B82  1  0.07866500  0.16441350  0.22257450  1
  B  B83  1  0.09894500  0.71453250  0.17348450  1
  B  B84  1  0.59894500  0.28546750  0.32651550  1
  B  B85  1  0.32866500  0.41441350  0.02742550  1
  B  B86  1  0.19558500  0.29592750  0.13002350  1
  B  B87  1  0.21587050  0.62442550  0.29514500  1
  B  B88  1  0.21587050  0.87557450  0.20485500  1
  B  B89  1  0.19558500  0.20407250  0.36997650  1
  B  B90  1  0.44558500  0.54592750  0.11997650  1
  B  B91  1  0.96587050  0.62557450  0.04514500  1
  B  B92  1  0.94558500  0.45407250  0.38002350  1
  B  B93  1  0.46587050  0.37442550  0.45485500  1
  B  B94  1  0.84894500  0.46453250  0.07651550  1
  B  B95  1  0.34894500  0.53546750  0.42348450  1
  O  O96  1  0.41345150  0.94697200  0.60757150  1
  O  O97  1  0.41483150  0.13068200  0.95569250  1
  O  O98  1  0.20238450  0.28896700  0.65283150  1
  O  O99  1  0.16345150  0.80302800  0.85757150  1
  O  O100  1  0.16369850  0.86623200  0.69699550  1
  O  O101  1  0.78051600  0.95322350  0.66560850  1
  O  O102  1  0.41369850  0.38376800  0.94699550  1
  O  O103  1  0.45238450  0.96103300  0.90283150  1
  O  O104  1  0.50928350  0.07398850  0.69881000  1
  O  O105  1  0.66483150  0.88068200  0.79430750  1
  O  O106  1  0.24656900  0.00000000  0.50000000  1
  O  O107  1  0.66369850  0.13376800  0.80300450  1
  O  O108  1  0.49656900  0.25000000  0.75000000  1
  O  O109  1  0.16483150  0.11931800  0.70569250  1
  O  O110  1  0.41345150  0.55302800  0.89242850  1
  O  O111  1  0.91483150  0.86931800  0.54430750  1
  O  O112  1  0.76680500  0.00000000  0.50000000  1
  O  O113  1  0.53051600  0.79677650  0.91560850  1
  O  O114  1  0.28051600  0.04677650  0.83439150  1
  O  O115  1  0.00928350  0.92601150  0.80119000  1
  O  O116  1  0.25928350  0.82398850  0.55119000  1
  O  O117  1  0.01680500  0.25000000  0.75000000  1
  O  O118  1  0.41369850  0.11623200  0.55300450  1
  O  O119  1  0.75928350  0.17601150  0.94881000  1
  O  O120  1  0.16345150  0.69697200  0.64242850  1
  O  O121  1  0.95238450  0.03896700  0.59716850  1
  O  O122  1  0.03051600  0.20322350  0.58439150  1
  O  O123  1  0.20238450  0.21103300  0.84716850  1
  O  O124  1  0.91345150  0.94697200  0.10757150  1
  O  O125  1  0.91483150  0.13068200  0.45569250  1
  O  O126  1  0.70238450  0.28896700  0.15283150  1
  O  O127  1  0.66345150  0.80302800  0.35757150  1
  O  O128  1  0.66369850  0.86623200  0.19699550  1
  O  O129  1  0.28051600  0.95322350  0.16560850  1
  O  O130  1  0.91369850  0.38376800  0.44699550  1
  O  O131  1  0.95238450  0.96103300  0.40283150  1
  O  O132  1  0.00928350  0.07398850  0.19881000  1
  O  O133  1  0.16483150  0.88068200  0.29430750  1
  O  O134  1  0.74656900  0.00000000  0.00000000  1
  O  O135  1  0.16369850  0.13376800  0.30300450  1
  O  O136  1  0.99656900  0.25000000  0.25000000  1
  O  O137  1  0.66483150  0.11931800  0.20569250  1
  O  O138  1  0.91345150  0.55302800  0.39242850  1
  O  O139  1  0.41483150  0.86931800  0.04430750  1
  O  O140  1  0.26680500  0.00000000  0.00000000  1
  O  O141  1  0.03051600  0.79677650  0.41560850  1
  O  O142  1  0.78051600  0.04677650  0.33439150  1
  O  O143  1  0.50928350  0.92601150  0.30119000  1
  O  O144  1  0.75928350  0.82398850  0.05119000  1
  O  O145  1  0.51680500  0.25000000  0.25000000  1
  O  O146  1  0.91369850  0.11623200  0.05300450  1
  O  O147  1  0.25928350  0.17601150  0.44881000  1
  O  O148  1  0.66345150  0.69697200  0.14242850  1
  O  O149  1  0.45238450  0.03896700  0.09716850  1
  O  O150  1  0.53051600  0.20322350  0.08439150  1
  O  O151  1  0.70238450  0.21103300  0.34716850  1
  O  O152  1  0.91345150  0.44697200  0.60757150  1
  O  O153  1  0.91483150  0.63068200  0.95569250  1
  O  O154  1  0.70238450  0.78896700  0.65283150  1
  O  O155  1  0.66345150  0.30302800  0.85757150  1
  O  O156  1  0.66369850  0.36623200  0.69699550  1
  O  O157  1  0.28051600  0.45322350  0.66560850  1
  O  O158  1  0.91369850  0.88376800  0.94699550  1
  O  O159  1  0.95238450  0.46103300  0.90283150  1
  O  O160  1  0.00928350  0.57398850  0.69881000  1
  O  O161  1  0.16483150  0.38068200  0.79430750  1
  O  O162  1  0.74656900  0.50000000  0.50000000  1
  O  O163  1  0.16369850  0.63376800  0.80300450  1
  O  O164  1  0.99656900  0.75000000  0.75000000  1
  O  O165  1  0.66483150  0.61931800  0.70569250  1
  O  O166  1  0.91345150  0.05302800  0.89242850  1
  O  O167  1  0.41483150  0.36931800  0.54430750  1
  O  O168  1  0.26680500  0.50000000  0.50000000  1
  O  O169  1  0.03051600  0.29677650  0.91560850  1
  O  O170  1  0.78051600  0.54677650  0.83439150  1
  O  O171  1  0.50928350  0.42601150  0.80119000  1
  O  O172  1  0.75928350  0.32398850  0.55119000  1
  O  O173  1  0.51680500  0.75000000  0.75000000  1
  O  O174  1  0.91369850  0.61623200  0.55300450  1
  O  O175  1  0.25928350  0.67601150  0.94881000  1
  O  O176  1  0.66345150  0.19697200  0.64242850  1
  O  O177  1  0.45238450  0.53896700  0.59716850  1
  O  O178  1  0.53051600  0.70322350  0.58439150  1
  O  O179  1  0.70238450  0.71103300  0.84716850  1
  O  O180  1  0.41345150  0.44697200  0.10757150  1
  O  O181  1  0.41483150  0.63068200  0.45569250  1
  O  O182  1  0.20238450  0.78896700  0.15283150  1
  O  O183  1  0.16345150  0.30302800  0.35757150  1
  O  O184  1  0.16369850  0.36623200  0.19699550  1
  O  O185  1  0.78051600  0.45322350  0.16560850  1
  O  O186  1  0.41369850  0.88376800  0.44699550  1
  O  O187  1  0.45238450  0.46103300  0.40283150  1
  O  O188  1  0.50928350  0.57398850  0.19881000  1
  O  O189  1  0.66483150  0.38068200  0.29430750  1
  O  O190  1  0.24656900  0.50000000  0.00000000  1
  O  O191  1  0.66369850  0.63376800  0.30300450  1
  O  O192  1  0.49656900  0.75000000  0.25000000  1
  O  O193  1  0.16483150  0.61931800  0.20569250  1
  O  O194  1  0.41345150  0.05302800  0.39242850  1
  O  O195  1  0.91483150  0.36931800  0.04430750  1
  O  O196  1  0.76680500  0.50000000  0.00000000  1
  O  O197  1  0.53051600  0.29677650  0.41560850  1
  O  O198  1  0.28051600  0.54677650  0.33439150  1
  O  O199  1  0.00928350  0.42601150  0.30119000  1
  O  O200  1  0.25928350  0.32398850  0.05119000  1
  O  O201  1  0.01680500  0.75000000  0.25000000  1
  O  O202  1  0.41369850  0.61623200  0.05300450  1
  O  O203  1  0.75928350  0.67601150  0.44881000  1
  O  O204  1  0.16345150  0.19697200  0.14242850  1
  O  O205  1  0.95238450  0.53896700  0.09716850  1
  O  O206  1  0.03051600  0.70322350  0.08439150  1
  O  O207  1  0.20238450  0.71103300  0.34716850  1
