# generated using pymatgen
data_Ag2P2PbO7
_symmetry_space_group_name_H-M   'P 1'
_cell_length_a   5.50616303
_cell_length_b   7.10518171
_cell_length_c   10.42408391
_cell_angle_alpha   107.91683852
_cell_angle_beta   93.26550110
_cell_angle_gamma   111.31539695
_symmetry_Int_Tables_number   1
_chemical_formula_structural   Ag2P2PbO7
_chemical_formula_sum   'Ag4 P4 Pb2 O14'
_cell_volume   354.87831247
_cell_formula_units_Z   2
loop_
 _symmetry_equiv_pos_site_id
 _symmetry_equiv_pos_as_xyz
  1  'x, y, z'
loop_
 _atom_site_type_symbol
 _atom_site_label
 _atom_site_symmetry_multiplicity
 _atom_site_fract_x
 _atom_site_fract_y
 _atom_site_fract_z
 _atom_site_occupancy
  Ag  Ag0  1  0.46949083  0.70231573  0.19368188  1
  Ag  Ag1  1  0.93521217  0.25684572  0.97305111  1
  Ag  Ag2  1  0.06478783  0.74315428  0.02694889  1
  Ag  Ag3  1  0.53050917  0.29768427  0.80631812  1
  P  P4  1  0.32712421  0.20149169  0.16339924  1
  P  P5  1  0.67287579  0.79850831  0.83660076  1
  P  P6  1  0.09166679  0.20906601  0.63823037  1
  P  P7  1  0.90833321  0.79093399  0.36176963  1
  Pb  Pb8  1  0.22575026  0.73624592  0.63097477  1
  Pb  Pb9  1  0.77424974  0.26375408  0.36902523  1
  O  O10  1  0.05372453  0.35630353  0.72742689  1
  O  O11  1  0.73649793  0.88375490  0.95571924  1
  O  O12  1  0.68554097  0.86451982  0.34086647  1
  O  O13  1  0.36555037  0.69735020  0.85115155  1
  O  O14  1  0.94627547  0.64369647  0.27257311  1
  O  O15  1  0.81272561  0.65023688  0.80677070  1
  O  O16  1  0.18727439  0.34976312  0.19322930  1
  O  O17  1  0.79818139  0.99779515  0.69746643  1
  O  O18  1  0.20181861  0.00220485  0.30253357  1
  O  O19  1  0.12354004  0.30253115  0.48942554  1
  O  O20  1  0.87645996  0.69746885  0.51057446  1
  O  O21  1  0.31445903  0.13548018  0.65913353  1
  O  O22  1  0.63444963  0.30264980  0.14884845  1
  O  O23  1  0.26350207  0.11624510  0.04428076  1
