# generated using pymatgen
data_KHg2S(ClO)3
_symmetry_space_group_name_H-M   'P 1'
_cell_length_a   6.18865800
_cell_length_b   22.38878600
_cell_length_c   7.03473800
_cell_angle_alpha   90.00000000
_cell_angle_beta   90.00000000
_cell_angle_gamma   90.00000000
_symmetry_Int_Tables_number   1
_chemical_formula_structural   KHg2S(ClO)3
_chemical_formula_sum   'K4 Hg8 S4 Cl12 O12'
_cell_volume   974.70895420
_cell_formula_units_Z   4
loop_
 _symmetry_equiv_pos_site_id
 _symmetry_equiv_pos_as_xyz
  1  'x, y, z'
loop_
 _atom_site_type_symbol
 _atom_site_label
 _atom_site_symmetry_multiplicity
 _atom_site_fract_x
 _atom_site_fract_y
 _atom_site_fract_z
 _atom_site_occupancy
  K  K0  1  0.50000000  0.76174400  0.30464100  1
  K  K1  1  0.00000000  0.73825600  0.80464100  1
  K  K2  1  0.00000000  0.26174400  0.30464100  1
  K  K3  1  0.50000000  0.23825600  0.80464100  1
  Hg  Hg4  1  0.00000000  0.90127400  0.15700100  1
  Hg  Hg5  1  0.00000000  0.56072400  0.28034300  1
  Hg  Hg6  1  0.50000000  0.59872600  0.65700100  1
  Hg  Hg7  1  0.50000000  0.93927600  0.78034300  1
  Hg  Hg8  1  0.50000000  0.40127400  0.15700100  1
  Hg  Hg9  1  0.50000000  0.06072400  0.28034300  1
  Hg  Hg10  1  0.00000000  0.09872600  0.65700100  1
  Hg  Hg11  1  0.00000000  0.43927600  0.78034300  1
  S  S12  1  0.00000000  0.66739400  0.34990100  1
  S  S13  1  0.50000000  0.83260600  0.84990100  1
  S  S14  1  0.50000000  0.16739400  0.34990100  1
  S  S15  1  0.00000000  0.33260600  0.84990100  1
  Cl  Cl16  1  0.00000000  0.84604400  0.43606600  1
  Cl  Cl17  1  0.00000000  0.54678300  0.73910400  1
  Cl  Cl18  1  0.50000000  0.65395600  0.93606600  1
  Cl  Cl19  1  0.50000000  0.53986600  0.38238600  1
  Cl  Cl20  1  0.00000000  0.96013400  0.88238600  1
  Cl  Cl21  1  0.50000000  0.95321700  0.23910400  1
  Cl  Cl22  1  0.50000000  0.34604400  0.43606600  1
  Cl  Cl23  1  0.50000000  0.04678300  0.73910400  1
  Cl  Cl24  1  0.00000000  0.15395600  0.93606600  1
  Cl  Cl25  1  0.00000000  0.03986600  0.38238600  1
  Cl  Cl26  1  0.50000000  0.46013400  0.88238600  1
  Cl  Cl27  1  0.00000000  0.45321700  0.23910400  1
  O  O28  1  0.30201850  0.82185750  0.96483700  1
  O  O29  1  0.50000000  0.79900800  0.67058600  1
  O  O30  1  0.19798150  0.67814250  0.46483700  1
  O  O31  1  0.80201850  0.67814250  0.46483700  1
  O  O32  1  0.00000000  0.70099200  0.17058600  1
  O  O33  1  0.69798150  0.82185750  0.96483700  1
  O  O34  1  0.80201850  0.32185750  0.96483700  1
  O  O35  1  0.00000000  0.29900800  0.67058600  1
  O  O36  1  0.69798150  0.17814250  0.46483700  1
  O  O37  1  0.30201850  0.17814250  0.46483700  1
  O  O38  1  0.50000000  0.20099200  0.17058600  1
  O  O39  1  0.19798150  0.32185750  0.96483700  1
