# generated using pymatgen
data_BeCl2
_symmetry_space_group_name_H-M   'P 1'
_cell_length_a   11.16576800
_cell_length_b   11.16576800
_cell_length_c   18.14152800
_cell_angle_alpha   90.00000000
_cell_angle_beta   90.00000000
_cell_angle_gamma   90.00000000
_symmetry_Int_Tables_number   1
_chemical_formula_structural   BeCl2
_chemical_formula_sum   'Be32 Cl64'
_cell_volume   2261.78366549
_cell_formula_units_Z   32
loop_
 _symmetry_equiv_pos_site_id
 _symmetry_equiv_pos_as_xyz
  1  'x, y, z'
loop_
 _atom_site_type_symbol
 _atom_site_label
 _atom_site_symmetry_multiplicity
 _atom_site_fract_x
 _atom_site_fract_y
 _atom_site_fract_z
 _atom_site_occupancy
  Be  Be0  1  0.57653150  0.37488750  0.43621850  1
  Be  Be1  1  0.42346850  0.62511250  0.43621850  1
  Be  Be2  1  0.87488750  0.92346850  0.06378150  1
  Be  Be3  1  0.12511250  0.57653150  0.18621850  1
  Be  Be4  1  0.37488750  0.07653150  0.18621850  1
  Be  Be5  1  0.57653150  0.12511250  0.31378150  1
  Be  Be6  1  0.42346850  0.87488750  0.31378150  1
  Be  Be7  1  0.07653150  0.12511250  0.43621850  1
  Be  Be8  1  0.92346850  0.62511250  0.31378150  1
  Be  Be9  1  0.62511250  0.92346850  0.18621850  1
  Be  Be10  1  0.12511250  0.07653150  0.06378150  1
  Be  Be11  1  0.92346850  0.87488750  0.43621850  1
  Be  Be12  1  0.87488750  0.42346850  0.18621850  1
  Be  Be13  1  0.07653150  0.37488750  0.31378150  1
  Be  Be14  1  0.37488750  0.57653150  0.06378150  1
  Be  Be15  1  0.62511250  0.42346850  0.06378150  1
  Be  Be16  1  0.07653150  0.87488750  0.93621850  1
  Be  Be17  1  0.92346850  0.12511250  0.93621850  1
  Be  Be18  1  0.37488750  0.42346850  0.56378150  1
  Be  Be19  1  0.62511250  0.07653150  0.68621850  1
  Be  Be20  1  0.87488750  0.57653150  0.68621850  1
  Be  Be21  1  0.07653150  0.62511250  0.81378150  1
  Be  Be22  1  0.92346850  0.37488750  0.81378150  1
  Be  Be23  1  0.57653150  0.62511250  0.93621850  1
  Be  Be24  1  0.42346850  0.12511250  0.81378150  1
  Be  Be25  1  0.12511250  0.42346850  0.68621850  1
  Be  Be26  1  0.62511250  0.57653150  0.56378150  1
  Be  Be27  1  0.42346850  0.37488750  0.93621850  1
  Be  Be28  1  0.37488750  0.92346850  0.68621850  1
  Be  Be29  1  0.57653150  0.87488750  0.81378150  1
  Be  Be30  1  0.87488750  0.07653150  0.56378150  1
  Be  Be31  1  0.12511250  0.92346850  0.56378150  1
  Cl  Cl32  1  0.75000000  0.83373300  0.12500000  1
  Cl  Cl33  1  0.25000000  0.66626700  0.12500000  1
  Cl  Cl34  1  0.50000000  0.50000000  0.13081300  1
  Cl  Cl35  1  0.54786200  0.79321000  0.24966000  1
  Cl  Cl36  1  0.70679000  0.45213800  0.49966000  1
  Cl  Cl37  1  0.00000000  0.50000000  0.11918700  1
  Cl  Cl38  1  0.45213800  0.20679000  0.24966000  1
  Cl  Cl39  1  0.95213800  0.29321000  0.24966000  1
  Cl  Cl40  1  0.66626700  0.25000000  0.37500000  1
  Cl  Cl41  1  0.00000000  0.50000000  0.38081300  1
  Cl  Cl42  1  0.95213800  0.79321000  0.00034000  1
  Cl  Cl43  1  0.45213800  0.70679000  0.00034000  1
  Cl  Cl44  1  0.75000000  0.33373300  0.12500000  1
  Cl  Cl45  1  0.50000000  0.50000000  0.36918700  1
  Cl  Cl46  1  0.16626700  0.25000000  0.37500000  1
  Cl  Cl47  1  0.79321000  0.54786200  0.25034000  1
  Cl  Cl48  1  0.50000000  0.00000000  0.11918700  1
  Cl  Cl49  1  0.20679000  0.04786200  0.49966000  1
  Cl  Cl50  1  0.20679000  0.45213800  0.25034000  1
  Cl  Cl51  1  0.04786200  0.20679000  0.00034000  1
  Cl  Cl52  1  0.70679000  0.04786200  0.25034000  1
  Cl  Cl53  1  0.33373300  0.75000000  0.37500000  1
  Cl  Cl54  1  0.25000000  0.16626700  0.12500000  1
  Cl  Cl55  1  0.79321000  0.95213800  0.49966000  1
  Cl  Cl56  1  0.04786200  0.70679000  0.24966000  1
  Cl  Cl57  1  0.29321000  0.54786200  0.49966000  1
  Cl  Cl58  1  0.00000000  0.00000000  0.36918700  1
  Cl  Cl59  1  0.54786200  0.29321000  0.00034000  1
  Cl  Cl60  1  0.29321000  0.95213800  0.25034000  1
  Cl  Cl61  1  0.00000000  0.00000000  0.13081300  1
  Cl  Cl62  1  0.83373300  0.75000000  0.37500000  1
  Cl  Cl63  1  0.50000000  0.00000000  0.38081300  1
  Cl  Cl64  1  0.25000000  0.33373300  0.62500000  1
  Cl  Cl65  1  0.75000000  0.16626700  0.62500000  1
  Cl  Cl66  1  0.00000000  0.00000000  0.63081300  1
  Cl  Cl67  1  0.04786200  0.29321000  0.74966000  1
  Cl  Cl68  1  0.20679000  0.95213800  0.99966000  1
  Cl  Cl69  1  0.50000000  0.00000000  0.61918700  1
  Cl  Cl70  1  0.95213800  0.70679000  0.74966000  1
  Cl  Cl71  1  0.45213800  0.79321000  0.74966000  1
  Cl  Cl72  1  0.16626700  0.75000000  0.87500000  1
  Cl  Cl73  1  0.50000000  0.00000000  0.88081300  1
  Cl  Cl74  1  0.45213800  0.29321000  0.50034000  1
  Cl  Cl75  1  0.95213800  0.20679000  0.50034000  1
  Cl  Cl76  1  0.25000000  0.83373300  0.62500000  1
  Cl  Cl77  1  0.00000000  0.00000000  0.86918700  1
  Cl  Cl78  1  0.66626700  0.75000000  0.87500000  1
  Cl  Cl79  1  0.29321000  0.04786200  0.75034000  1
  Cl  Cl80  1  0.00000000  0.50000000  0.61918700  1
  Cl  Cl81  1  0.70679000  0.54786200  0.99966000  1
  Cl  Cl82  1  0.70679000  0.95213800  0.75034000  1
  Cl  Cl83  1  0.54786200  0.70679000  0.50034000  1
  Cl  Cl84  1  0.20679000  0.54786200  0.75034000  1
  Cl  Cl85  1  0.83373300  0.25000000  0.87500000  1
  Cl  Cl86  1  0.75000000  0.66626700  0.62500000  1
  Cl  Cl87  1  0.29321000  0.45213800  0.99966000  1
  Cl  Cl88  1  0.54786200  0.20679000  0.74966000  1
  Cl  Cl89  1  0.79321000  0.04786200  0.99966000  1
  Cl  Cl90  1  0.50000000  0.50000000  0.86918700  1
  Cl  Cl91  1  0.04786200  0.79321000  0.50034000  1
  Cl  Cl92  1  0.79321000  0.45213800  0.75034000  1
  Cl  Cl93  1  0.50000000  0.50000000  0.63081300  1
  Cl  Cl94  1  0.33373300  0.25000000  0.87500000  1
  Cl  Cl95  1  0.00000000  0.50000000  0.88081300  1
