# generated using pymatgen
data_NaI(OF)2
_symmetry_space_group_name_H-M   'P 1'
_cell_length_a   7.15510200
_cell_length_b   7.54192600
_cell_length_c   7.35419300
_cell_angle_alpha   90.00000000
_cell_angle_beta   90.00000000
_cell_angle_gamma   90.00000000
_symmetry_Int_Tables_number   1
_chemical_formula_structural   NaI(OF)2
_chemical_formula_sum   'Na4 I4 O8 F8'
_cell_volume   396.85615398
_cell_formula_units_Z   4
loop_
 _symmetry_equiv_pos_site_id
 _symmetry_equiv_pos_as_xyz
  1  'x, y, z'
loop_
 _atom_site_type_symbol
 _atom_site_label
 _atom_site_symmetry_multiplicity
 _atom_site_fract_x
 _atom_site_fract_y
 _atom_site_fract_z
 _atom_site_occupancy
  Na  Na0  1  0.00000000  0.00000000  0.00000000  1
  Na  Na1  1  0.00000000  0.00000000  0.50000000  1
  Na  Na2  1  0.50000000  0.50000000  0.00000000  1
  Na  Na3  1  0.50000000  0.50000000  0.50000000  1
  I  I4  1  0.50000000  0.04021800  0.75000000  1
  I  I5  1  0.50000000  0.95978200  0.25000000  1
  I  I6  1  0.00000000  0.54021800  0.75000000  1
  I  I7  1  0.00000000  0.45978200  0.25000000  1
  O  O8  1  0.50000000  0.18884300  0.94198100  1
  O  O9  1  0.50000000  0.18884300  0.55801900  1
  O  O10  1  0.50000000  0.81115700  0.05801900  1
  O  O11  1  0.50000000  0.81115700  0.44198100  1
  O  O12  1  0.00000000  0.68884300  0.94198100  1
  O  O13  1  0.00000000  0.68884300  0.55801900  1
  O  O14  1  0.00000000  0.31115700  0.05801900  1
  O  O15  1  0.00000000  0.31115700  0.44198100  1
  F  F16  1  0.78954950  0.96621150  0.25000000  1
  F  F17  1  0.21045050  0.96621150  0.25000000  1
  F  F18  1  0.78954950  0.03378850  0.75000000  1
  F  F19  1  0.21045050  0.03378850  0.75000000  1
  F  F20  1  0.28954950  0.46621150  0.25000000  1
  F  F21  1  0.71045050  0.46621150  0.25000000  1
  F  F22  1  0.28954950  0.53378850  0.75000000  1
  F  F23  1  0.71045050  0.53378850  0.75000000  1
