# generated using pymatgen
data_Zr(SeCl6)2
_symmetry_space_group_name_H-M   'P 1'
_cell_length_a   12.52750800
_cell_length_b   13.22010800
_cell_length_c   22.75251200
_cell_angle_alpha   90.00000000
_cell_angle_beta   90.00000000
_cell_angle_gamma   90.00000000
_symmetry_Int_Tables_number   1
_chemical_formula_structural   Zr(SeCl6)2
_chemical_formula_sum   'Zr8 Se16 Cl96'
_cell_volume   3768.15747353
_cell_formula_units_Z   8
loop_
 _symmetry_equiv_pos_site_id
 _symmetry_equiv_pos_as_xyz
  1  'x, y, z'
loop_
 _atom_site_type_symbol
 _atom_site_label
 _atom_site_symmetry_multiplicity
 _atom_site_fract_x
 _atom_site_fract_y
 _atom_site_fract_z
 _atom_site_occupancy
  Zr  Zr0  1  0.25000000  0.25000000  0.37667600  1
  Zr  Zr1  1  0.50000000  0.50000000  0.12667600  1
  Zr  Zr2  1  0.25000000  0.75000000  0.87667600  1
  Zr  Zr3  1  0.50000000  0.00000000  0.62667600  1
  Zr  Zr4  1  0.75000000  0.25000000  0.87667600  1
  Zr  Zr5  1  0.00000000  0.50000000  0.62667600  1
  Zr  Zr6  1  0.75000000  0.75000000  0.37667600  1
  Zr  Zr7  1  0.00000000  0.00000000  0.12667600  1
  Se  Se8  1  0.00601400  0.27376100  0.04453700  1
  Se  Se9  1  0.24398600  0.52376100  0.29453700  1
  Se  Se10  1  0.75601400  0.47623900  0.29453700  1
  Se  Se11  1  0.99398600  0.72623900  0.04453700  1
  Se  Se12  1  0.00601400  0.77376100  0.54453700  1
  Se  Se13  1  0.24398600  0.02376100  0.79453700  1
  Se  Se14  1  0.75601400  0.97623900  0.79453700  1
  Se  Se15  1  0.99398600  0.22623900  0.54453700  1
  Se  Se16  1  0.50601400  0.27376100  0.54453700  1
  Se  Se17  1  0.74398600  0.52376100  0.79453700  1
  Se  Se18  1  0.25601400  0.47623900  0.79453700  1
  Se  Se19  1  0.49398600  0.72623900  0.54453700  1
  Se  Se20  1  0.50601400  0.77376100  0.04453700  1
  Se  Se21  1  0.74398600  0.02376100  0.29453700  1
  Se  Se22  1  0.25601400  0.97623900  0.29453700  1
  Se  Se23  1  0.49398600  0.22623900  0.04453700  1
  Cl  Cl24  1  0.62642500  0.81903550  0.45115850  1
  Cl  Cl25  1  0.89518750  0.67268300  0.11770350  1
  Cl  Cl26  1  0.63682950  0.35356750  0.29788800  1
  Cl  Cl27  1  0.39075500  0.41488300  0.04765600  1
  Cl  Cl28  1  0.11189500  0.84285500  0.12259400  1
  Cl  Cl29  1  0.10481250  0.32731700  0.11770350  1
  Cl  Cl30  1  0.39137400  0.66449350  0.47390050  1
  Cl  Cl31  1  0.36189500  0.40714500  0.37259400  1
  Cl  Cl32  1  0.36317050  0.64643250  0.29788800  1
  Cl  Cl33  1  0.62357500  0.56903550  0.20115850  1
  Cl  Cl34  1  0.63810500  0.59285500  0.37259400  1
  Cl  Cl35  1  0.37357500  0.18096450  0.45115850  1
  Cl  Cl36  1  0.10924500  0.08511700  0.04765600  1
  Cl  Cl37  1  0.85862600  0.41449350  0.22390050  1
  Cl  Cl38  1  0.60862600  0.33550650  0.47390050  1
  Cl  Cl39  1  0.38810500  0.65714500  0.12259400  1
  Cl  Cl40  1  0.37642500  0.43096450  0.20115850  1
  Cl  Cl41  1  0.14075500  0.33511700  0.29765600  1
  Cl  Cl42  1  0.35481250  0.92268300  0.36770350  1
  Cl  Cl43  1  0.88682950  0.39643250  0.04788800  1
  Cl  Cl44  1  0.14137400  0.58550650  0.22390050  1
  Cl  Cl45  1  0.35924500  0.16488300  0.29765600  1
  Cl  Cl46  1  0.11317050  0.60356750  0.04788800  1
  Cl  Cl47  1  0.14518750  0.57731700  0.36770350  1
  Cl  Cl48  1  0.62642500  0.31903550  0.95115850  1
  Cl  Cl49  1  0.89518750  0.17268300  0.61770350  1
  Cl  Cl50  1  0.63682950  0.85356750  0.79788800  1
  Cl  Cl51  1  0.39075500  0.91488300  0.54765600  1
  Cl  Cl52  1  0.11189500  0.34285500  0.62259400  1
  Cl  Cl53  1  0.10481250  0.82731700  0.61770350  1
  Cl  Cl54  1  0.39137400  0.16449350  0.97390050  1
  Cl  Cl55  1  0.36189500  0.90714500  0.87259400  1
  Cl  Cl56  1  0.36317050  0.14643250  0.79788800  1
  Cl  Cl57  1  0.62357500  0.06903550  0.70115850  1
  Cl  Cl58  1  0.63810500  0.09285500  0.87259400  1
  Cl  Cl59  1  0.37357500  0.68096450  0.95115850  1
  Cl  Cl60  1  0.10924500  0.58511700  0.54765600  1
  Cl  Cl61  1  0.85862600  0.91449350  0.72390050  1
  Cl  Cl62  1  0.60862600  0.83550650  0.97390050  1
  Cl  Cl63  1  0.38810500  0.15714500  0.62259400  1
  Cl  Cl64  1  0.37642500  0.93096450  0.70115850  1
  Cl  Cl65  1  0.14075500  0.83511700  0.79765600  1
  Cl  Cl66  1  0.35481250  0.42268300  0.86770350  1
  Cl  Cl67  1  0.88682950  0.89643250  0.54788800  1
  Cl  Cl68  1  0.14137400  0.08550650  0.72390050  1
  Cl  Cl69  1  0.35924500  0.66488300  0.79765600  1
  Cl  Cl70  1  0.11317050  0.10356750  0.54788800  1
  Cl  Cl71  1  0.14518750  0.07731700  0.86770350  1
  Cl  Cl72  1  0.12642500  0.81903550  0.95115850  1
  Cl  Cl73  1  0.39518750  0.67268300  0.61770350  1
  Cl  Cl74  1  0.13682950  0.35356750  0.79788800  1
  Cl  Cl75  1  0.89075500  0.41488300  0.54765600  1
  Cl  Cl76  1  0.61189500  0.84285500  0.62259400  1
  Cl  Cl77  1  0.60481250  0.32731700  0.61770350  1
  Cl  Cl78  1  0.89137400  0.66449350  0.97390050  1
  Cl  Cl79  1  0.86189500  0.40714500  0.87259400  1
  Cl  Cl80  1  0.86317050  0.64643250  0.79788800  1
  Cl  Cl81  1  0.12357500  0.56903550  0.70115850  1
  Cl  Cl82  1  0.13810500  0.59285500  0.87259400  1
  Cl  Cl83  1  0.87357500  0.18096450  0.95115850  1
  Cl  Cl84  1  0.60924500  0.08511700  0.54765600  1
  Cl  Cl85  1  0.35862600  0.41449350  0.72390050  1
  Cl  Cl86  1  0.10862600  0.33550650  0.97390050  1
  Cl  Cl87  1  0.88810500  0.65714500  0.62259400  1
  Cl  Cl88  1  0.87642500  0.43096450  0.70115850  1
  Cl  Cl89  1  0.64075500  0.33511700  0.79765600  1
  Cl  Cl90  1  0.85481250  0.92268300  0.86770350  1
  Cl  Cl91  1  0.38682950  0.39643250  0.54788800  1
  Cl  Cl92  1  0.64137400  0.58550650  0.72390050  1
  Cl  Cl93  1  0.85924500  0.16488300  0.79765600  1
  Cl  Cl94  1  0.61317050  0.60356750  0.54788800  1
  Cl  Cl95  1  0.64518750  0.57731700  0.86770350  1
  Cl  Cl96  1  0.12642500  0.31903550  0.45115850  1
  Cl  Cl97  1  0.39518750  0.17268300  0.11770350  1
  Cl  Cl98  1  0.13682950  0.85356750  0.29788800  1
  Cl  Cl99  1  0.89075500  0.91488300  0.04765600  1
  Cl  Cl100  1  0.61189500  0.34285500  0.12259400  1
  Cl  Cl101  1  0.60481250  0.82731700  0.11770350  1
  Cl  Cl102  1  0.89137400  0.16449350  0.47390050  1
  Cl  Cl103  1  0.86189500  0.90714500  0.37259400  1
  Cl  Cl104  1  0.86317050  0.14643250  0.29788800  1
  Cl  Cl105  1  0.12357500  0.06903550  0.20115850  1
  Cl  Cl106  1  0.13810500  0.09285500  0.37259400  1
  Cl  Cl107  1  0.87357500  0.68096450  0.45115850  1
  Cl  Cl108  1  0.60924500  0.58511700  0.04765600  1
  Cl  Cl109  1  0.35862600  0.91449350  0.22390050  1
  Cl  Cl110  1  0.10862600  0.83550650  0.47390050  1
  Cl  Cl111  1  0.88810500  0.15714500  0.12259400  1
  Cl  Cl112  1  0.87642500  0.93096450  0.20115850  1
  Cl  Cl113  1  0.64075500  0.83511700  0.29765600  1
  Cl  Cl114  1  0.85481250  0.42268300  0.36770350  1
  Cl  Cl115  1  0.38682950  0.89643250  0.04788800  1
  Cl  Cl116  1  0.64137400  0.08550650  0.22390050  1
  Cl  Cl117  1  0.85924500  0.66488300  0.29765600  1
  Cl  Cl118  1  0.61317050  0.10356750  0.04788800  1
  Cl  Cl119  1  0.64518750  0.07731700  0.36770350  1
