# generated using pymatgen
data_CsReBrCl3
_symmetry_space_group_name_H-M   'P 1'
_cell_length_a   14.50177000
_cell_length_b   14.61355400
_cell_length_c   11.09723200
_cell_angle_alpha   90.00000000
_cell_angle_beta   90.00000000
_cell_angle_gamma   90.00000000
_symmetry_Int_Tables_number   1
_chemical_formula_structural   CsReBrCl3
_chemical_formula_sum   'Cs12 Re12 Br12 Cl36'
_cell_volume   2351.75202760
_cell_formula_units_Z   12
loop_
 _symmetry_equiv_pos_site_id
 _symmetry_equiv_pos_as_xyz
  1  'x, y, z'
loop_
 _atom_site_type_symbol
 _atom_site_label
 _atom_site_symmetry_multiplicity
 _atom_site_fract_x
 _atom_site_fract_y
 _atom_site_fract_z
 _atom_site_occupancy
  Cs  Cs0  1  0.61458450  0.81820850  0.75000000  1
  Cs  Cs1  1  0.00435600  0.00000000  0.50000000  1
  Cs  Cs2  1  0.39166900  0.09608400  0.75000000  1
  Cs  Cs3  1  0.61458450  0.18179150  0.25000000  1
  Cs  Cs4  1  0.00435600  0.00000000  0.00000000  1
  Cs  Cs5  1  0.39166900  0.90391600  0.25000000  1
  Cs  Cs6  1  0.11458450  0.31820850  0.75000000  1
  Cs  Cs7  1  0.50435600  0.50000000  0.50000000  1
  Cs  Cs8  1  0.89166900  0.59608400  0.75000000  1
  Cs  Cs9  1  0.11458450  0.68179150  0.25000000  1
  Cs  Cs10  1  0.50435600  0.50000000  0.00000000  1
  Cs  Cs11  1  0.89166900  0.40391600  0.25000000  1
  Re  Re12  1  0.77615800  0.14190900  0.75000000  1
  Re  Re13  1  0.23045200  0.78134500  0.63808500  1
  Re  Re14  1  0.23045200  0.78134500  0.86191500  1
  Re  Re15  1  0.23045200  0.21865500  0.13808500  1
  Re  Re16  1  0.77615800  0.85809100  0.25000000  1
  Re  Re17  1  0.23045200  0.21865500  0.36191500  1
  Re  Re18  1  0.27615800  0.64190900  0.75000000  1
  Re  Re19  1  0.73045200  0.28134500  0.63808500  1
  Re  Re20  1  0.73045200  0.28134500  0.86191500  1
  Re  Re21  1  0.73045200  0.71865500  0.13808500  1
  Re  Re22  1  0.27615800  0.35809100  0.25000000  1
  Re  Re23  1  0.73045200  0.71865500  0.36191500  1
  Br  Br24  1  0.18293650  0.07127550  0.25000000  1
  Br  Br25  1  0.77808000  0.86160800  0.48220000  1
  Br  Br26  1  0.77808000  0.13839200  0.98220000  1
  Br  Br27  1  0.77808000  0.86160800  0.01780000  1
  Br  Br28  1  0.77808000  0.13839200  0.51780000  1
  Br  Br29  1  0.18293650  0.92872450  0.75000000  1
  Br  Br30  1  0.68293650  0.57127550  0.25000000  1
  Br  Br31  1  0.27808000  0.36160800  0.48220000  1
  Br  Br32  1  0.27808000  0.63839200  0.98220000  1
  Br  Br33  1  0.27808000  0.36160800  0.01780000  1
  Br  Br34  1  0.27808000  0.63839200  0.51780000  1
  Br  Br35  1  0.68293650  0.42872450  0.75000000  1
  Cl  Cl36  1  0.37529900  0.15289900  0.10266600  1
  Cl  Cl37  1  0.57581100  0.24712300  0.89595000  1
  Cl  Cl38  1  0.57581100  0.75287700  0.39595000  1
  Cl  Cl39  1  0.20126550  0.86189850  0.07010300  1
  Cl  Cl40  1  0.20126550  0.13810150  0.57010300  1
  Cl  Cl41  1  0.37529900  0.84710100  0.60266600  1
  Cl  Cl42  1  0.83543200  0.97208600  0.75000000  1
  Cl  Cl43  1  0.37529900  0.84710100  0.89733400  1
  Cl  Cl44  1  0.20126550  0.86189850  0.42989700  1
  Cl  Cl45  1  0.57581100  0.75287700  0.10405000  1
  Cl  Cl46  1  0.83543200  0.02791400  0.25000000  1
  Cl  Cl47  1  0.43602800  0.66201700  0.75000000  1
  Cl  Cl48  1  0.37529900  0.15289900  0.39733400  1
  Cl  Cl49  1  0.63573150  0.06368750  0.75000000  1
  Cl  Cl50  1  0.43602800  0.33798300  0.25000000  1
  Cl  Cl51  1  0.20126550  0.13810150  0.92989700  1
  Cl  Cl52  1  0.63573150  0.93631250  0.25000000  1
  Cl  Cl53  1  0.57581100  0.24712300  0.60405000  1
  Cl  Cl54  1  0.87529900  0.65289900  0.10266600  1
  Cl  Cl55  1  0.07581100  0.74712300  0.89595000  1
  Cl  Cl56  1  0.07581100  0.25287700  0.39595000  1
  Cl  Cl57  1  0.70126550  0.36189850  0.07010300  1
  Cl  Cl58  1  0.70126550  0.63810150  0.57010300  1
  Cl  Cl59  1  0.87529900  0.34710100  0.60266600  1
  Cl  Cl60  1  0.33543200  0.47208600  0.75000000  1
  Cl  Cl61  1  0.87529900  0.34710100  0.89733400  1
  Cl  Cl62  1  0.70126550  0.36189850  0.42989700  1
  Cl  Cl63  1  0.07581100  0.25287700  0.10405000  1
  Cl  Cl64  1  0.33543200  0.52791400  0.25000000  1
  Cl  Cl65  1  0.93602800  0.16201700  0.75000000  1
  Cl  Cl66  1  0.87529900  0.65289900  0.39733400  1
  Cl  Cl67  1  0.13573150  0.56368750  0.75000000  1
  Cl  Cl68  1  0.93602800  0.83798300  0.25000000  1
  Cl  Cl69  1  0.70126550  0.63810150  0.92989700  1
  Cl  Cl70  1  0.13573150  0.43631250  0.25000000  1
  Cl  Cl71  1  0.07581100  0.74712300  0.60405000  1
