# generated using pymatgen
data_Ag3AsSe3
_symmetry_space_group_name_H-M   'P 1'
_cell_length_a   11.46213764
_cell_length_b   11.46213764
_cell_length_c   9.30560579
_cell_angle_alpha   90.00000000
_cell_angle_beta   90.00000000
_cell_angle_gamma   120.00000000
_symmetry_Int_Tables_number   1
_chemical_formula_structural   Ag3AsSe3
_chemical_formula_sum   'Ag18 As6 Se18'
_cell_volume   1058.78193126
_cell_formula_units_Z   6
loop_
 _symmetry_equiv_pos_site_id
 _symmetry_equiv_pos_as_xyz
  1  'x, y, z'
loop_
 _atom_site_type_symbol
 _atom_site_label
 _atom_site_symmetry_multiplicity
 _atom_site_fract_x
 _atom_site_fract_y
 _atom_site_fract_z
 _atom_site_occupancy
  Ag  Ag0  1  0.30445600  0.26269200  0.28186400  1
  Ag  Ag1  1  0.95823600  0.69554400  0.28186400  1
  Ag  Ag2  1  0.73730800  0.04176400  0.28186400  1
  Ag  Ag3  1  0.63778933  0.70843067  0.44853067  1
  Ag  Ag4  1  0.07064133  0.36221067  0.44853067  1
  Ag  Ag5  1  0.29156933  0.92935867  0.44853067  1
  Ag  Ag6  1  0.97112267  0.59602533  0.61519733  1
  Ag  Ag7  1  0.62490267  0.02887733  0.61519733  1
  Ag  Ag8  1  0.40397467  0.37509733  0.61519733  1
  Ag  Ag9  1  0.30445600  0.04176400  0.78186400  1
  Ag  Ag10  1  0.73730800  0.69554400  0.78186400  1
  Ag  Ag11  1  0.95823600  0.26269200  0.78186400  1
  Ag  Ag12  1  0.63778933  0.92935867  0.94853067  1
  Ag  Ag13  1  0.29156933  0.36221067  0.94853067  1
  Ag  Ag14  1  0.07064133  0.70843067  0.94853067  1
  Ag  Ag15  1  0.97112267  0.37509733  0.11519733  1
  Ag  Ag16  1  0.40397467  0.02887733  0.11519733  1
  Ag  Ag17  1  0.62490267  0.59602533  0.11519733  1
  As  As18  1  0.00000000  0.00000000  0.49694500  1
  As  As19  1  0.00000000  0.00000000  0.99694500  1
  As  As20  1  0.66666667  0.33333333  0.83027833  1
  As  As21  1  0.66666667  0.33333333  0.33027833  1
  As  As22  1  0.33333333  0.66666667  0.16361167  1
  As  As23  1  0.33333333  0.66666667  0.66361167  1
  Se  Se24  1  0.78445500  0.23422500  0.45788800  1
  Se  Se25  1  0.44977000  0.21554500  0.45788800  1
  Se  Se26  1  0.78310333  0.90089167  0.62455467  1
  Se  Se27  1  0.11778833  0.21689667  0.62455467  1
  Se  Se28  1  0.09910833  0.88221167  0.62455467  1
  Se  Se29  1  0.76577500  0.55023000  0.45788800  1
  Se  Se30  1  0.45112167  0.56755833  0.79122133  1
  Se  Se31  1  0.11643667  0.54887833  0.79122133  1
  Se  Se32  1  0.44977000  0.23422500  0.95788800  1
  Se  Se33  1  0.78445500  0.55023000  0.95788800  1
  Se  Se34  1  0.76577500  0.21554500  0.95788800  1
  Se  Se35  1  0.43244167  0.88356333  0.79122133  1
  Se  Se36  1  0.11778833  0.90089167  0.12455467  1
  Se  Se37  1  0.78310333  0.88221167  0.12455467  1
  Se  Se38  1  0.11643667  0.56755833  0.29122133  1
  Se  Se39  1  0.45112167  0.88356333  0.29122133  1
  Se  Se40  1  0.43244167  0.54887833  0.29122133  1
  Se  Se41  1  0.09910833  0.21689667  0.12455467  1
