# generated using pymatgen
data_Cs2LiIr(CN)6
_symmetry_space_group_name_H-M   'P 1'
_cell_length_a   10.85967400
_cell_length_b   10.85967400
_cell_length_c   10.85967400
_cell_angle_alpha   90.00000000
_cell_angle_beta   90.00000000
_cell_angle_gamma   90.00000000
_symmetry_Int_Tables_number   1
_chemical_formula_structural   Cs2LiIr(CN)6
_chemical_formula_sum   'Cs8 Li4 Ir4 C24 N24'
_cell_volume   1280.70871453
_cell_formula_units_Z   4
loop_
 _symmetry_equiv_pos_site_id
 _symmetry_equiv_pos_as_xyz
  1  'x, y, z'
loop_
 _atom_site_type_symbol
 _atom_site_label
 _atom_site_symmetry_multiplicity
 _atom_site_fract_x
 _atom_site_fract_y
 _atom_site_fract_z
 _atom_site_occupancy
  Cs  Cs0  1  0.25000000  0.25000000  0.75000000  1
  Cs  Cs1  1  0.25000000  0.75000000  0.75000000  1
  Cs  Cs2  1  0.25000000  0.75000000  0.25000000  1
  Cs  Cs3  1  0.25000000  0.25000000  0.25000000  1
  Cs  Cs4  1  0.75000000  0.25000000  0.25000000  1
  Cs  Cs5  1  0.75000000  0.75000000  0.25000000  1
  Cs  Cs6  1  0.75000000  0.75000000  0.75000000  1
  Cs  Cs7  1  0.75000000  0.25000000  0.75000000  1
  Li  Li8  1  0.50000000  0.00000000  0.00000000  1
  Li  Li9  1  0.50000000  0.50000000  0.50000000  1
  Li  Li10  1  0.00000000  0.00000000  0.50000000  1
  Li  Li11  1  0.00000000  0.50000000  0.00000000  1
  Ir  Ir12  1  0.00000000  0.00000000  0.00000000  1
  Ir  Ir13  1  0.00000000  0.50000000  0.50000000  1
  Ir  Ir14  1  0.50000000  0.00000000  0.50000000  1
  Ir  Ir15  1  0.50000000  0.50000000  0.00000000  1
  C  C16  1  0.18615300  0.00000000  0.00000000  1
  C  C17  1  0.50000000  0.31384700  0.00000000  1
  C  C18  1  0.00000000  0.00000000  0.81384700  1
  C  C19  1  0.81384700  0.00000000  0.00000000  1
  C  C20  1  0.50000000  0.00000000  0.68615300  1
  C  C21  1  0.50000000  0.68615300  0.00000000  1
  C  C22  1  0.18615300  0.50000000  0.50000000  1
  C  C23  1  0.50000000  0.81384700  0.50000000  1
  C  C24  1  0.00000000  0.50000000  0.31384700  1
  C  C25  1  0.81384700  0.50000000  0.50000000  1
  C  C26  1  0.50000000  0.50000000  0.18615300  1
  C  C27  1  0.50000000  0.18615300  0.50000000  1
  C  C28  1  0.68615300  0.00000000  0.50000000  1
  C  C29  1  0.00000000  0.31384700  0.50000000  1
  C  C30  1  0.50000000  0.00000000  0.31384700  1
  C  C31  1  0.31384700  0.00000000  0.50000000  1
  C  C32  1  0.00000000  0.00000000  0.18615300  1
  C  C33  1  0.00000000  0.68615300  0.50000000  1
  C  C34  1  0.68615300  0.50000000  0.00000000  1
  C  C35  1  0.00000000  0.81384700  0.00000000  1
  C  C36  1  0.50000000  0.50000000  0.81384700  1
  C  C37  1  0.31384700  0.50000000  0.00000000  1
  C  C38  1  0.00000000  0.50000000  0.68615300  1
  C  C39  1  0.00000000  0.18615300  0.00000000  1
  N  N40  1  0.70570200  0.00000000  0.00000000  1
  N  N41  1  0.50000000  0.00000000  0.79429800  1
  N  N42  1  0.00000000  0.00000000  0.70570200  1
  N  N43  1  0.50000000  0.20570200  0.00000000  1
  N  N44  1  0.29429800  0.00000000  0.00000000  1
  N  N45  1  0.50000000  0.79429800  0.00000000  1
  N  N46  1  0.70570200  0.50000000  0.50000000  1
  N  N47  1  0.50000000  0.50000000  0.29429800  1
  N  N48  1  0.00000000  0.50000000  0.20570200  1
  N  N49  1  0.50000000  0.70570200  0.50000000  1
  N  N50  1  0.29429800  0.50000000  0.50000000  1
  N  N51  1  0.50000000  0.29429800  0.50000000  1
  N  N52  1  0.20570200  0.00000000  0.50000000  1
  N  N53  1  0.00000000  0.00000000  0.29429800  1
  N  N54  1  0.50000000  0.00000000  0.20570200  1
  N  N55  1  0.00000000  0.20570200  0.50000000  1
  N  N56  1  0.79429800  0.00000000  0.50000000  1
  N  N57  1  0.00000000  0.79429800  0.50000000  1
  N  N58  1  0.20570200  0.50000000  0.00000000  1
  N  N59  1  0.00000000  0.50000000  0.79429800  1
  N  N60  1  0.50000000  0.50000000  0.70570200  1
  N  N61  1  0.00000000  0.70570200  0.00000000  1
  N  N62  1  0.79429800  0.50000000  0.00000000  1
  N  N63  1  0.00000000  0.29429800  0.00000000  1
