# generated using pymatgen
data_Y2Si2O7
_symmetry_space_group_name_H-M   'P 1'
_cell_length_a   6.67168700
_cell_length_b   6.71321400
_cell_length_c   12.18723557
_cell_angle_alpha   94.48800720
_cell_angle_beta   91.21502771
_cell_angle_gamma   91.88246166
_symmetry_Int_Tables_number   1
_chemical_formula_structural   Y2Si2O7
_chemical_formula_sum   'Y8 Si8 O28'
_cell_volume   543.72529816
_cell_formula_units_Z   4
loop_
 _symmetry_equiv_pos_site_id
 _symmetry_equiv_pos_as_xyz
  1  'x, y, z'
loop_
 _atom_site_type_symbol
 _atom_site_label
 _atom_site_symmetry_multiplicity
 _atom_site_fract_x
 _atom_site_fract_y
 _atom_site_fract_z
 _atom_site_occupancy
  Y  Y0  1  0.11614900  0.09215900  0.35692500  1
  Y  Y1  1  0.32925900  0.82765200  0.10815300  1
  Y  Y2  1  0.63029900  0.78304400  0.36647500  1
  Y  Y3  1  0.88385100  0.90784100  0.64307500  1
  Y  Y4  1  0.67074100  0.17234800  0.89184700  1
  Y  Y5  1  0.36970100  0.21695600  0.63352500  1
  Y  Y6  1  0.94842100  0.67027200  0.88486800  1
  Y  Y7  1  0.05157900  0.32972800  0.11513200  1
  Si  Si8  1  0.48644800  0.66457600  0.82416300  1
  Si  Si9  1  0.84552600  0.85294300  0.11540700  1
  Si  Si10  1  0.51355200  0.33542400  0.17583700  1
  Si  Si11  1  0.15447400  0.14705700  0.88459300  1
  Si  Si12  1  0.14425400  0.62786000  0.37962100  1
  Si  Si13  1  0.85574600  0.37214000  0.62037900  1
  Si  Si14  1  0.62188300  0.27483100  0.40580300  1
  Si  Si15  1  0.37811700  0.72516900  0.59419700  1
  O  O16  1  0.28603200  0.57654800  0.48841500  1
  O  O17  1  0.23458300  0.08517200  0.00391600  1
  O  O18  1  0.40094300  0.56806600  0.69352000  1
  O  O19  1  0.03813700  0.22770700  0.57776000  1
  O  O20  1  0.38437200  0.13799900  0.21063000  1
  O  O21  1  0.65385800  0.78969000  0.18623800  1
  O  O22  1  0.00166300  0.98274200  0.81572100  1
  O  O23  1  0.00122500  0.66931300  0.08130600  1
  O  O24  1  0.70140900  0.29684100  0.09506700  1
  O  O25  1  0.34614200  0.21031000  0.81376200  1
  O  O26  1  0.07583500  0.41828000  0.31122600  1
  O  O27  1  0.22776400  0.90362800  0.62343800  1
  O  O28  1  0.64355200  0.51013400  0.87269400  1
  O  O29  1  0.58700400  0.82616600  0.55308700  1
  O  O30  1  0.76541700  0.91482800  0.99608400  1
  O  O31  1  0.99833700  0.01725800  0.18427900  1
  O  O32  1  0.92416500  0.58172000  0.68877400  1
  O  O33  1  0.96186300  0.77229300  0.42224000  1
  O  O34  1  0.77223600  0.09637200  0.37656200  1
  O  O35  1  0.59905700  0.43193400  0.30648000  1
  O  O36  1  0.41299600  0.17383400  0.44691300  1
  O  O37  1  0.61562800  0.86200100  0.78937000  1
  O  O38  1  0.71245300  0.21626200  0.68703700  1
  O  O39  1  0.71396800  0.42345200  0.51158500  1
  O  O40  1  0.28754700  0.78373800  0.31296300  1
  O  O41  1  0.35644800  0.48986600  0.12730600  1
  O  O42  1  0.29859100  0.70315900  0.90493300  1
  O  O43  1  0.99877500  0.33068700  0.91869400  1
