# generated using pymatgen
data_Re4Si7
_symmetry_space_group_name_H-M   'P 1'
_cell_length_a   23.40799600
_cell_length_b   3.14191600
_cell_length_c   8.37227021
_cell_angle_alpha   90.00000000
_cell_angle_beta   92.60535583
_cell_angle_gamma   90.00000000
_symmetry_Int_Tables_number   1
_chemical_formula_structural   Re4Si7
_chemical_formula_sum   'Re16 Si28'
_cell_volume   615.11014404
_cell_formula_units_Z   4
loop_
 _symmetry_equiv_pos_site_id
 _symmetry_equiv_pos_as_xyz
  1  'x, y, z'
loop_
 _atom_site_type_symbol
 _atom_site_label
 _atom_site_symmetry_multiplicity
 _atom_site_fract_x
 _atom_site_fract_y
 _atom_site_fract_z
 _atom_site_occupancy
  Re  Re0  1  0.75148300  0.50000000  0.74390800  1
  Re  Re1  1  0.87198100  0.00000000  0.10688300  1
  Re  Re2  1  0.62544500  0.50000000  0.87483200  1
  Re  Re3  1  0.50287000  0.00000000  0.49597600  1
  Re  Re4  1  0.87518400  0.50000000  0.62139000  1
  Re  Re5  1  0.62085600  0.00000000  0.35535800  1
  Re  Re6  1  0.75191400  0.00000000  0.23754600  1
  Re  Re7  1  0.50139600  0.50000000  0.97998400  1
  Re  Re8  1  0.25148300  0.00000000  0.74390800  1
  Re  Re9  1  0.37198100  0.50000000  0.10688300  1
  Re  Re10  1  0.12544500  0.00000000  0.87483200  1
  Re  Re11  1  0.00287000  0.50000000  0.49597600  1
  Re  Re12  1  0.37518400  0.00000000  0.62139000  1
  Re  Re13  1  0.12085600  0.50000000  0.35535800  1
  Re  Re14  1  0.25191400  0.50000000  0.23754600  1
  Re  Re15  1  0.00139600  0.00000000  0.97998400  1
  Si  Si16  1  0.54113400  0.50000000  0.27497500  1
  Si  Si17  1  0.92052300  0.50000000  0.92071300  1
  Si  Si18  1  0.67043500  0.50000000  0.17080700  1
  Si  Si19  1  0.95782700  0.00000000  0.68994600  1
  Si  Si20  1  0.69549500  0.00000000  0.56328400  1
  Si  Si21  1  0.54341500  0.00000000  0.78108300  1
  Si  Si22  1  0.79572100  0.00000000  0.52295400  1
  Si  Si23  1  0.79078500  0.50000000  0.03668000  1
  Si  Si24  1  0.83528200  0.00000000  0.81963400  1
  Si  Si25  1  0.59343300  0.50000000  0.57641200  1
  Si  Si26  1  0.70598400  0.00000000  0.93985500  1
  Si  Si27  1  0.94153600  0.00000000  0.33017700  1
  Si  Si28  1  0.58349000  0.00000000  0.06913200  1
  Si  Si29  1  0.84021200  0.50000000  0.32337100  1
  Si  Si30  1  0.04113400  0.00000000  0.27497500  1
  Si  Si31  1  0.42052300  0.00000000  0.92071300  1
  Si  Si32  1  0.17043500  0.00000000  0.17080700  1
  Si  Si33  1  0.45782700  0.50000000  0.68994600  1
  Si  Si34  1  0.19549500  0.50000000  0.56328400  1
  Si  Si35  1  0.04341500  0.50000000  0.78108300  1
  Si  Si36  1  0.29572100  0.50000000  0.52295400  1
  Si  Si37  1  0.29078500  0.00000000  0.03668000  1
  Si  Si38  1  0.33528200  0.50000000  0.81963400  1
  Si  Si39  1  0.09343300  0.00000000  0.57641200  1
  Si  Si40  1  0.20598400  0.50000000  0.93985500  1
  Si  Si41  1  0.44153600  0.50000000  0.33017700  1
  Si  Si42  1  0.08349000  0.50000000  0.06913200  1
  Si  Si43  1  0.34021200  0.00000000  0.32337100  1
