# generated using pymatgen
data_SiO2
_symmetry_space_group_name_H-M   'P 1'
_cell_length_a   14.35216000
_cell_length_b   15.12743000
_cell_length_c   18.90598000
_cell_angle_alpha   90.00000000
_cell_angle_beta   90.00000000
_cell_angle_gamma   90.00000000
_symmetry_Int_Tables_number   1
_chemical_formula_structural   SiO2
_chemical_formula_sum   'Si72 O144'
_cell_volume   4104.70181520
_cell_formula_units_Z   72
loop_
 _symmetry_equiv_pos_site_id
 _symmetry_equiv_pos_as_xyz
  1  'x, y, z'
loop_
 _atom_site_type_symbol
 _atom_site_label
 _atom_site_symmetry_multiplicity
 _atom_site_fract_x
 _atom_site_fract_y
 _atom_site_fract_z
 _atom_site_occupancy
  Si  Si0  1  0.96409500  0.10144800  0.33344500  1
  Si  Si1  1  0.04903850  0.25674050  0.42293250  1
  Si  Si2  1  0.45096150  0.75674050  0.42293250  1
  Si  Si3  1  0.45096150  0.24325950  0.42293250  1
  Si  Si4  1  0.56566500  0.10498000  0.16765300  1
  Si  Si5  1  0.25000000  0.25000000  0.48113300  1
  Si  Si6  1  0.56566500  0.89502000  0.16765300  1
  Si  Si7  1  0.53590500  0.39855200  0.16655500  1
  Si  Si8  1  0.93433500  0.39502000  0.16765300  1
  Si  Si9  1  0.03590500  0.10144800  0.83344500  1
  Si  Si10  1  0.26472500  0.39660100  0.89995900  1
  Si  Si11  1  0.76472500  0.10339900  0.10004100  1
  Si  Si12  1  0.45096150  0.24325950  0.07706750  1
  Si  Si13  1  0.25000000  0.75000000  0.48113300  1
  Si  Si14  1  0.46409500  0.39855200  0.83344500  1
  Si  Si15  1  0.46409500  0.39855200  0.66655500  1
  Si  Si16  1  0.56566500  0.10498000  0.33234700  1
  Si  Si17  1  0.95096150  0.25674050  0.57706750  1
  Si  Si18  1  0.04903850  0.74325950  0.07706750  1
  Si  Si19  1  0.23527500  0.10339900  0.89995900  1
  Si  Si20  1  0.04903850  0.25674050  0.07706750  1
  Si  Si21  1  0.03590500  0.10144800  0.66655500  1
  Si  Si22  1  0.93433500  0.39502000  0.33234700  1
  Si  Si23  1  0.23527500  0.89660100  0.60004100  1
  Si  Si24  1  0.23527500  0.10339900  0.60004100  1
  Si  Si25  1  0.25000000  0.25000000  0.01886700  1
  Si  Si26  1  0.26472500  0.60339900  0.89995900  1
  Si  Si27  1  0.96409500  0.10144800  0.16655500  1
  Si  Si28  1  0.73527500  0.39660100  0.39995900  1
  Si  Si29  1  0.75000000  0.25000000  0.51886700  1
  Si  Si30  1  0.54903850  0.24325950  0.92293250  1
  Si  Si31  1  0.93433500  0.60498000  0.33234700  1
  Si  Si32  1  0.93433500  0.60498000  0.16765300  1
  Si  Si33  1  0.53590500  0.39855200  0.33344500  1
  Si  Si34  1  0.26472500  0.39660100  0.60004100  1
  Si  Si35  1  0.56566500  0.89502000  0.33234700  1
  Si  Si36  1  0.46409500  0.60144800  0.83344500  1
  Si  Si37  1  0.54903850  0.75674050  0.92293250  1
  Si  Si38  1  0.95096150  0.25674050  0.92293250  1
  Si  Si39  1  0.95096150  0.74325950  0.92293250  1
  Si  Si40  1  0.06566500  0.60498000  0.66765300  1
  Si  Si41  1  0.75000000  0.75000000  0.98113300  1
  Si  Si42  1  0.06566500  0.39502000  0.66765300  1
  Si  Si43  1  0.03590500  0.89855200  0.66655500  1
  Si  Si44  1  0.43433500  0.89502000  0.66765300  1
  Si  Si45  1  0.53590500  0.60144800  0.33344500  1
  Si  Si46  1  0.76472500  0.89660100  0.39995900  1
  Si  Si47  1  0.26472500  0.60339900  0.60004100  1
  Si  Si48  1  0.95096150  0.74325950  0.57706750  1
  Si  Si49  1  0.75000000  0.25000000  0.98113300  1
  Si  Si50  1  0.96409500  0.89855200  0.33344500  1
  Si  Si51  1  0.96409500  0.89855200  0.16655500  1
  Si  Si52  1  0.06566500  0.60498000  0.83234700  1
  Si  Si53  1  0.45096150  0.75674050  0.07706750  1
  Si  Si54  1  0.54903850  0.24325950  0.57706750  1
  Si  Si55  1  0.73527500  0.60339900  0.39995900  1
  Si  Si56  1  0.54903850  0.75674050  0.57706750  1
  Si  Si57  1  0.53590500  0.60144800  0.16655500  1
  Si  Si58  1  0.43433500  0.89502000  0.83234700  1
  Si  Si59  1  0.73527500  0.39660100  0.10004100  1
  Si  Si60  1  0.73527500  0.60339900  0.10004100  1
  Si  Si61  1  0.75000000  0.75000000  0.51886700  1
  Si  Si62  1  0.76472500  0.10339900  0.39995900  1
  Si  Si63  1  0.46409500  0.60144800  0.66655500  1
  Si  Si64  1  0.23527500  0.89660100  0.89995900  1
  Si  Si65  1  0.25000000  0.75000000  0.01886700  1
  Si  Si66  1  0.04903850  0.74325950  0.42293250  1
  Si  Si67  1  0.43433500  0.10498000  0.83234700  1
  Si  Si68  1  0.43433500  0.10498000  0.66765300  1
  Si  Si69  1  0.03590500  0.89855200  0.83344500  1
  Si  Si70  1  0.76472500  0.89660100  0.10004100  1
  Si  Si71  1  0.06566500  0.39502000  0.83234700  1
  O  O72  1  0.48945700  0.50000000  0.64488900  1
  O  O73  1  0.48945700  0.50000000  0.85511100  1
  O  O74  1  0.53052300  0.33381600  0.87910800  1
  O  O75  1  0.26051400  0.50000000  0.92392400  1
  O  O76  1  0.35437250  0.37875350  0.65065450  1
  O  O77  1  0.67168750  0.86997750  0.14426850  1
  O  O78  1  0.33938200  0.22951300  0.43127800  1
  O  O79  1  0.14562750  0.87875350  0.65065450  1
  O  O80  1  0.03052300  0.16618400  0.37910800  1
  O  O81  1  0.54708800  0.00000000  0.15673800  1
  O  O82  1  0.46947700  0.33381600  0.37910800  1
  O  O83  1  0.49170450  0.84160050  0.38059550  1
  O  O84  1  0.55108000  0.13262200  0.25000000  1
  O  O85  1  0.33938200  0.22951300  0.06872200  1
  O  O86  1  0.03052300  0.16618400  0.12089200  1
  O  O87  1  0.00000000  0.24947200  0.00000000  1
  O  O88  1  0.33938200  0.77048700  0.43127800  1
  O  O89  1  0.83938200  0.27048700  0.56872200  1
  O  O90  1  0.14562750  0.12124650  0.84934550  1
  O  O91  1  0.16061800  0.27048700  0.43127800  1
  O  O92  1  0.49170450  0.15839950  0.38059550  1
  O  O93  1  0.46947700  0.33381600  0.12089200  1
  O  O94  1  0.96947700  0.16618400  0.62089200  1
  O  O95  1  0.00829550  0.65839950  0.11940450  1
  O  O96  1  0.67168750  0.13002250  0.14426850  1
  O  O97  1  0.95291200  0.50000000  0.15673800  1
  O  O98  1  0.00829550  0.34160050  0.38059550  1
  O  O99  1  0.51647750  0.38204050  0.25000000  1
  O  O100  1  0.22706650  0.16381850  0.97040050  1
  O  O101  1  0.50829550  0.15839950  0.88059550  1
  O  O102  1  0.82831250  0.36997750  0.35573150  1
  O  O103  1  0.32831250  0.86997750  0.64426850  1
  O  O104  1  0.76051400  0.00000000  0.07607600  1
  O  O105  1  0.22706650  0.16381850  0.52959950  1
  O  O106  1  0.03052300  0.83381600  0.12089200  1
  O  O107  1  0.95291200  0.50000000  0.34326200  1
  O  O108  1  0.14562750  0.12124650  0.65065450  1
  O  O109  1  0.27293350  0.33618150  0.97040050  1
  O  O110  1  0.35437250  0.62124650  0.65065450  1
  O  O111  1  0.17168750  0.63002250  0.85573150  1
  O  O112  1  0.27293350  0.66381850  0.97040050  1
  O  O113  1  0.46947700  0.66618400  0.37910800  1
  O  O114  1  0.35437250  0.62124650  0.84934550  1
  O  O115  1  0.27293350  0.33618150  0.52959950  1
  O  O116  1  0.99170450  0.34160050  0.61940450  1
  O  O117  1  0.72706650  0.33618150  0.47040050  1
  O  O118  1  0.16061800  0.72951300  0.06872200  1
  O  O119  1  0.73948600  0.50000000  0.42392400  1
  O  O120  1  0.32831250  0.13002250  0.64426850  1
  O  O121  1  0.55108000  0.86737800  0.25000000  1
  O  O122  1  0.17168750  0.36997750  0.85573150  1
  O  O123  1  0.22706650  0.83618150  0.52959950  1
  O  O124  1  0.01054300  0.00000000  0.64488900  1
  O  O125  1  0.66061800  0.22951300  0.93127800  1
  O  O126  1  0.00000000  0.24947200  0.50000000  1
  O  O127  1  0.77293350  0.16381850  0.02959950  1
  O  O128  1  0.14562750  0.87875350  0.84934550  1
  O  O129  1  0.94892000  0.63262200  0.25000000  1
  O  O130  1  0.00000000  0.75052800  0.00000000  1
  O  O131  1  0.48352250  0.38204050  0.75000000  1
  O  O132  1  0.49170450  0.15839950  0.11940450  1
  O  O133  1  0.54708800  0.00000000  0.34326200  1
  O  O134  1  0.94892000  0.36737800  0.25000000  1
  O  O135  1  0.00829550  0.34160050  0.11940450  1
  O  O136  1  0.35437250  0.37875350  0.84934550  1
  O  O137  1  0.01054300  0.00000000  0.85511100  1
  O  O138  1  0.50000000  0.25052800  0.00000000  1
  O  O139  1  0.98352250  0.11795950  0.25000000  1
  O  O140  1  0.23948600  0.00000000  0.57607600  1
  O  O141  1  0.82831250  0.63002250  0.35573150  1
  O  O142  1  0.16061800  0.27048700  0.06872200  1
  O  O143  1  0.01647750  0.11795950  0.75000000  1
  O  O144  1  0.98945700  0.00000000  0.14488900  1
  O  O145  1  0.98945700  0.00000000  0.35511100  1
  O  O146  1  0.03052300  0.83381600  0.37910800  1
  O  O147  1  0.76051400  0.00000000  0.42392400  1
  O  O148  1  0.85437250  0.87875350  0.15065450  1
  O  O149  1  0.17168750  0.36997750  0.64426850  1
  O  O150  1  0.83938200  0.72951300  0.93127800  1
  O  O151  1  0.64562750  0.37875350  0.15065450  1
  O  O152  1  0.53052300  0.66618400  0.87910800  1
  O  O153  1  0.04708800  0.50000000  0.65673800  1
  O  O154  1  0.96947700  0.83381600  0.87910800  1
  O  O155  1  0.99170450  0.34160050  0.88059550  1
  O  O156  1  0.05108000  0.63262200  0.75000000  1
  O  O157  1  0.83938200  0.72951300  0.56872200  1
  O  O158  1  0.53052300  0.66618400  0.62089200  1
  O  O159  1  0.50000000  0.74947200  0.50000000  1
  O  O160  1  0.83938200  0.27048700  0.93127800  1
  O  O161  1  0.33938200  0.77048700  0.06872200  1
  O  O162  1  0.64562750  0.62124650  0.34934550  1
  O  O163  1  0.66061800  0.77048700  0.93127800  1
  O  O164  1  0.99170450  0.65839950  0.88059550  1
  O  O165  1  0.96947700  0.83381600  0.62089200  1
  O  O166  1  0.46947700  0.66618400  0.12089200  1
  O  O167  1  0.50829550  0.15839950  0.61940450  1
  O  O168  1  0.17168750  0.63002250  0.64426850  1
  O  O169  1  0.45291200  0.00000000  0.65673800  1
  O  O170  1  0.50829550  0.84160050  0.88059550  1
  O  O171  1  0.01647750  0.88204050  0.75000000  1
  O  O172  1  0.72706650  0.66381850  0.47040050  1
  O  O173  1  0.00829550  0.65839950  0.38059550  1
  O  O174  1  0.32831250  0.86997750  0.85573150  1
  O  O175  1  0.82831250  0.36997750  0.14426850  1
  O  O176  1  0.26051400  0.50000000  0.57607600  1
  O  O177  1  0.72706650  0.66381850  0.02959950  1
  O  O178  1  0.53052300  0.33381600  0.62089200  1
  O  O179  1  0.45291200  0.00000000  0.84326200  1
  O  O180  1  0.64562750  0.62124650  0.15065450  1
  O  O181  1  0.77293350  0.83618150  0.47040050  1
  O  O182  1  0.85437250  0.12124650  0.15065450  1
  O  O183  1  0.67168750  0.13002250  0.35573150  1
  O  O184  1  0.77293350  0.16381850  0.47040050  1
  O  O185  1  0.96947700  0.16618400  0.87910800  1
  O  O186  1  0.85437250  0.12124650  0.34934550  1
  O  O187  1  0.77293350  0.83618150  0.02959950  1
  O  O188  1  0.49170450  0.84160050  0.11940450  1
  O  O189  1  0.22706650  0.83618150  0.97040050  1
  O  O190  1  0.66061800  0.22951300  0.56872200  1
  O  O191  1  0.23948600  0.00000000  0.92392400  1
  O  O192  1  0.82831250  0.63002250  0.14426850  1
  O  O193  1  0.05108000  0.36737800  0.75000000  1
  O  O194  1  0.67168750  0.86997750  0.35573150  1
  O  O195  1  0.72706650  0.33618150  0.02959950  1
  O  O196  1  0.51054300  0.50000000  0.14488900  1
  O  O197  1  0.16061800  0.72951300  0.43127800  1
  O  O198  1  0.50000000  0.74947200  0.00000000  1
  O  O199  1  0.27293350  0.66381850  0.52959950  1
  O  O200  1  0.64562750  0.37875350  0.34934550  1
  O  O201  1  0.44892000  0.13262200  0.75000000  1
  O  O202  1  0.50000000  0.25052800  0.50000000  1
  O  O203  1  0.98352250  0.88204050  0.25000000  1
  O  O204  1  0.99170450  0.65839950  0.61940450  1
  O  O205  1  0.04708800  0.50000000  0.84326200  1
  O  O206  1  0.44892000  0.86737800  0.75000000  1
  O  O207  1  0.50829550  0.84160050  0.61940450  1
  O  O208  1  0.85437250  0.87875350  0.34934550  1
  O  O209  1  0.51054300  0.50000000  0.35511100  1
  O  O210  1  0.00000000  0.75052800  0.50000000  1
  O  O211  1  0.48352250  0.61795950  0.75000000  1
  O  O212  1  0.73948600  0.50000000  0.07607600  1
  O  O213  1  0.32831250  0.13002250  0.85573150  1
  O  O214  1  0.66061800  0.77048700  0.56872200  1
  O  O215  1  0.51647750  0.61795950  0.25000000  1
