# generated using pymatgen
data_CdH4Br3N
_symmetry_space_group_name_H-M   'P 1'
_cell_length_a   4.39002800
_cell_length_b   9.21381400
_cell_length_c   16.16450400
_cell_angle_alpha   90.00000000
_cell_angle_beta   90.00000000
_cell_angle_gamma   90.00000000
_symmetry_Int_Tables_number   1
_chemical_formula_structural   CdH4Br3N
_chemical_formula_sum   'Cd4 H16 Br12 N4'
_cell_volume   653.83642923
_cell_formula_units_Z   4
loop_
 _symmetry_equiv_pos_site_id
 _symmetry_equiv_pos_as_xyz
  1  'x, y, z'
loop_
 _atom_site_type_symbol
 _atom_site_label
 _atom_site_symmetry_multiplicity
 _atom_site_fract_x
 _atom_site_fract_y
 _atom_site_fract_z
 _atom_site_occupancy
  Cd  Cd0  1  0.75000000  0.83255800  0.05867900  1
  Cd  Cd1  1  0.25000000  0.16744200  0.94132100  1
  Cd  Cd2  1  0.75000000  0.33255800  0.44132100  1
  Cd  Cd3  1  0.25000000  0.66744200  0.55867900  1
  H  H4  1  0.75000000  0.67704000  0.83730700  1
  H  H5  1  0.25000000  0.32296000  0.16269300  1
  H  H6  1  0.75000000  0.17704000  0.66269300  1
  H  H7  1  0.25000000  0.82296000  0.33730700  1
  H  H8  1  0.75000000  0.51176100  0.88579100  1
  H  H9  1  0.25000000  0.48823900  0.11420900  1
  H  H10  1  0.75000000  0.01176100  0.61420900  1
  H  H11  1  0.25000000  0.98823900  0.38579100  1
  H  H12  1  0.93985600  0.53455900  0.79621400  1
  H  H13  1  0.43985600  0.46544100  0.20378600  1
  H  H14  1  0.56014400  0.03455900  0.70378600  1
  H  H15  1  0.06014400  0.96544100  0.29621400  1
  H  H16  1  0.06014400  0.46544100  0.20378600  1
  H  H17  1  0.56014400  0.53455900  0.79621400  1
  H  H18  1  0.43985600  0.96544100  0.29621400  1
  H  H19  1  0.93985600  0.03455900  0.70378600  1
  Br  Br20  1  0.75000000  0.71786000  0.21117400  1
  Br  Br21  1  0.25000000  0.28214000  0.78882600  1
  Br  Br22  1  0.75000000  0.21786000  0.28882600  1
  Br  Br23  1  0.25000000  0.78214000  0.71117400  1
  Br  Br24  1  0.25000000  0.66309900  0.00096700  1
  Br  Br25  1  0.75000000  0.33690100  0.99903300  1
  Br  Br26  1  0.25000000  0.16309900  0.49903300  1
  Br  Br27  1  0.75000000  0.83690100  0.50096700  1
  Br  Br28  1  0.75000000  0.96517800  0.90164900  1
  Br  Br29  1  0.25000000  0.03482200  0.09835100  1
  Br  Br30  1  0.75000000  0.46517800  0.59835100  1
  Br  Br31  1  0.25000000  0.53482200  0.40164900  1
  N  N32  1  0.75000000  0.56600300  0.82927500  1
  N  N33  1  0.25000000  0.43399700  0.17072500  1
  N  N34  1  0.75000000  0.06600300  0.67072500  1
  N  N35  1  0.25000000  0.93399700  0.32927500  1
