# generated using pymatgen
data_Na2PtO3
_symmetry_space_group_name_H-M   'P 1'
_cell_length_a   5.52408400
_cell_length_b   9.57085800
_cell_length_c   10.84713987
_cell_angle_alpha   90.00000000
_cell_angle_beta   100.02307462
_cell_angle_gamma   90.00000000
_symmetry_Int_Tables_number   1
_chemical_formula_structural   Na2PtO3
_chemical_formula_sum   'Na16 Pt8 O24'
_cell_volume   564.73794537
_cell_formula_units_Z   8
loop_
 _symmetry_equiv_pos_site_id
 _symmetry_equiv_pos_as_xyz
  1  'x, y, z'
loop_
 _atom_site_type_symbol
 _atom_site_label
 _atom_site_symmetry_multiplicity
 _atom_site_fract_x
 _atom_site_fract_y
 _atom_site_fract_z
 _atom_site_occupancy
  Na  Na0  1  0.00000000  0.91673700  0.25000000  1
  Na  Na1  1  0.25975500  0.57958400  0.00094400  1
  Na  Na2  1  0.50000000  0.58326300  0.75000000  1
  Na  Na3  1  0.74024500  0.57958400  0.49905600  1
  Na  Na4  1  0.24024500  0.92041600  0.99905600  1
  Na  Na5  1  0.75000000  0.75000000  0.00000000  1
  Na  Na6  1  0.75975500  0.92041600  0.50094400  1
  Na  Na7  1  0.25000000  0.75000000  0.50000000  1
  Na  Na8  1  0.50000000  0.41673700  0.25000000  1
  Na  Na9  1  0.75975500  0.07958400  0.00094400  1
  Na  Na10  1  0.00000000  0.08326300  0.75000000  1
  Na  Na11  1  0.24024500  0.07958400  0.49905600  1
  Na  Na12  1  0.74024500  0.42041600  0.99905600  1
  Na  Na13  1  0.25000000  0.25000000  0.00000000  1
  Na  Na14  1  0.25975500  0.42041600  0.50094400  1
  Na  Na15  1  0.75000000  0.25000000  0.50000000  1
  Pt  Pt16  1  0.00000000  0.74961600  0.75000000  1
  Pt  Pt17  1  0.50000000  0.91669000  0.75000000  1
  Pt  Pt18  1  0.50000000  0.75038400  0.25000000  1
  Pt  Pt19  1  0.00000000  0.58331000  0.25000000  1
  Pt  Pt20  1  0.50000000  0.24961600  0.75000000  1
  Pt  Pt21  1  0.00000000  0.41669000  0.75000000  1
  Pt  Pt22  1  0.00000000  0.25038400  0.25000000  1
  Pt  Pt23  1  0.50000000  0.08331000  0.25000000  1
  O  O24  1  0.10202850  0.58341550  0.64609200  1
  O  O25  1  0.64548100  0.76420600  0.64617100  1
  O  O26  1  0.60202850  0.91658450  0.14609200  1
  O  O27  1  0.39797150  0.91658450  0.35390800  1
  O  O28  1  0.14548100  0.73579400  0.14617100  1
  O  O29  1  0.35451900  0.76420600  0.85382900  1
  O  O30  1  0.64534950  0.59732950  0.14578600  1
  O  O31  1  0.85451900  0.73579400  0.35382900  1
  O  O32  1  0.14534950  0.90267050  0.64578600  1
  O  O33  1  0.85465050  0.90267050  0.85421400  1
  O  O34  1  0.35465050  0.59732950  0.35421400  1
  O  O35  1  0.89797150  0.58341550  0.85390800  1
  O  O36  1  0.60202850  0.08341550  0.64609200  1
  O  O37  1  0.14548100  0.26420600  0.64617100  1
  O  O38  1  0.10202850  0.41658450  0.14609200  1
  O  O39  1  0.89797150  0.41658450  0.35390800  1
  O  O40  1  0.64548100  0.23579400  0.14617100  1
  O  O41  1  0.85451900  0.26420600  0.85382900  1
  O  O42  1  0.14534950  0.09732950  0.14578600  1
  O  O43  1  0.35451900  0.23579400  0.35382900  1
  O  O44  1  0.64534950  0.40267050  0.64578600  1
  O  O45  1  0.35465050  0.40267050  0.85421400  1
  O  O46  1  0.85465050  0.09732950  0.35421400  1
  O  O47  1  0.39797150  0.08341550  0.85390800  1
