# generated using pymatgen
data_Fe(PO3)5
_symmetry_space_group_name_H-M   'P 1'
_cell_length_a   5.22861500
_cell_length_b   13.80630800
_cell_length_c   9.12856163
_cell_angle_alpha   90.00000000
_cell_angle_beta   105.40693107
_cell_angle_gamma   90.00000000
_symmetry_Int_Tables_number   1
_chemical_formula_structural   Fe(PO3)5
_chemical_formula_sum   'Fe2 P10 O30'
_cell_volume   635.29013611
_cell_formula_units_Z   2
loop_
 _symmetry_equiv_pos_site_id
 _symmetry_equiv_pos_as_xyz
  1  'x, y, z'
loop_
 _atom_site_type_symbol
 _atom_site_label
 _atom_site_symmetry_multiplicity
 _atom_site_fract_x
 _atom_site_fract_y
 _atom_site_fract_z
 _atom_site_occupancy
  Fe  Fe0  1  0.50000000  0.00000000  0.50000000  1
  Fe  Fe1  1  0.50000000  0.50000000  0.50000000  1
  P  P2  1  0.01008600  0.13955500  0.53555200  1
  P  P3  1  0.01008600  0.36044500  0.53555200  1
  P  P4  1  0.39345600  0.07409200  0.81868800  1
  P  P5  1  0.39345600  0.42590800  0.81868800  1
  P  P6  1  0.44548100  0.75000000  0.99839000  1
  P  P7  1  0.55451900  0.25000000  0.00161000  1
  P  P8  1  0.60654400  0.57409200  0.18131200  1
  P  P9  1  0.60654400  0.92590800  0.18131200  1
  P  P10  1  0.98991400  0.63955500  0.46444800  1
  P  P11  1  0.98991400  0.86044500  0.46444800  1
  O  O12  1  0.29353300  0.02087800  0.93960100  1
  O  O13  1  0.29353300  0.47912200  0.93960100  1
  O  O14  1  0.07284800  0.25000000  0.50715000  1
  O  O15  1  0.13437600  0.12926900  0.71835300  1
  O  O16  1  0.13437600  0.37073100  0.71835300  1
  O  O17  1  0.22688400  0.75000000  0.85185200  1
  O  O18  1  0.16613000  0.07932300  0.45259900  1
  O  O19  1  0.16613000  0.42067700  0.45259900  1
  O  O20  1  0.28320400  0.62366400  0.49718800  1
  O  O21  1  0.28320400  0.87633600  0.49718800  1
  O  O22  1  0.53103600  0.01824800  0.72156500  1
  O  O23  1  0.53103600  0.48175200  0.72156500  1
  O  O24  1  0.58575500  0.16250300  0.89195300  1
  O  O25  1  0.58575500  0.33749700  0.89195300  1
  O  O26  1  0.29470100  0.25000000  0.04461400  1
  O  O27  1  0.70529900  0.75000000  0.95538600  1
  O  O28  1  0.41424500  0.66250300  0.10804700  1
  O  O29  1  0.41424500  0.83749700  0.10804700  1
  O  O30  1  0.46896400  0.51824800  0.27843500  1
  O  O31  1  0.46896400  0.98175200  0.27843500  1
  O  O32  1  0.71679600  0.12366400  0.50281200  1
  O  O33  1  0.71679600  0.37633600  0.50281200  1
  O  O34  1  0.83387000  0.57932300  0.54740100  1
  O  O35  1  0.83387000  0.92067700  0.54740100  1
  O  O36  1  0.77311600  0.25000000  0.14814800  1
  O  O37  1  0.86562400  0.62926900  0.28164700  1
  O  O38  1  0.86562400  0.87073100  0.28164700  1
  O  O39  1  0.92715200  0.75000000  0.49285000  1
  O  O40  1  0.70646700  0.52087800  0.06039900  1
  O  O41  1  0.70646700  0.97912200  0.06039900  1
