# generated using pymatgen
data_Tl2Te
_symmetry_space_group_name_H-M   'P 1'
_cell_length_a   16.26377000
_cell_length_b   9.17287400
_cell_length_c   32.06625685
_cell_angle_alpha   90.00000000
_cell_angle_beta   99.29550861
_cell_angle_gamma   90.00000000
_symmetry_Int_Tables_number   1
_chemical_formula_structural   Tl2Te
_chemical_formula_sum   'Tl88 Te44'
_cell_volume   4721.00166556
_cell_formula_units_Z   44
loop_
 _symmetry_equiv_pos_site_id
 _symmetry_equiv_pos_as_xyz
  1  'x, y, z'
loop_
 _atom_site_type_symbol
 _atom_site_label
 _atom_site_symmetry_multiplicity
 _atom_site_fract_x
 _atom_site_fract_y
 _atom_site_fract_z
 _atom_site_occupancy
  Tl  Tl0  1  0.80459800  0.40114800  0.68818000  1
  Tl  Tl1  1  0.80459800  0.59885200  0.18818000  1
  Tl  Tl2  1  0.58177100  0.09929000  0.58637000  1
  Tl  Tl3  1  0.92110200  0.91307300  0.57141100  1
  Tl  Tl4  1  0.95733450  0.23955750  0.19042500  1
  Tl  Tl5  1  0.79108750  0.26487050  0.56476300  1
  Tl  Tl6  1  0.63610150  0.07415550  0.99829400  1
  Tl  Tl7  1  0.60761900  0.43808300  0.24055300  1
  Tl  Tl8  1  0.60761900  0.56191700  0.74055300  1
  Tl  Tl9  1  0.69540200  0.90114800  0.81182000  1
  Tl  Tl10  1  0.77610300  0.25842400  0.87706300  1
  Tl  Tl11  1  0.57889800  0.58692700  0.42858900  1
  Tl  Tl12  1  0.70891250  0.76487050  0.93523700  1
  Tl  Tl13  1  0.95733450  0.76044250  0.69042500  1
  Tl  Tl14  1  0.99464750  0.26021350  0.85531600  1
  Tl  Tl15  1  0.92110200  0.08692700  0.07141100  1
  Tl  Tl16  1  0.85041550  0.45742250  0.30273600  1
  Tl  Tl17  1  0.85041550  0.54257750  0.80273600  1
  Tl  Tl18  1  0.72389700  0.24157600  0.12293700  1
  Tl  Tl19  1  0.50535250  0.23978650  0.14468400  1
  Tl  Tl20  1  0.89238100  0.93808300  0.25944700  1
  Tl  Tl21  1  0.79108750  0.73512950  0.06476300  1
  Tl  Tl22  1  0.64958450  0.04257750  0.69726400  1
  Tl  Tl23  1  0.86389850  0.42584450  0.00170600  1
  Tl  Tl24  1  0.63050700  0.52427100  0.53712300  1
  Tl  Tl25  1  0.91822900  0.40071000  0.41363000  1
  Tl  Tl26  1  0.54266550  0.26044250  0.80957500  1
  Tl  Tl27  1  0.86949300  0.02427100  0.96287700  1
  Tl  Tl28  1  0.57889800  0.41307300  0.92858900  1
  Tl  Tl29  1  0.99464750  0.73978650  0.35531600  1
  Tl  Tl30  1  0.64958450  0.95742250  0.19726400  1
  Tl  Tl31  1  0.70891250  0.23512950  0.43523700  1
  Tl  Tl32  1  0.50535250  0.76021350  0.64468400  1
  Tl  Tl33  1  0.63050700  0.47572900  0.03712300  1
  Tl  Tl34  1  0.72389700  0.75842400  0.62293700  1
  Tl  Tl35  1  0.58177100  0.90071000  0.08637000  1
  Tl  Tl36  1  0.91822900  0.59929000  0.91363000  1
  Tl  Tl37  1  0.54266550  0.73955750  0.30957500  1
  Tl  Tl38  1  0.86389850  0.57415550  0.50170600  1
  Tl  Tl39  1  0.63610150  0.92584450  0.49829400  1
  Tl  Tl40  1  0.69540200  0.09885200  0.31182000  1
  Tl  Tl41  1  0.86949300  0.97572900  0.46287700  1
  Tl  Tl42  1  0.89238100  0.06191700  0.75944700  1
  Tl  Tl43  1  0.77610300  0.74157600  0.37706300  1
  Tl  Tl44  1  0.30459800  0.90114800  0.68818000  1
  Tl  Tl45  1  0.30459800  0.09885200  0.18818000  1
  Tl  Tl46  1  0.08177100  0.59929000  0.58637000  1
  Tl  Tl47  1  0.42110200  0.41307300  0.57141100  1
  Tl  Tl48  1  0.45733450  0.73955750  0.19042500  1
  Tl  Tl49  1  0.29108750  0.76487050  0.56476300  1
  Tl  Tl50  1  0.13610150  0.57415550  0.99829400  1
  Tl  Tl51  1  0.10761900  0.93808300  0.24055300  1
  Tl  Tl52  1  0.10761900  0.06191700  0.74055300  1
  Tl  Tl53  1  0.19540200  0.40114800  0.81182000  1
  Tl  Tl54  1  0.27610300  0.75842400  0.87706300  1
  Tl  Tl55  1  0.07889800  0.08692700  0.42858900  1
  Tl  Tl56  1  0.20891250  0.26487050  0.93523700  1
  Tl  Tl57  1  0.45733450  0.26044250  0.69042500  1
  Tl  Tl58  1  0.49464750  0.76021350  0.85531600  1
  Tl  Tl59  1  0.42110200  0.58692700  0.07141100  1
  Tl  Tl60  1  0.35041550  0.95742250  0.30273600  1
  Tl  Tl61  1  0.35041550  0.04257750  0.80273600  1
  Tl  Tl62  1  0.22389700  0.74157600  0.12293700  1
  Tl  Tl63  1  0.00535250  0.73978650  0.14468400  1
  Tl  Tl64  1  0.39238100  0.43808300  0.25944700  1
  Tl  Tl65  1  0.29108750  0.23512950  0.06476300  1
  Tl  Tl66  1  0.14958450  0.54257750  0.69726400  1
  Tl  Tl67  1  0.36389850  0.92584450  0.00170600  1
  Tl  Tl68  1  0.13050700  0.02427100  0.53712300  1
  Tl  Tl69  1  0.41822900  0.90071000  0.41363000  1
  Tl  Tl70  1  0.04266550  0.76044250  0.80957500  1
  Tl  Tl71  1  0.36949300  0.52427100  0.96287700  1
  Tl  Tl72  1  0.07889800  0.91307300  0.92858900  1
  Tl  Tl73  1  0.49464750  0.23978650  0.35531600  1
  Tl  Tl74  1  0.14958450  0.45742250  0.19726400  1
  Tl  Tl75  1  0.20891250  0.73512950  0.43523700  1
  Tl  Tl76  1  0.00535250  0.26021350  0.64468400  1
  Tl  Tl77  1  0.13050700  0.97572900  0.03712300  1
  Tl  Tl78  1  0.22389700  0.25842400  0.62293700  1
  Tl  Tl79  1  0.08177100  0.40071000  0.08637000  1
  Tl  Tl80  1  0.41822900  0.09929000  0.91363000  1
  Tl  Tl81  1  0.04266550  0.23955750  0.30957500  1
  Tl  Tl82  1  0.36389850  0.07415550  0.50170600  1
  Tl  Tl83  1  0.13610150  0.42584450  0.49829400  1
  Tl  Tl84  1  0.19540200  0.59885200  0.31182000  1
  Tl  Tl85  1  0.36949300  0.47572900  0.46287700  1
  Tl  Tl86  1  0.39238100  0.56191700  0.75944700  1
  Tl  Tl87  1  0.27610300  0.24157600  0.37706300  1
  Te  Te88  1  0.84028000  0.06663400  0.64804300  1
  Te  Te89  1  0.65972000  0.56663400  0.85195700  1
  Te  Te90  1  0.73135800  0.75022300  0.27370300  1
  Te  Te91  1  0.84028000  0.93336600  0.14804300  1
  Te  Te92  1  0.65972000  0.43336600  0.35195700  1
  Te  Te93  1  0.88715100  0.56598000  0.60525000  1
  Te  Te94  1  0.00000000  0.60325200  0.25000000  1
  Te  Te95  1  0.60245650  0.58337850  0.12914500  1
  Te  Te96  1  0.96568150  0.74591250  0.01536700  1
  Te  Te97  1  0.61284900  0.06598000  0.89475000  1
  Te  Te98  1  0.96568150  0.25408750  0.51536700  1
  Te  Te99  1  0.89754350  0.08337850  0.37085500  1
  Te  Te100  1  0.00000000  0.39674800  0.75000000  1
  Te  Te101  1  0.76864200  0.25022300  0.22629700  1
  Te  Te102  1  0.88715100  0.43402000  0.10525000  1
  Te  Te103  1  0.89754350  0.91662150  0.87085500  1
  Te  Te104  1  0.53431850  0.75408750  0.98463300  1
  Te  Te105  1  0.61284900  0.93402000  0.39475000  1
  Te  Te106  1  0.60245650  0.41662150  0.62914500  1
  Te  Te107  1  0.76864200  0.74977700  0.72629700  1
  Te  Te108  1  0.53431850  0.24591250  0.48463300  1
  Te  Te109  1  0.73135800  0.24977700  0.77370300  1
  Te  Te110  1  0.34028000  0.56663400  0.64804300  1
  Te  Te111  1  0.15972000  0.06663400  0.85195700  1
  Te  Te112  1  0.23135800  0.25022300  0.27370300  1
  Te  Te113  1  0.34028000  0.43336600  0.14804300  1
  Te  Te114  1  0.15972000  0.93336600  0.35195700  1
  Te  Te115  1  0.38715100  0.06598000  0.60525000  1
  Te  Te116  1  0.50000000  0.10325200  0.25000000  1
  Te  Te117  1  0.10245650  0.08337850  0.12914500  1
  Te  Te118  1  0.46568150  0.24591250  0.01536700  1
  Te  Te119  1  0.11284900  0.56598000  0.89475000  1
  Te  Te120  1  0.46568150  0.75408750  0.51536700  1
  Te  Te121  1  0.39754350  0.58337850  0.37085500  1
  Te  Te122  1  0.50000000  0.89674800  0.75000000  1
  Te  Te123  1  0.26864200  0.75022300  0.22629700  1
  Te  Te124  1  0.38715100  0.93402000  0.10525000  1
  Te  Te125  1  0.39754350  0.41662150  0.87085500  1
  Te  Te126  1  0.03431850  0.25408750  0.98463300  1
  Te  Te127  1  0.11284900  0.43402000  0.39475000  1
  Te  Te128  1  0.10245650  0.91662150  0.62914500  1
  Te  Te129  1  0.26864200  0.24977700  0.72629700  1
  Te  Te130  1  0.03431850  0.74591250  0.48463300  1
  Te  Te131  1  0.23135800  0.74977700  0.77370300  1
