# generated using pymatgen
data_Co2(SnSe)3
_symmetry_space_group_name_H-M   'P 1'
_cell_length_a   12.45442149
_cell_length_b   12.45442149
_cell_length_c   15.20422027
_cell_angle_alpha   90.00000000
_cell_angle_beta   90.00000000
_cell_angle_gamma   120.00000000
_symmetry_Int_Tables_number   1
_chemical_formula_structural   Co2(SnSe)3
_chemical_formula_sum   'Co24 Sn36 Se36'
_cell_volume   2042.40517849
_cell_formula_units_Z   12
loop_
 _symmetry_equiv_pos_site_id
 _symmetry_equiv_pos_as_xyz
  1  'x, y, z'
loop_
 _atom_site_type_symbol
 _atom_site_label
 _atom_site_symmetry_multiplicity
 _atom_site_fract_x
 _atom_site_fract_y
 _atom_site_fract_z
 _atom_site_occupancy
  Co  Co0  1  0.17014000  0.33361400  0.59193700  1
  Co  Co1  1  0.33361400  0.16347400  0.40806300  1
  Co  Co2  1  0.16347400  0.82986000  0.59193700  1
  Co  Co3  1  0.83652600  0.17014000  0.40806300  1
  Co  Co4  1  0.00000000  0.00000000  0.25852400  1
  Co  Co5  1  0.00000000  0.00000000  0.74147600  1
  Co  Co6  1  0.66638600  0.83652600  0.59193700  1
  Co  Co7  1  0.82986000  0.66638600  0.40806300  1
  Co  Co8  1  0.83680667  0.66694733  0.92527033  1
  Co  Co9  1  0.00028067  0.49680733  0.74139633  1
  Co  Co10  1  0.83014067  0.16319333  0.92527033  1
  Co  Co11  1  0.50319267  0.50347333  0.74139633  1
  Co  Co12  1  0.66666667  0.33333333  0.59185733  1
  Co  Co13  1  0.66666667  0.33333333  0.07480933  1
  Co  Co14  1  0.33305267  0.16985933  0.92527033  1
  Co  Co15  1  0.49652667  0.99971933  0.74139633  1
  Co  Co16  1  0.50347333  0.00028067  0.25860367  1
  Co  Co17  1  0.66694733  0.83014067  0.07472967  1
  Co  Co18  1  0.49680733  0.49652667  0.25860367  1
  Co  Co19  1  0.16985933  0.83680667  0.07472967  1
  Co  Co20  1  0.33333333  0.66666667  0.92519067  1
  Co  Co21  1  0.33333333  0.66666667  0.40814267  1
  Co  Co22  1  0.99971933  0.50319267  0.25860367  1
  Co  Co23  1  0.16319333  0.33305267  0.07472967  1
  Sn  Sn24  1  0.33807500  0.83253700  0.50612800  1
  Sn  Sn25  1  0.27154400  0.05699200  0.55692500  1
  Sn  Sn26  1  0.66192500  0.16746300  0.49387200  1
  Sn  Sn27  1  0.21455200  0.27154400  0.44307500  1
  Sn  Sn28  1  0.16746300  0.50553800  0.50612800  1
  Sn  Sn29  1  0.83253700  0.49446200  0.49387200  1
  Sn  Sn30  1  0.78544800  0.72845600  0.55692500  1
  Sn  Sn31  1  0.72845600  0.94300800  0.44307500  1
  Sn  Sn32  1  0.94300800  0.21455200  0.55692500  1
  Sn  Sn33  1  0.50553800  0.33807500  0.49387200  1
  Sn  Sn34  1  0.05699200  0.78544800  0.44307500  1
  Sn  Sn35  1  0.49446200  0.66192500  0.50612800  1
  Sn  Sn36  1  0.00474167  0.16587033  0.83946133  1
  Sn  Sn37  1  0.93821067  0.39032533  0.89025833  1
  Sn  Sn38  1  0.32859167  0.50079633  0.82720533  1
  Sn  Sn39  1  0.88121867  0.60487733  0.77640833  1
  Sn  Sn40  1  0.83412967  0.83887133  0.83946133  1
  Sn  Sn41  1  0.49920367  0.82779533  0.82720533  1
  Sn  Sn42  1  0.45211467  0.06178933  0.89025833  1
  Sn  Sn43  1  0.39512267  0.27634133  0.77640833  1
  Sn  Sn44  1  0.60967467  0.54788533  0.89025833  1
  Sn  Sn45  1  0.17220467  0.67140833  0.82720533  1
  Sn  Sn46  1  0.72365867  0.11878133  0.77640833  1
  Sn  Sn47  1  0.16112867  0.99525833  0.83946133  1
  Sn  Sn48  1  0.67140833  0.49920367  0.17279467  1
  Sn  Sn49  1  0.60487733  0.72365867  0.22359167  1
  Sn  Sn50  1  0.99525833  0.83412967  0.16053867  1
  Sn  Sn51  1  0.54788533  0.93821067  0.10974167  1
  Sn  Sn52  1  0.50079633  0.17220467  0.17279467  1
  Sn  Sn53  1  0.16587033  0.16112867  0.16053867  1
  Sn  Sn54  1  0.11878133  0.39512267  0.22359167  1
  Sn  Sn55  1  0.06178933  0.60967467  0.10974167  1
  Sn  Sn56  1  0.27634133  0.88121867  0.22359167  1
  Sn  Sn57  1  0.83887133  0.00474167  0.16053867  1
  Sn  Sn58  1  0.39032533  0.45211467  0.10974167  1
  Sn  Sn59  1  0.82779533  0.32859167  0.17279467  1
  Se  Se60  1  0.05512433  0.60656667  0.60515267  1
  Se  Se61  1  0.44855767  0.05512433  0.39484733  1
  Se  Se62  1  0.39343333  0.44855767  0.60515267  1
  Se  Se63  1  0.16330433  0.98996367  0.33447767  1
  Se  Se64  1  0.82665933  0.83669567  0.33447767  1
  Se  Se65  1  0.17334067  0.16330433  0.66552233  1
  Se  Se66  1  0.83669567  0.01003633  0.66552233  1
  Se  Se67  1  0.98996367  0.82665933  0.66552233  1
  Se  Se68  1  0.94487567  0.39343333  0.39484733  1
  Se  Se69  1  0.55144233  0.94487567  0.60515267  1
  Se  Se70  1  0.01003633  0.17334067  0.33447767  1
  Se  Se71  1  0.60656667  0.55144233  0.39484733  1
  Se  Se72  1  0.72179100  0.93990000  0.93848600  1
  Se  Se73  1  0.11522433  0.38845767  0.72818067  1
  Se  Se74  1  0.06010000  0.78189100  0.93848600  1
  Se  Se75  1  0.82997100  0.32329700  0.66781100  1
  Se  Se76  1  0.49332600  0.17002900  0.66781100  1
  Se  Se77  1  0.84000733  0.49663767  0.99885567  1
  Se  Se78  1  0.50336233  0.34336967  0.99885567  1
  Se  Se79  1  0.65663033  0.15999267  0.99885567  1
  Se  Se80  1  0.61154233  0.72676667  0.72818067  1
  Se  Se81  1  0.21810900  0.27820900  0.93848600  1
  Se  Se82  1  0.67670300  0.50667400  0.66781100  1
  Se  Se83  1  0.27323333  0.88477567  0.72818067  1
  Se  Se84  1  0.38845767  0.27323333  0.27181933  1
  Se  Se85  1  0.78189100  0.72179100  0.06151400  1
  Se  Se86  1  0.72676667  0.11522433  0.27181933  1
  Se  Se87  1  0.49663767  0.65663033  0.00114433  1
  Se  Se88  1  0.15999267  0.50336233  0.00114433  1
  Se  Se89  1  0.50667400  0.82997100  0.33218900  1
  Se  Se90  1  0.17002900  0.67670300  0.33218900  1
  Se  Se91  1  0.32329700  0.49332600  0.33218900  1
  Se  Se92  1  0.27820900  0.06010000  0.06151400  1
  Se  Se93  1  0.88477567  0.61154233  0.27181933  1
  Se  Se94  1  0.34336967  0.84000733  0.00114433  1
  Se  Se95  1  0.93990000  0.21810900  0.06151400  1
