# generated using pymatgen
data_Ba2CuClO2
_symmetry_space_group_name_H-M   'P 1'
_cell_length_a   4.33032235
_cell_length_b   4.33032235
_cell_length_c   28.82559328
_cell_angle_alpha   90.00000000
_cell_angle_beta   90.00000000
_cell_angle_gamma   120.00000000
_symmetry_Int_Tables_number   1
_chemical_formula_structural   Ba2CuClO2
_chemical_formula_sum   'Ba6 Cu3 Cl3 O6'
_cell_volume   468.11153136
_cell_formula_units_Z   3
loop_
 _symmetry_equiv_pos_site_id
 _symmetry_equiv_pos_as_xyz
  1  'x, y, z'
loop_
 _atom_site_type_symbol
 _atom_site_label
 _atom_site_symmetry_multiplicity
 _atom_site_fract_x
 _atom_site_fract_y
 _atom_site_fract_z
 _atom_site_occupancy
  Ba  Ba0  1  0.00000000  0.00000000  0.25486600  1
  Ba  Ba1  1  0.66666667  0.33333333  0.07846733  1
  Ba  Ba2  1  0.66666667  0.33333333  0.58819933  1
  Ba  Ba3  1  0.33333333  0.66666667  0.41180067  1
  Ba  Ba4  1  0.33333333  0.66666667  0.92153267  1
  Ba  Ba5  1  0.00000000  0.00000000  0.74513400  1
  Cu  Cu6  1  0.33333333  0.66666667  0.16666667  1
  Cu  Cu7  1  1.00000000  1.00000000  0.50000000  1
  Cu  Cu8  1  0.66666667  0.33333333  0.83333333  1
  Cl  Cl9  1  0.00000000  0.00000000  0.00000000  1
  Cl  Cl10  1  0.66666667  0.33333333  0.33333333  1
  Cl  Cl11  1  0.33333333  0.66666667  0.66666667  1
  O  O12  1  0.33333333  0.66666667  0.10365067  1
  O  O13  1  0.33333333  0.66666667  0.22968267  1
  O  O14  1  0.00000000  0.00000000  0.43698400  1
  O  O15  1  0.00000000  0.00000000  0.56301600  1
  O  O16  1  0.66666667  0.33333333  0.77031733  1
  O  O17  1  0.66666667  0.33333333  0.89634933  1
