# generated using pymatgen
data_Na2SnAs2
_symmetry_space_group_name_H-M   'P 1'
_cell_length_a   14.36184400
_cell_length_b   14.36184400
_cell_length_c   21.64321800
_cell_angle_alpha   90.00000000
_cell_angle_beta   90.00000000
_cell_angle_gamma   90.00000000
_symmetry_Int_Tables_number   1
_chemical_formula_structural   Na2SnAs2
_chemical_formula_sum   'Na64 Sn32 As64'
_cell_volume   4464.18561799
_cell_formula_units_Z   32
loop_
 _symmetry_equiv_pos_site_id
 _symmetry_equiv_pos_as_xyz
  1  'x, y, z'
loop_
 _atom_site_type_symbol
 _atom_site_label
 _atom_site_symmetry_multiplicity
 _atom_site_fract_x
 _atom_site_fract_y
 _atom_site_fract_z
 _atom_site_occupancy
  Na  Na0  1  0.64962900  0.85037100  0.00000000  1
  Na  Na1  1  0.38261750  0.83935750  0.15610250  1
  Na  Na2  1  0.16064250  0.61738250  0.34389750  1
  Na  Na3  1  0.11738250  0.83935750  0.09389750  1
  Na  Na4  1  0.11738250  0.33935750  0.15610250  1
  Na  Na5  1  0.83935750  0.11738250  0.40610250  1
  Na  Na6  1  0.83935750  0.38261750  0.34389750  1
  Na  Na7  1  0.85037100  0.85037100  0.25000000  1
  Na  Na8  1  0.39982000  0.39982000  0.25000000  1
  Na  Na9  1  0.85037100  0.35037100  0.00000000  1
  Na  Na10  1  0.60018000  0.60018000  0.25000000  1
  Na  Na11  1  0.14962900  0.64962900  0.00000000  1
  Na  Na12  1  0.35037100  0.64962900  0.25000000  1
  Na  Na13  1  0.14962900  0.14962900  0.25000000  1
  Na  Na14  1  0.33935750  0.38261750  0.40610250  1
  Na  Na15  1  0.66064250  0.61738250  0.40610250  1
  Na  Na16  1  0.10018000  0.39982000  0.00000000  1
  Na  Na17  1  0.60018000  0.10018000  0.00000000  1
  Na  Na18  1  0.64962900  0.35037100  0.25000000  1
  Na  Na19  1  0.61738250  0.16064250  0.15610250  1
  Na  Na20  1  0.39982000  0.89982000  0.00000000  1
  Na  Na21  1  0.88261750  0.16064250  0.09389750  1
  Na  Na22  1  0.61738250  0.66064250  0.09389750  1
  Na  Na23  1  0.89982000  0.60018000  0.00000000  1
  Na  Na24  1  0.89982000  0.10018000  0.25000000  1
  Na  Na25  1  0.38261750  0.33935750  0.09389750  1
  Na  Na26  1  0.88261750  0.66064250  0.15610250  1
  Na  Na27  1  0.33935750  0.11738250  0.34389750  1
  Na  Na28  1  0.35037100  0.14962900  0.00000000  1
  Na  Na29  1  0.66064250  0.88261750  0.34389750  1
  Na  Na30  1  0.16064250  0.88261750  0.40610250  1
  Na  Na31  1  0.10018000  0.89982000  0.25000000  1
  Na  Na32  1  0.14962900  0.35037100  0.50000000  1
  Na  Na33  1  0.88261750  0.33935750  0.65610250  1
  Na  Na34  1  0.66064250  0.11738250  0.84389750  1
  Na  Na35  1  0.61738250  0.33935750  0.59389750  1
  Na  Na36  1  0.61738250  0.83935750  0.65610250  1
  Na  Na37  1  0.33935750  0.61738250  0.90610250  1
  Na  Na38  1  0.33935750  0.88261750  0.84389750  1
  Na  Na39  1  0.35037100  0.35037100  0.75000000  1
  Na  Na40  1  0.89982000  0.89982000  0.75000000  1
  Na  Na41  1  0.35037100  0.85037100  0.50000000  1
  Na  Na42  1  0.10018000  0.10018000  0.75000000  1
  Na  Na43  1  0.64962900  0.14962900  0.50000000  1
  Na  Na44  1  0.85037100  0.14962900  0.75000000  1
  Na  Na45  1  0.64962900  0.64962900  0.75000000  1
  Na  Na46  1  0.83935750  0.88261750  0.90610250  1
  Na  Na47  1  0.16064250  0.11738250  0.90610250  1
  Na  Na48  1  0.60018000  0.89982000  0.50000000  1
  Na  Na49  1  0.10018000  0.60018000  0.50000000  1
  Na  Na50  1  0.14962900  0.85037100  0.75000000  1
  Na  Na51  1  0.11738250  0.66064250  0.65610250  1
  Na  Na52  1  0.89982000  0.39982000  0.50000000  1
  Na  Na53  1  0.38261750  0.66064250  0.59389750  1
  Na  Na54  1  0.11738250  0.16064250  0.59389750  1
  Na  Na55  1  0.39982000  0.10018000  0.50000000  1
  Na  Na56  1  0.39982000  0.60018000  0.75000000  1
  Na  Na57  1  0.88261750  0.83935750  0.59389750  1
  Na  Na58  1  0.38261750  0.16064250  0.65610250  1
  Na  Na59  1  0.83935750  0.61738250  0.84389750  1
  Na  Na60  1  0.85037100  0.64962900  0.50000000  1
  Na  Na61  1  0.16064250  0.38261750  0.84389750  1
  Na  Na62  1  0.66064250  0.38261750  0.90610250  1
  Na  Na63  1  0.60018000  0.39982000  0.75000000  1
  Sn  Sn64  1  0.08125800  0.38026500  0.31887400  1
  Sn  Sn65  1  0.61973500  0.41874200  0.06887400  1
  Sn  Sn66  1  0.58125800  0.38026500  0.43112600  1
  Sn  Sn67  1  0.88026500  0.91874200  0.06887400  1
  Sn  Sn68  1  0.38026500  0.08125800  0.18112600  1
  Sn  Sn69  1  0.08125800  0.11973500  0.43112600  1
  Sn  Sn70  1  0.91874200  0.88026500  0.43112600  1
  Sn  Sn71  1  0.88026500  0.41874200  0.18112600  1
  Sn  Sn72  1  0.38026500  0.58125800  0.06887400  1
  Sn  Sn73  1  0.11973500  0.08125800  0.06887400  1
  Sn  Sn74  1  0.41874200  0.61973500  0.43112600  1
  Sn  Sn75  1  0.61973500  0.91874200  0.18112600  1
  Sn  Sn76  1  0.91874200  0.61973500  0.31887400  1
  Sn  Sn77  1  0.58125800  0.11973500  0.31887400  1
  Sn  Sn78  1  0.41874200  0.88026500  0.31887400  1
  Sn  Sn79  1  0.11973500  0.58125800  0.18112600  1
  Sn  Sn80  1  0.58125800  0.88026500  0.81887400  1
  Sn  Sn81  1  0.11973500  0.91874200  0.56887400  1
  Sn  Sn82  1  0.08125800  0.88026500  0.93112600  1
  Sn  Sn83  1  0.38026500  0.41874200  0.56887400  1
  Sn  Sn84  1  0.88026500  0.58125800  0.68112600  1
  Sn  Sn85  1  0.58125800  0.61973500  0.93112600  1
  Sn  Sn86  1  0.41874200  0.38026500  0.93112600  1
  Sn  Sn87  1  0.38026500  0.91874200  0.68112600  1
  Sn  Sn88  1  0.88026500  0.08125800  0.56887400  1
  Sn  Sn89  1  0.61973500  0.58125800  0.56887400  1
  Sn  Sn90  1  0.91874200  0.11973500  0.93112600  1
  Sn  Sn91  1  0.11973500  0.41874200  0.68112600  1
  Sn  Sn92  1  0.41874200  0.11973500  0.81887400  1
  Sn  Sn93  1  0.08125800  0.61973500  0.81887400  1
  Sn  Sn94  1  0.91874200  0.38026500  0.81887400  1
  Sn  Sn95  1  0.61973500  0.08125800  0.68112600  1
  As  As96  1  0.68279000  0.25000000  0.37500000  1
  As  As97  1  0.31721000  0.75000000  0.37500000  1
  As  As98  1  0.28740250  0.96509950  0.25295250  1
  As  As99  1  0.21259750  0.03490050  0.49704750  1
  As  As100  1  0.50000000  0.50000000  0.14807600  1
  As  As101  1  0.75000000  0.81721000  0.12500000  1
  As  As102  1  0.78740250  0.96509950  0.49704750  1
  As  As103  1  0.00000000  0.50000000  0.39807600  1
  As  As104  1  0.18279000  0.25000000  0.37500000  1
  As  As105  1  0.50000000  0.00000000  0.10192400  1
  As  As106  1  0.03490050  0.71259750  0.24704750  1
  As  As107  1  0.53490050  0.28740250  0.00295250  1
  As  As108  1  0.28740250  0.53490050  0.49704750  1
  As  As109  1  0.50000000  0.00000000  0.39807600  1
  As  As110  1  0.53490050  0.78740250  0.24704750  1
  As  As111  1  0.46509950  0.71259750  0.00295250  1
  As  As112  1  0.46509950  0.21259750  0.24704750  1
  As  As113  1  0.03490050  0.21259750  0.00295250  1
  As  As114  1  0.50000000  0.50000000  0.35192400  1
  As  As115  1  0.25000000  0.18279000  0.12500000  1
  As  As116  1  0.81721000  0.75000000  0.37500000  1
  As  As117  1  0.00000000  0.00000000  0.35192400  1
  As  As118  1  0.96509950  0.78740250  0.00295250  1
  As  As119  1  0.75000000  0.31721000  0.12500000  1
  As  As120  1  0.00000000  0.00000000  0.14807600  1
  As  As121  1  0.25000000  0.68279000  0.12500000  1
  As  As122  1  0.21259750  0.46509950  0.25295250  1
  As  As123  1  0.00000000  0.50000000  0.10192400  1
  As  As124  1  0.71259750  0.03490050  0.25295250  1
  As  As125  1  0.71259750  0.46509950  0.49704750  1
  As  As126  1  0.96509950  0.28740250  0.24704750  1
  As  As127  1  0.78740250  0.53490050  0.25295250  1
  As  As128  1  0.18279000  0.75000000  0.87500000  1
  As  As129  1  0.81721000  0.25000000  0.87500000  1
  As  As130  1  0.78740250  0.46509950  0.75295250  1
  As  As131  1  0.71259750  0.53490050  0.99704750  1
  As  As132  1  0.00000000  0.00000000  0.64807600  1
  As  As133  1  0.25000000  0.31721000  0.62500000  1
  As  As134  1  0.28740250  0.46509950  0.99704750  1
  As  As135  1  0.50000000  0.00000000  0.89807600  1
  As  As136  1  0.68279000  0.75000000  0.87500000  1
  As  As137  1  0.00000000  0.50000000  0.60192400  1
  As  As138  1  0.53490050  0.21259750  0.74704750  1
  As  As139  1  0.03490050  0.78740250  0.50295250  1
  As  As140  1  0.78740250  0.03490050  0.99704750  1
  As  As141  1  0.00000000  0.50000000  0.89807600  1
  As  As142  1  0.03490050  0.28740250  0.74704750  1
  As  As143  1  0.96509950  0.21259750  0.50295250  1
  As  As144  1  0.96509950  0.71259750  0.74704750  1
  As  As145  1  0.53490050  0.71259750  0.50295250  1
  As  As146  1  0.00000000  0.00000000  0.85192400  1
  As  As147  1  0.75000000  0.68279000  0.62500000  1
  As  As148  1  0.31721000  0.25000000  0.87500000  1
  As  As149  1  0.50000000  0.50000000  0.85192400  1
  As  As150  1  0.46509950  0.28740250  0.50295250  1
  As  As151  1  0.25000000  0.81721000  0.62500000  1
  As  As152  1  0.50000000  0.50000000  0.64807600  1
  As  As153  1  0.75000000  0.18279000  0.62500000  1
  As  As154  1  0.71259750  0.96509950  0.75295250  1
  As  As155  1  0.50000000  0.00000000  0.60192400  1
  As  As156  1  0.21259750  0.53490050  0.75295250  1
  As  As157  1  0.21259750  0.96509950  0.99704750  1
  As  As158  1  0.46509950  0.78740250  0.74704750  1
  As  As159  1  0.28740250  0.03490050  0.75295250  1
