# generated using pymatgen
data_Mg2P2O7
_symmetry_space_group_name_H-M   'P 1'
_cell_length_a   6.53716600
_cell_length_b   8.39029600
_cell_length_c   4.55110048
_cell_angle_alpha   90.00000000
_cell_angle_beta   103.81570294
_cell_angle_gamma   90.00000000
_symmetry_Int_Tables_number   1
_chemical_formula_structural   Mg2P2O7
_chemical_formula_sum   'Mg4 P4 O14'
_cell_volume   242.40035512
_cell_formula_units_Z   2
loop_
 _symmetry_equiv_pos_site_id
 _symmetry_equiv_pos_as_xyz
  1  'x, y, z'
loop_
 _atom_site_type_symbol
 _atom_site_label
 _atom_site_symmetry_multiplicity
 _atom_site_fract_x
 _atom_site_fract_y
 _atom_site_fract_z
 _atom_site_occupancy
  Mg  Mg0  1  0.50000000  0.81232700  0.50000000  1
  Mg  Mg1  1  0.50000000  0.18767300  0.50000000  1
  Mg  Mg2  1  0.00000000  0.31232700  0.50000000  1
  Mg  Mg3  1  0.00000000  0.68767300  0.50000000  1
  P  P4  1  0.21868300  0.00000000  0.90601600  1
  P  P5  1  0.78131700  0.00000000  0.09398400  1
  P  P6  1  0.71868300  0.50000000  0.90601600  1
  P  P7  1  0.28131700  0.50000000  0.09398400  1
  O  O8  1  0.22494400  0.84816400  0.72017700  1
  O  O9  1  0.77505600  0.84816400  0.27982300  1
  O  O10  1  0.77505600  0.15183600  0.27982300  1
  O  O11  1  0.22494400  0.15183600  0.72017700  1
  O  O12  1  0.00000000  0.00000000  0.00000000  1
  O  O13  1  0.38050000  0.00000000  0.21226900  1
  O  O14  1  0.61950000  0.00000000  0.78773100  1
  O  O15  1  0.72494400  0.34816400  0.72017700  1
  O  O16  1  0.27505600  0.34816400  0.27982300  1
  O  O17  1  0.27505600  0.65183600  0.27982300  1
  O  O18  1  0.72494400  0.65183600  0.72017700  1
  O  O19  1  0.50000000  0.50000000  0.00000000  1
  O  O20  1  0.88050000  0.50000000  0.21226900  1
  O  O21  1  0.11950000  0.50000000  0.78773100  1
