# generated using pymatgen
data_Ba4Na2CaTi3Si4(SO13)2
_symmetry_space_group_name_H-M   'P 1'
_cell_length_a   5.49723400
_cell_length_b   7.21002449
_cell_length_c   15.00263077
_cell_angle_alpha   98.82547133
_cell_angle_beta   94.76206788
_cell_angle_gamma   89.97888566
_symmetry_Int_Tables_number   1
_chemical_formula_structural   Ba4Na2CaTi3Si4(SO13)2
_chemical_formula_sum   'Ba4 Na2 Ca1 Ti3 Si4 S2 O26'
_cell_volume   585.51733076
_cell_formula_units_Z   1
loop_
 _symmetry_equiv_pos_site_id
 _symmetry_equiv_pos_as_xyz
  1  'x, y, z'
loop_
 _atom_site_type_symbol
 _atom_site_label
 _atom_site_symmetry_multiplicity
 _atom_site_fract_x
 _atom_site_fract_y
 _atom_site_fract_z
 _atom_site_occupancy
  Ba  Ba0  1  0.41617900  0.16946800  0.61747300  1
  Ba  Ba1  1  0.93229400  0.70678700  0.70495500  1
  Ba  Ba2  1  0.00260600  0.99440100  0.01815000  1
  Ba  Ba3  1  0.48247900  0.45745200  0.93040200  1
  Na  Na4  1  0.70911200  0.57852200  0.31815200  1
  Na  Na5  1  0.20821700  0.31574200  0.31808600  1
  Ca  Ca6  1  0.21060500  0.85742500  0.31763000  1
  Ti  Ti7  1  0.39108200  0.64404800  0.51926800  1
  Ti  Ti8  1  0.71024900  0.09531600  0.31829900  1
  Ti  Ti9  1  0.02679000  0.52037800  0.11631800  1
  Si  Si10  1  0.53129200  0.80434600  0.12661300  1
  Si  Si11  1  0.88730800  0.35832000  0.50824100  1
  Si  Si12  1  0.53129800  0.24044100  0.12939400  1
  Si  Si13  1  0.88746500  0.92305900  0.50735500  1
  S  S14  1  0.95007600  0.28322800  0.79344700  1
  S  S15  1  0.46140400  0.88131100  0.84130500  1
  O  O16  1  0.90030900  0.15371900  0.54909100  1
  O  O17  1  0.93671000  0.08355500  0.75360900  1
  O  O18  1  0.46842500  0.08165200  0.88000300  1
  O  O19  1  0.14386500  0.46730200  0.55394900  1
  O  O20  1  0.04880800  0.56232100  0.23065600  1
  O  O21  1  0.76382000  0.69542400  0.07890100  1
  O  O22  1  0.27517500  0.32150400  0.08445100  1
  O  O23  1  0.14447200  0.84316200  0.55302000  1
  O  O24  1  0.65599200  0.84153400  0.55395500  1
  O  O25  1  0.86996200  0.32371700  0.39910000  1
  O  O26  1  0.97403400  0.30993200  0.89496000  1
  O  O27  1  0.72298900  0.38078400  0.76321000  1
  O  O28  1  0.76380700  0.32177800  0.08326800  1
  O  O29  1  0.24769400  0.78601800  0.87245100  1
  O  O30  1  0.45263900  0.09399500  0.39032500  1
  O  O31  1  0.87344900  0.88942000  0.39861000  1
  O  O32  1  0.69035700  0.78776100  0.87257900  1
  O  O33  1  0.43824800  0.85235500  0.73978200  1
  O  O34  1  0.36832500  0.61237400  0.40491000  1
  O  O35  1  0.54932600  0.27301600  0.23845100  1
  O  O36  1  0.27329000  0.69648100  0.08015000  1
  O  O37  1  0.96771700  0.04997500  0.24609500  1
  O  O38  1  0.54593600  0.83730700  0.23542300  1
  O  O39  1  0.16537100  0.37634200  0.76234500  1
  O  O40  1  0.65307300  0.46687200  0.55478300  1
  O  O41  1  0.51855000  0.01035400  0.08673000  1
