# generated using pymatgen
data_Tl3PbBr5
_symmetry_space_group_name_H-M   'P 1'
_cell_length_a   8.99785800
_cell_length_b   8.99785800
_cell_length_c   15.67350100
_cell_angle_alpha   90.00000000
_cell_angle_beta   90.00000000
_cell_angle_gamma   90.00000000
_symmetry_Int_Tables_number   1
_chemical_formula_structural   Tl3PbBr5
_chemical_formula_sum   'Tl12 Pb4 Br20'
_cell_volume   1268.94934541
_cell_formula_units_Z   4
loop_
 _symmetry_equiv_pos_site_id
 _symmetry_equiv_pos_as_xyz
  1  'x, y, z'
loop_
 _atom_site_type_symbol
 _atom_site_label
 _atom_site_symmetry_multiplicity
 _atom_site_fract_x
 _atom_site_fract_y
 _atom_site_fract_z
 _atom_site_occupancy
  Tl  Tl0  1  0.99282000  0.81211100  0.80380500  1
  Tl  Tl1  1  0.88208900  0.68239700  0.37751700  1
  Tl  Tl2  1  0.18788900  0.99282000  0.05380500  1
  Tl  Tl3  1  0.17428700  0.36253300  0.56752800  1
  Tl  Tl4  1  0.68239700  0.11791100  0.12751700  1
  Tl  Tl5  1  0.36253300  0.82571300  0.31752800  1
  Tl  Tl6  1  0.11791100  0.31760300  0.87751700  1
  Tl  Tl7  1  0.00718000  0.18788900  0.30380500  1
  Tl  Tl8  1  0.63746700  0.17428700  0.81752800  1
  Tl  Tl9  1  0.82571300  0.63746700  0.06752800  1
  Tl  Tl10  1  0.31760300  0.88208900  0.62751700  1
  Tl  Tl11  1  0.81211100  0.00718000  0.55380500  1
  Pb  Pb12  1  0.69557700  0.51533500  0.64449700  1
  Pb  Pb13  1  0.48466500  0.69557700  0.89449700  1
  Pb  Pb14  1  0.51533500  0.30442300  0.39449700  1
  Pb  Pb15  1  0.30442300  0.48466500  0.14449700  1
  Br  Br16  1  0.36063200  0.51748200  0.75665700  1
  Br  Br17  1  0.49435800  0.79718300  0.10435100  1
  Br  Br18  1  0.20281700  0.49435800  0.35435100  1
  Br  Br19  1  0.67075300  0.01920100  0.35081700  1
  Br  Br20  1  0.64681600  0.82282200  0.72529700  1
  Br  Br21  1  0.50564200  0.20281700  0.60435100  1
  Br  Br22  1  0.63936800  0.48251800  0.25665700  1
  Br  Br23  1  0.48251800  0.36063200  0.00665700  1
  Br  Br24  1  0.01920100  0.32924700  0.10081700  1
  Br  Br25  1  0.97501000  0.17174700  0.70653100  1
  Br  Br26  1  0.79718300  0.50564200  0.85435100  1
  Br  Br27  1  0.82825300  0.97501000  0.95653100  1
  Br  Br28  1  0.17174700  0.02499000  0.45653100  1
  Br  Br29  1  0.17717800  0.64681600  0.97529700  1
  Br  Br30  1  0.32924700  0.98079900  0.85081700  1
  Br  Br31  1  0.82282200  0.35318400  0.47529700  1
  Br  Br32  1  0.98079900  0.67075300  0.60081700  1
  Br  Br33  1  0.51748200  0.63936800  0.50665700  1
  Br  Br34  1  0.35318400  0.17717800  0.22529700  1
  Br  Br35  1  0.02499000  0.82825300  0.20653100  1
