# generated using pymatgen
data_RbAuCl4
_symmetry_space_group_name_H-M   'P 1'
_cell_length_a   12.85920400
_cell_length_b   6.08634800
_cell_length_c   10.33414410
_cell_angle_alpha   90.00000000
_cell_angle_beta   102.38770552
_cell_angle_gamma   90.00000000
_symmetry_Int_Tables_number   1
_chemical_formula_structural   RbAuCl4
_chemical_formula_sum   'Rb4 Au4 Cl16'
_cell_volume   789.97749493
_cell_formula_units_Z   4
loop_
 _symmetry_equiv_pos_site_id
 _symmetry_equiv_pos_as_xyz
  1  'x, y, z'
loop_
 _atom_site_type_symbol
 _atom_site_label
 _atom_site_symmetry_multiplicity
 _atom_site_fract_x
 _atom_site_fract_y
 _atom_site_fract_z
 _atom_site_occupancy
  Rb  Rb0  1  0.00000000  0.77406900  0.75000000  1
  Rb  Rb1  1  0.00000000  0.22593100  0.25000000  1
  Rb  Rb2  1  0.50000000  0.27406900  0.75000000  1
  Rb  Rb3  1  0.50000000  0.72593100  0.25000000  1
  Au  Au4  1  0.75000000  0.75000000  0.00000000  1
  Au  Au5  1  0.75000000  0.25000000  0.50000000  1
  Au  Au6  1  0.25000000  0.25000000  0.00000000  1
  Au  Au7  1  0.25000000  0.75000000  0.50000000  1
  Cl  Cl8  1  0.93367300  0.73111400  0.06857200  1
  Cl  Cl9  1  0.73211250  0.46316550  0.14213200  1
  Cl  Cl10  1  0.56632700  0.23111400  0.43142800  1
  Cl  Cl11  1  0.56632700  0.76888600  0.93142800  1
  Cl  Cl12  1  0.76788750  0.03683450  0.85786800  1
  Cl  Cl13  1  0.76788750  0.96316550  0.35786800  1
  Cl  Cl14  1  0.73211250  0.53683450  0.64213200  1
  Cl  Cl15  1  0.93367300  0.26888600  0.56857200  1
  Cl  Cl16  1  0.43367300  0.23111400  0.06857200  1
  Cl  Cl17  1  0.23211250  0.96316550  0.14213200  1
  Cl  Cl18  1  0.06632700  0.73111400  0.43142800  1
  Cl  Cl19  1  0.06632700  0.26888600  0.93142800  1
  Cl  Cl20  1  0.26788750  0.53683450  0.85786800  1
  Cl  Cl21  1  0.26788750  0.46316550  0.35786800  1
  Cl  Cl22  1  0.23211250  0.03683450  0.64213200  1
  Cl  Cl23  1  0.43367300  0.76888600  0.56857200  1
