# generated using pymatgen
data_Pr2Zr2O7
_symmetry_space_group_name_H-M   'P 1'
_cell_length_a   10.84033000
_cell_length_b   10.84033000
_cell_length_c   10.84033000
_cell_angle_alpha   90.00000000
_cell_angle_beta   90.00000000
_cell_angle_gamma   90.00000000
_symmetry_Int_Tables_number   1
_chemical_formula_structural   Pr2Zr2O7
_chemical_formula_sum   'Pr16 Zr16 O56'
_cell_volume   1273.87703809
_cell_formula_units_Z   8
loop_
 _symmetry_equiv_pos_site_id
 _symmetry_equiv_pos_as_xyz
  1  'x, y, z'
loop_
 _atom_site_type_symbol
 _atom_site_label
 _atom_site_symmetry_multiplicity
 _atom_site_fract_x
 _atom_site_fract_y
 _atom_site_fract_z
 _atom_site_occupancy
  Pr  Pr0  1  0.37500000  0.12500000  0.37500000  1
  Pr  Pr1  1  0.87500000  0.87500000  0.12500000  1
  Pr  Pr2  1  0.62500000  0.87500000  0.37500000  1
  Pr  Pr3  1  0.12500000  0.12500000  0.12500000  1
  Pr  Pr4  1  0.37500000  0.62500000  0.87500000  1
  Pr  Pr5  1  0.87500000  0.37500000  0.62500000  1
  Pr  Pr6  1  0.62500000  0.37500000  0.87500000  1
  Pr  Pr7  1  0.12500000  0.62500000  0.62500000  1
  Pr  Pr8  1  0.87500000  0.12500000  0.87500000  1
  Pr  Pr9  1  0.37500000  0.87500000  0.62500000  1
  Pr  Pr10  1  0.12500000  0.87500000  0.87500000  1
  Pr  Pr11  1  0.62500000  0.12500000  0.62500000  1
  Pr  Pr12  1  0.87500000  0.62500000  0.37500000  1
  Pr  Pr13  1  0.37500000  0.37500000  0.12500000  1
  Pr  Pr14  1  0.12500000  0.37500000  0.37500000  1
  Pr  Pr15  1  0.62500000  0.62500000  0.12500000  1
  Zr  Zr16  1  0.12500000  0.87500000  0.37500000  1
  Zr  Zr17  1  0.37500000  0.62500000  0.37500000  1
  Zr  Zr18  1  0.37500000  0.87500000  0.12500000  1
  Zr  Zr19  1  0.12500000  0.62500000  0.12500000  1
  Zr  Zr20  1  0.12500000  0.37500000  0.87500000  1
  Zr  Zr21  1  0.37500000  0.12500000  0.87500000  1
  Zr  Zr22  1  0.37500000  0.37500000  0.62500000  1
  Zr  Zr23  1  0.12500000  0.12500000  0.62500000  1
  Zr  Zr24  1  0.62500000  0.87500000  0.87500000  1
  Zr  Zr25  1  0.87500000  0.62500000  0.87500000  1
  Zr  Zr26  1  0.87500000  0.87500000  0.62500000  1
  Zr  Zr27  1  0.62500000  0.62500000  0.62500000  1
  Zr  Zr28  1  0.62500000  0.37500000  0.37500000  1
  Zr  Zr29  1  0.87500000  0.12500000  0.37500000  1
  Zr  Zr30  1  0.87500000  0.37500000  0.12500000  1
  Zr  Zr31  1  0.62500000  0.12500000  0.12500000  1
  O  O32  1  0.00000000  0.00000000  0.29067200  1
  O  O33  1  0.25000000  0.95932800  0.25000000  1
  O  O34  1  0.79067200  0.00000000  0.50000000  1
  O  O35  1  0.25000000  0.75000000  0.45932800  1
  O  O36  1  0.50000000  0.29067200  0.50000000  1
  O  O37  1  0.25000000  0.75000000  0.04067200  1
  O  O38  1  0.50000000  0.00000000  0.50000000  1
  O  O39  1  0.50000000  0.70932800  0.50000000  1
  O  O40  1  0.25000000  0.54067200  0.25000000  1
  O  O41  1  0.04067200  0.75000000  0.25000000  1
  O  O42  1  0.20932800  0.00000000  0.50000000  1
  O  O43  1  0.50000000  0.00000000  0.20932800  1
  O  O44  1  0.45932800  0.75000000  0.25000000  1
  O  O45  1  0.25000000  0.25000000  0.25000000  1
  O  O46  1  0.00000000  0.50000000  0.79067200  1
  O  O47  1  0.25000000  0.45932800  0.75000000  1
  O  O48  1  0.79067200  0.50000000  0.00000000  1
  O  O49  1  0.25000000  0.25000000  0.95932800  1
  O  O50  1  0.50000000  0.79067200  0.00000000  1
  O  O51  1  0.25000000  0.25000000  0.54067200  1
  O  O52  1  0.50000000  0.50000000  0.00000000  1
  O  O53  1  0.50000000  0.20932800  0.00000000  1
  O  O54  1  0.25000000  0.04067200  0.75000000  1
  O  O55  1  0.04067200  0.25000000  0.75000000  1
  O  O56  1  0.20932800  0.50000000  0.00000000  1
  O  O57  1  0.50000000  0.50000000  0.70932800  1
  O  O58  1  0.45932800  0.25000000  0.75000000  1
  O  O59  1  0.25000000  0.75000000  0.75000000  1
  O  O60  1  0.50000000  0.00000000  0.79067200  1
  O  O61  1  0.75000000  0.95932800  0.75000000  1
  O  O62  1  0.29067200  0.00000000  0.00000000  1
  O  O63  1  0.75000000  0.75000000  0.95932800  1
  O  O64  1  0.00000000  0.29067200  0.00000000  1
  O  O65  1  0.75000000  0.75000000  0.54067200  1
  O  O66  1  0.00000000  0.00000000  0.00000000  1
  O  O67  1  0.00000000  0.70932800  0.00000000  1
  O  O68  1  0.75000000  0.54067200  0.75000000  1
  O  O69  1  0.54067200  0.75000000  0.75000000  1
  O  O70  1  0.70932800  0.00000000  0.00000000  1
  O  O71  1  0.00000000  0.00000000  0.70932800  1
  O  O72  1  0.95932800  0.75000000  0.75000000  1
  O  O73  1  0.75000000  0.25000000  0.75000000  1
  O  O74  1  0.50000000  0.50000000  0.29067200  1
  O  O75  1  0.75000000  0.45932800  0.25000000  1
  O  O76  1  0.29067200  0.50000000  0.50000000  1
  O  O77  1  0.75000000  0.25000000  0.45932800  1
  O  O78  1  0.00000000  0.79067200  0.50000000  1
  O  O79  1  0.75000000  0.25000000  0.04067200  1
  O  O80  1  0.00000000  0.50000000  0.50000000  1
  O  O81  1  0.00000000  0.20932800  0.50000000  1
  O  O82  1  0.75000000  0.04067200  0.25000000  1
  O  O83  1  0.54067200  0.25000000  0.25000000  1
  O  O84  1  0.70932800  0.50000000  0.50000000  1
  O  O85  1  0.00000000  0.50000000  0.20932800  1
  O  O86  1  0.95932800  0.25000000  0.25000000  1
  O  O87  1  0.75000000  0.75000000  0.25000000  1
