# generated using pymatgen
data_CuAsSe
_symmetry_space_group_name_H-M   'P 1'
_cell_length_a   6.87068200
_cell_length_b   11.84695700
_cell_length_c   19.52236300
_cell_angle_alpha   90.00000000
_cell_angle_beta   90.00000000
_cell_angle_gamma   90.00000000
_symmetry_Int_Tables_number   1
_chemical_formula_structural   CuAsSe
_chemical_formula_sum   'Cu24 As24 Se24'
_cell_volume   1589.05542101
_cell_formula_units_Z   24
loop_
 _symmetry_equiv_pos_site_id
 _symmetry_equiv_pos_as_xyz
  1  'x, y, z'
loop_
 _atom_site_type_symbol
 _atom_site_label
 _atom_site_symmetry_multiplicity
 _atom_site_fract_x
 _atom_site_fract_y
 _atom_site_fract_z
 _atom_site_occupancy
  Cu  Cu0  1  0.96827000  0.66856400  0.69527700  1
  Cu  Cu1  1  0.68432400  0.66736000  0.86077600  1
  Cu  Cu2  1  0.46827000  0.16856400  0.80472300  1
  Cu  Cu3  1  0.53173000  0.16856400  0.30472300  1
  Cu  Cu4  1  0.68432400  0.33264000  0.63922400  1
  Cu  Cu5  1  0.03173000  0.33143600  0.30472300  1
  Cu  Cu6  1  0.14001600  0.82911100  0.52932200  1
  Cu  Cu7  1  0.18432400  0.83264000  0.86077600  1
  Cu  Cu8  1  0.35998400  0.32911100  0.47067800  1
  Cu  Cu9  1  0.85998400  0.82911100  0.02932200  1
  Cu  Cu10  1  0.81567600  0.16736000  0.13922400  1
  Cu  Cu11  1  0.18432400  0.16736000  0.63922400  1
  Cu  Cu12  1  0.14001600  0.17088900  0.97067800  1
  Cu  Cu13  1  0.31567600  0.66736000  0.36077600  1
  Cu  Cu14  1  0.03173000  0.66856400  0.19527700  1
  Cu  Cu15  1  0.64001600  0.67088900  0.52932200  1
  Cu  Cu16  1  0.85998400  0.17088900  0.47067800  1
  Cu  Cu17  1  0.31567600  0.33264000  0.13922400  1
  Cu  Cu18  1  0.53173000  0.83143600  0.19527700  1
  Cu  Cu19  1  0.46827000  0.83143600  0.69527700  1
  Cu  Cu20  1  0.96827000  0.33143600  0.80472300  1
  Cu  Cu21  1  0.64001600  0.32911100  0.97067800  1
  Cu  Cu22  1  0.81567600  0.83264000  0.36077600  1
  Cu  Cu23  1  0.35998400  0.67088900  0.02932200  1
  As  As24  1  0.50571400  0.48476600  0.18412700  1
  As  As25  1  0.49428600  0.51523400  0.81587300  1
  As  As26  1  0.49428600  0.48476600  0.68412700  1
  As  As27  1  0.14588600  0.48348900  0.85383700  1
  As  As28  1  0.67711700  0.98271000  0.98303000  1
  As  As29  1  0.32288300  0.98271000  0.48303000  1
  As  As30  1  0.82288300  0.51729000  0.48303000  1
  As  As31  1  0.85411400  0.51651100  0.14616300  1
  As  As32  1  0.17711700  0.48271000  0.51697000  1
  As  As33  1  0.50571400  0.51523400  0.31587300  1
  As  As34  1  0.00571400  0.01523400  0.18412700  1
  As  As35  1  0.35411400  0.98348900  0.14616300  1
  As  As36  1  0.82288300  0.48271000  0.01697000  1
  As  As37  1  0.99428600  0.98476600  0.81587300  1
  As  As38  1  0.85411400  0.48348900  0.35383700  1
  As  As39  1  0.17711700  0.51729000  0.98303000  1
  As  As40  1  0.67711700  0.01729000  0.51697000  1
  As  As41  1  0.64588600  0.01651100  0.85383700  1
  As  As42  1  0.32288300  0.01729000  0.01697000  1
  As  As43  1  0.99428600  0.01523400  0.68412700  1
  As  As44  1  0.64588600  0.98348900  0.64616300  1
  As  As45  1  0.14588600  0.51651100  0.64616300  1
  As  As46  1  0.00571400  0.98476600  0.31587300  1
  As  As47  1  0.35411400  0.01651100  0.35383700  1
  Se  Se48  1  0.48473800  0.83306400  0.31857500  1
  Se  Se49  1  0.18677200  0.83315000  0.98450500  1
  Se  Se50  1  0.81322800  0.83315000  0.48450500  1
  Se  Se51  1  0.36037700  0.33328900  0.34718500  1
  Se  Se52  1  0.98473800  0.66693600  0.31857500  1
  Se  Se53  1  0.98473800  0.33306400  0.18142500  1
  Se  Se54  1  0.01526200  0.66693600  0.81857500  1
  Se  Se55  1  0.68677200  0.33315000  0.51549500  1
  Se  Se56  1  0.13962300  0.83328900  0.65281500  1
  Se  Se57  1  0.18677200  0.16685000  0.51549500  1
  Se  Se58  1  0.63962300  0.66671100  0.65281500  1
  Se  Se59  1  0.81322800  0.16685000  0.01549500  1
  Se  Se60  1  0.86037700  0.83328900  0.15281500  1
  Se  Se61  1  0.48473800  0.16693600  0.18142500  1
  Se  Se62  1  0.31322800  0.66685000  0.48450500  1
  Se  Se63  1  0.51526200  0.16693600  0.68142500  1
  Se  Se64  1  0.51526200  0.83306400  0.81857500  1
  Se  Se65  1  0.63962300  0.33328900  0.84718500  1
  Se  Se66  1  0.01526200  0.33306400  0.68142500  1
  Se  Se67  1  0.36037700  0.66671100  0.15281500  1
  Se  Se68  1  0.31322800  0.33315000  0.01549500  1
  Se  Se69  1  0.68677200  0.66685000  0.98450500  1
  Se  Se70  1  0.86037700  0.16671100  0.34718500  1
  Se  Se71  1  0.13962300  0.16671100  0.84718500  1
