# generated using pymatgen
data_Pb13(Cl3O5)2
_symmetry_space_group_name_H-M   'P 1'
_cell_length_a   16.36390000
_cell_length_b   7.08674600
_cell_length_c   23.79500535
_cell_angle_alpha   90.00000000
_cell_angle_beta   97.90362529
_cell_angle_gamma   90.00000000
_symmetry_Int_Tables_number   1
_chemical_formula_structural   Pb13(Cl3O5)2
_chemical_formula_sum   'Pb52 Cl24 O40'
_cell_volume   2733.21821379
_cell_formula_units_Z   4
loop_
 _symmetry_equiv_pos_site_id
 _symmetry_equiv_pos_as_xyz
  1  'x, y, z'
loop_
 _atom_site_type_symbol
 _atom_site_label
 _atom_site_symmetry_multiplicity
 _atom_site_fract_x
 _atom_site_fract_y
 _atom_site_fract_z
 _atom_site_occupancy
  Pb  Pb0  1  0.89570200  0.22125200  0.20932000  1
  Pb  Pb1  1  0.67570350  0.05767750  0.15323800  1
  Pb  Pb2  1  0.58299650  0.57670450  0.13341400  1
  Pb  Pb3  1  0.91700350  0.07670450  0.36658600  1
  Pb  Pb4  1  0.86393600  0.91397300  0.08321100  1
  Pb  Pb5  1  0.89570200  0.77874800  0.70932000  1
  Pb  Pb6  1  0.54758500  0.25534200  0.01143700  1
  Pb  Pb7  1  0.76624700  0.60016400  0.56262900  1
  Pb  Pb8  1  0.91700350  0.92329550  0.86658600  1
  Pb  Pb9  1  0.00000000  0.76357700  0.25000000  1
  Pb  Pb10  1  0.54758500  0.74465800  0.51143700  1
  Pb  Pb11  1  0.86393600  0.08602700  0.58321100  1
  Pb  Pb12  1  0.73375300  0.89983600  0.43737100  1
  Pb  Pb13  1  0.76624700  0.39983600  0.06262900  1
  Pb  Pb14  1  0.58299650  0.42329550  0.63341400  1
  Pb  Pb15  1  0.73375300  0.10016400  0.93737100  1
  Pb  Pb16  1  0.60429800  0.27874800  0.79068000  1
  Pb  Pb17  1  0.60429800  0.72125200  0.29068000  1
  Pb  Pb18  1  0.95241500  0.75534200  0.48856300  1
  Pb  Pb19  1  0.67570350  0.94232250  0.65323800  1
  Pb  Pb20  1  0.95241500  0.24465800  0.98856300  1
  Pb  Pb21  1  0.63606400  0.41397300  0.41678900  1
  Pb  Pb22  1  0.63606400  0.58602700  0.91678900  1
  Pb  Pb23  1  0.82429650  0.55767750  0.34676200  1
  Pb  Pb24  1  0.82429650  0.44232250  0.84676200  1
  Pb  Pb25  1  0.00000000  0.23642300  0.75000000  1
  Pb  Pb26  1  0.39570200  0.72125200  0.20932000  1
  Pb  Pb27  1  0.17570350  0.55767750  0.15323800  1
  Pb  Pb28  1  0.08299650  0.07670450  0.13341400  1
  Pb  Pb29  1  0.41700350  0.57670450  0.36658600  1
  Pb  Pb30  1  0.36393600  0.41397300  0.08321100  1
  Pb  Pb31  1  0.39570200  0.27874800  0.70932000  1
  Pb  Pb32  1  0.04758500  0.75534200  0.01143700  1
  Pb  Pb33  1  0.26624700  0.10016400  0.56262900  1
  Pb  Pb34  1  0.41700350  0.42329550  0.86658600  1
  Pb  Pb35  1  0.50000000  0.26357700  0.25000000  1
  Pb  Pb36  1  0.04758500  0.24465800  0.51143700  1
  Pb  Pb37  1  0.36393600  0.58602700  0.58321100  1
  Pb  Pb38  1  0.23375300  0.39983600  0.43737100  1
  Pb  Pb39  1  0.26624700  0.89983600  0.06262900  1
  Pb  Pb40  1  0.08299650  0.92329550  0.63341400  1
  Pb  Pb41  1  0.23375300  0.60016400  0.93737100  1
  Pb  Pb42  1  0.10429800  0.77874800  0.79068000  1
  Pb  Pb43  1  0.10429800  0.22125200  0.29068000  1
  Pb  Pb44  1  0.45241500  0.25534200  0.48856300  1
  Pb  Pb45  1  0.17570350  0.44232250  0.65323800  1
  Pb  Pb46  1  0.45241500  0.74465800  0.98856300  1
  Pb  Pb47  1  0.13606400  0.91397300  0.41678900  1
  Pb  Pb48  1  0.13606400  0.08602700  0.91678900  1
  Pb  Pb49  1  0.32429650  0.05767750  0.34676200  1
  Pb  Pb50  1  0.32429650  0.94232250  0.84676200  1
  Pb  Pb51  1  0.50000000  0.73642300  0.75000000  1
  Cl  Cl52  1  0.83761750  0.34336750  0.45631600  1
  Cl  Cl53  1  0.67970600  0.67037900  0.74740200  1
  Cl  Cl54  1  0.96734450  0.53820950  0.63539800  1
  Cl  Cl55  1  0.53265550  0.03820950  0.86460200  1
  Cl  Cl56  1  0.67970600  0.32962100  0.24740200  1
  Cl  Cl57  1  0.53265550  0.96179050  0.36460200  1
  Cl  Cl58  1  0.66238250  0.15663250  0.54368400  1
  Cl  Cl59  1  0.82029400  0.17037900  0.75259800  1
  Cl  Cl60  1  0.96734450  0.46179050  0.13539800  1
  Cl  Cl61  1  0.82029400  0.82962100  0.25259800  1
  Cl  Cl62  1  0.83761750  0.65663250  0.95631600  1
  Cl  Cl63  1  0.66238250  0.84336750  0.04368400  1
  Cl  Cl64  1  0.33761750  0.84336750  0.45631600  1
  Cl  Cl65  1  0.17970600  0.17037900  0.74740200  1
  Cl  Cl66  1  0.46734450  0.03820950  0.63539800  1
  Cl  Cl67  1  0.03265550  0.53820950  0.86460200  1
  Cl  Cl68  1  0.17970600  0.82962100  0.24740200  1
  Cl  Cl69  1  0.03265550  0.46179050  0.36460200  1
  Cl  Cl70  1  0.16238250  0.65663250  0.54368400  1
  Cl  Cl71  1  0.32029400  0.67037900  0.75259800  1
  Cl  Cl72  1  0.46734450  0.96179050  0.13539800  1
  Cl  Cl73  1  0.32029400  0.32962100  0.25259800  1
  Cl  Cl74  1  0.33761750  0.15663250  0.95631600  1
  Cl  Cl75  1  0.16238250  0.34336750  0.04368400  1
  O  O76  1  0.97647000  0.99118100  0.18293100  1
  O  O77  1  0.82803550  0.84580050  0.51827400  1
  O  O78  1  0.51008500  0.50792800  0.44192800  1
  O  O79  1  0.64039200  0.69013800  0.59846600  1
  O  O80  1  0.97647000  0.00881900  0.68293100  1
  O  O81  1  0.98991500  0.99207200  0.55807200  1
  O  O82  1  0.52353000  0.49118100  0.31706900  1
  O  O83  1  0.67196450  0.34580050  0.98172600  1
  O  O84  1  0.64039200  0.30986200  0.09846600  1
  O  O85  1  0.51008500  0.49207200  0.94192800  1
  O  O86  1  0.80421650  0.14344950  0.13640300  1
  O  O87  1  0.80421650  0.85655050  0.63640300  1
  O  O88  1  0.82803550  0.15419950  0.01827400  1
  O  O89  1  0.69578350  0.64344950  0.36359700  1
  O  O90  1  0.98991500  0.00792800  0.05807200  1
  O  O91  1  0.85960800  0.19013800  0.90153400  1
  O  O92  1  0.52353000  0.50881900  0.81706900  1
  O  O93  1  0.85960800  0.80986200  0.40153400  1
  O  O94  1  0.69578350  0.35655050  0.86359700  1
  O  O95  1  0.67196450  0.65419950  0.48172600  1
  O  O96  1  0.47647000  0.49118100  0.18293100  1
  O  O97  1  0.32803550  0.34580050  0.51827400  1
  O  O98  1  0.01008500  0.00792800  0.44192800  1
  O  O99  1  0.14039200  0.19013800  0.59846600  1
  O  O100  1  0.47647000  0.50881900  0.68293100  1
  O  O101  1  0.48991500  0.49207200  0.55807200  1
  O  O102  1  0.02353000  0.99118100  0.31706900  1
  O  O103  1  0.17196450  0.84580050  0.98172600  1
  O  O104  1  0.14039200  0.80986200  0.09846600  1
  O  O105  1  0.01008500  0.99207200  0.94192800  1
  O  O106  1  0.30421650  0.64344950  0.13640300  1
  O  O107  1  0.30421650  0.35655050  0.63640300  1
  O  O108  1  0.32803550  0.65419950  0.01827400  1
  O  O109  1  0.19578350  0.14344950  0.36359700  1
  O  O110  1  0.48991500  0.50792800  0.05807200  1
  O  O111  1  0.35960800  0.69013800  0.90153400  1
  O  O112  1  0.02353000  0.00881900  0.81706900  1
  O  O113  1  0.35960800  0.30986200  0.40153400  1
  O  O114  1  0.19578350  0.85655050  0.86359700  1
  O  O115  1  0.17196450  0.15419950  0.48172600  1
