# generated using pymatgen
data_K2MgB12(H2O3)10
_symmetry_space_group_name_H-M   'P 1'
_cell_length_a   7.61653000
_cell_length_b   7.87690484
_cell_length_c   10.93971228
_cell_angle_alpha   108.55215015
_cell_angle_beta   94.56274165
_cell_angle_gamma   91.82987025
_symmetry_Int_Tables_number   1
_chemical_formula_structural   K2MgB12(H2O3)10
_chemical_formula_sum   'K2 Mg1 B12 H20 O30'
_cell_volume   619.10749787
_cell_formula_units_Z   1
loop_
 _symmetry_equiv_pos_site_id
 _symmetry_equiv_pos_as_xyz
  1  'x, y, z'
loop_
 _atom_site_type_symbol
 _atom_site_label
 _atom_site_symmetry_multiplicity
 _atom_site_fract_x
 _atom_site_fract_y
 _atom_site_fract_z
 _atom_site_occupancy
  K  K0  1  0.73686000  0.36661500  0.40212500  1
  K  K1  1  0.26314000  0.63338500  0.59787500  1
  Mg  Mg2  1  0.00000000  0.00000000  0.00000000  1
  B  B3  1  0.35755400  0.15391800  0.44377100  1
  B  B4  1  0.64244600  0.84608200  0.55622900  1
  B  B5  1  0.45949900  0.75894200  0.04410400  1
  B  B6  1  0.54050100  0.24105800  0.95589600  1
  B  B7  1  0.33255500  0.01532600  0.20520900  1
  B  B8  1  0.66744500  0.98467400  0.79479100  1
  B  B9  1  0.16679200  0.69954200  0.11559900  1
  B  B10  1  0.83320800  0.30045800  0.88440100  1
  B  B11  1  0.11494900  0.56783300  0.29216400  1
  B  B12  1  0.88505100  0.43216700  0.70783600  1
  B  B13  1  0.12987600  0.89519900  0.35325700  1
  B  B14  1  0.87012400  0.10480100  0.64674300  1
  H  H15  1  0.39647200  0.30762300  0.63230800  1
  H  H16  1  0.60352800  0.69237700  0.36769200  1
  H  H17  1  0.30248600  0.97011100  0.87074100  1
  H  H18  1  0.69751400  0.02988900  0.12925900  1
  H  H19  1  0.12114700  0.05150900  0.59809700  1
  H  H20  1  0.87885300  0.94849100  0.40190300  1
  H  H21  1  0.28394700  0.46576500  0.85929900  1
  H  H22  1  0.71605300  0.53423500  0.14070100  1
  H  H23  1  0.02071800  0.35802700  0.03915100  1
  H  H24  1  0.97928200  0.64197300  0.96084900  1
  H  H25  1  0.13057900  0.97676800  0.78200600  1
  H  H26  1  0.86942100  0.02323200  0.21799400  1
  H  H27  1  0.19297800  0.28487200  0.76163700  1
  H  H28  1  0.80702200  0.71512800  0.23836300  1
  H  H29  1  0.28491200  0.18763500  0.10334000  1
  H  H30  1  0.71508800  0.81236500  0.89666000  1
  H  H31  1  0.12493800  0.30485500  0.26353400  1
  H  H32  1  0.87506200  0.69514500  0.73646600  1
  H  H33  1  0.38698900  0.42983300  0.05687400  1
  H  H34  1  0.61301100  0.57016700  0.94312600  1
  O  O35  1  0.21004800  0.11435400  0.14194900  1
  O  O36  1  0.78995200  0.88564600  0.85805100  1
  O  O37  1  0.41935300  0.13382000  0.32579700  1
  O  O38  1  0.58064700  0.86618000  0.67420300  1
  O  O39  1  0.22456100  0.04150200  0.45872500  1
  O  O40  1  0.77543900  0.95849800  0.54127500  1
  O  O41  1  0.10124200  0.41765500  0.33131100  1
  O  O42  1  0.89875800  0.58234500  0.66868900  1
  O  O43  1  0.11085700  0.55307100  0.16239800  1
  O  O44  1  0.88914300  0.44692900  0.83760200  1
  O  O45  1  0.13366500  0.73058800  0.38746100  1
  O  O46  1  0.86633500  0.26941200  0.61253900  1
  O  O47  1  0.02940400  0.74787500  0.03372200  1
  O  O48  1  0.97059600  0.25212500  0.96627800  1
  O  O49  1  0.56264700  0.70598700  0.45367300  1
  O  O50  1  0.43735300  0.29401300  0.54632700  1
  O  O51  1  0.82260000  0.07543500  0.14952700  1
  O  O52  1  0.17740000  0.92456500  0.85047300  1
  O  O53  1  0.46664800  0.93511000  0.11802400  1
  O  O54  1  0.53335200  0.06489000  0.88197600  1
  O  O55  1  0.40641500  0.29995300  0.03488000  1
  O  O56  1  0.59358500  0.70004700  0.96512000  1
  O  O57  1  0.22158600  0.86683800  0.22910300  1
  O  O58  1  0.77841400  0.13316200  0.77089700  1
  O  O59  1  0.72181900  0.61402600  0.23066000  1
  O  O60  1  0.27818100  0.38597400  0.76934000  1
  O  O61  1  0.32435600  0.63809700  0.04386400  1
  O  O62  1  0.67564400  0.36190300  0.95613600  1
  O  O63  1  0.05458400  0.06560100  0.67502500  1
  O  O64  1  0.94541600  0.93439900  0.32497500  1
