# generated using pymatgen
data_Ho2Te4O11
_symmetry_space_group_name_H-M   'P 1'
_cell_length_a   12.46367800
_cell_length_b   5.15996800
_cell_length_c   16.28275045
_cell_angle_alpha   90.00000000
_cell_angle_beta   105.30007653
_cell_angle_gamma   90.00000000
_symmetry_Int_Tables_number   1
_chemical_formula_structural   Ho2Te4O11
_chemical_formula_sum   'Ho8 Te16 O44'
_cell_volume   1010.06406970
_cell_formula_units_Z   4
loop_
 _symmetry_equiv_pos_site_id
 _symmetry_equiv_pos_as_xyz
  1  'x, y, z'
loop_
 _atom_site_type_symbol
 _atom_site_label
 _atom_site_symmetry_multiplicity
 _atom_site_fract_x
 _atom_site_fract_y
 _atom_site_fract_z
 _atom_site_occupancy
  Ho  Ho0  1  0.38065000  0.74973900  0.96297000  1
  Ho  Ho1  1  0.11935000  0.24973900  0.53703000  1
  Ho  Ho2  1  0.61935000  0.25026100  0.03703000  1
  Ho  Ho3  1  0.88065000  0.75026100  0.46297000  1
  Ho  Ho4  1  0.88065000  0.24973900  0.96297000  1
  Ho  Ho5  1  0.61935000  0.74973900  0.53703000  1
  Ho  Ho6  1  0.11935000  0.75026100  0.03703000  1
  Ho  Ho7  1  0.38065000  0.25026100  0.46297000  1
  Te  Te8  1  0.87188050  0.28223750  0.62504700  1
  Te  Te9  1  0.12811950  0.28223750  0.87495300  1
  Te  Te10  1  0.12811950  0.71776250  0.37495300  1
  Te  Te11  1  0.87188050  0.71776250  0.12504700  1
  Te  Te12  1  0.37826600  0.22093800  0.80194200  1
  Te  Te13  1  0.12173400  0.72093800  0.69805800  1
  Te  Te14  1  0.62173400  0.77906200  0.19805800  1
  Te  Te15  1  0.87826600  0.27906200  0.30194200  1
  Te  Te16  1  0.37188050  0.78223750  0.62504700  1
  Te  Te17  1  0.62811950  0.78223750  0.87495300  1
  Te  Te18  1  0.62811950  0.21776250  0.37495300  1
  Te  Te19  1  0.37188050  0.21776250  0.12504700  1
  Te  Te20  1  0.87826600  0.72093800  0.80194200  1
  Te  Te21  1  0.62173400  0.22093800  0.69805800  1
  Te  Te22  1  0.12173400  0.27906200  0.19805800  1
  Te  Te23  1  0.37826600  0.77906200  0.30194200  1
  O  O24  1  0.24722750  0.56188950  0.62735200  1
  O  O25  1  0.25277250  0.06188950  0.87264800  1
  O  O26  1  0.75277250  0.43811050  0.37264800  1
  O  O27  1  0.74722750  0.93811050  0.12735200  1
  O  O28  1  0.79207950  0.54579150  0.55189800  1
  O  O29  1  0.20792050  0.54579150  0.94810200  1
  O  O30  1  0.20792050  0.45420850  0.44810200  1
  O  O31  1  0.79207950  0.45420850  0.05189800  1
  O  O32  1  0.93091400  0.10594000  0.54455000  1
  O  O33  1  0.06908600  0.10594000  0.95545000  1
  O  O34  1  0.06908600  0.89406000  0.45545000  1
  O  O35  1  0.93091400  0.89406000  0.04455000  1
  O  O36  1  0.02421450  0.57669350  0.59560000  1
  O  O37  1  0.97578550  0.57669350  0.90440000  1
  O  O38  1  0.97578550  0.42330650  0.40440000  1
  O  O39  1  0.02421450  0.42330650  0.09560000  1
  O  O40  1  0.14889800  0.05799100  0.66673700  1
  O  O41  1  0.35110200  0.55799100  0.83326300  1
  O  O42  1  0.85110200  0.94200900  0.33326300  1
  O  O43  1  0.64889800  0.44200900  0.16673700  1
  O  O44  1  0.00000000  0.85418400  0.75000000  1
  O  O45  1  0.00000000  0.14581600  0.25000000  1
  O  O46  1  0.74722750  0.06188950  0.62735200  1
  O  O47  1  0.75277250  0.56188950  0.87264800  1
  O  O48  1  0.25277250  0.93811050  0.37264800  1
  O  O49  1  0.24722750  0.43811050  0.12735200  1
  O  O50  1  0.29207950  0.04579150  0.55189800  1
  O  O51  1  0.70792050  0.04579150  0.94810200  1
  O  O52  1  0.70792050  0.95420850  0.44810200  1
  O  O53  1  0.29207950  0.95420850  0.05189800  1
  O  O54  1  0.43091400  0.60594000  0.54455000  1
  O  O55  1  0.56908600  0.60594000  0.95545000  1
  O  O56  1  0.56908600  0.39406000  0.45545000  1
  O  O57  1  0.43091400  0.39406000  0.04455000  1
  O  O58  1  0.52421450  0.07669350  0.59560000  1
  O  O59  1  0.47578550  0.07669350  0.90440000  1
  O  O60  1  0.47578550  0.92330650  0.40440000  1
  O  O61  1  0.52421450  0.92330650  0.09560000  1
  O  O62  1  0.64889800  0.55799100  0.66673700  1
  O  O63  1  0.85110200  0.05799100  0.83326300  1
  O  O64  1  0.35110200  0.44200900  0.33326300  1
  O  O65  1  0.14889800  0.94200900  0.16673700  1
  O  O66  1  0.50000000  0.35418400  0.75000000  1
  O  O67  1  0.50000000  0.64581600  0.25000000  1
