# generated using pymatgen
data_SnO2
_symmetry_space_group_name_H-M   'P 1'
_cell_length_a   4.80642100
_cell_length_b   5.82370900
_cell_length_c   16.10126700
_cell_angle_alpha   90.00000000
_cell_angle_beta   90.00000000
_cell_angle_gamma   90.00000000
_symmetry_Int_Tables_number   1
_chemical_formula_structural   SnO2
_chemical_formula_sum   'Sn12 O24'
_cell_volume   450.69374034
_cell_formula_units_Z   12
loop_
 _symmetry_equiv_pos_site_id
 _symmetry_equiv_pos_as_xyz
  1  'x, y, z'
loop_
 _atom_site_type_symbol
 _atom_site_label
 _atom_site_symmetry_multiplicity
 _atom_site_fract_x
 _atom_site_fract_y
 _atom_site_fract_z
 _atom_site_occupancy
  Sn  Sn0  1  0.99697600  0.34366400  0.41604400  1
  Sn  Sn1  1  0.50302400  0.15633600  0.91604400  1
  Sn  Sn2  1  0.00302400  0.34366400  0.08395600  1
  Sn  Sn3  1  0.00000000  0.02077200  0.25000000  1
  Sn  Sn4  1  0.99697600  0.65633600  0.91604400  1
  Sn  Sn5  1  0.49697600  0.84366400  0.08395600  1
  Sn  Sn6  1  0.49697600  0.15633600  0.58395600  1
  Sn  Sn7  1  0.50000000  0.47922800  0.75000000  1
  Sn  Sn8  1  0.50302400  0.84366400  0.41604400  1
  Sn  Sn9  1  0.50000000  0.52077200  0.25000000  1
  Sn  Sn10  1  0.00302400  0.65633600  0.58395600  1
  Sn  Sn11  1  0.00000000  0.97922800  0.75000000  1
  O  O12  1  0.21085600  0.93411900  0.86219900  1
  O  O13  1  0.27288600  0.20517400  0.69473000  1
  O  O14  1  0.78914400  0.93411900  0.63780100  1
  O  O15  1  0.70625100  0.12382800  0.47051100  1
  O  O16  1  0.22711400  0.29482600  0.19473000  1
  O  O17  1  0.28914400  0.43411900  0.86219900  1
  O  O18  1  0.71085600  0.56588100  0.13780100  1
  O  O19  1  0.79374900  0.37617200  0.97051100  1
  O  O20  1  0.70625100  0.87617200  0.97051100  1
  O  O21  1  0.20625100  0.62382800  0.02948900  1
  O  O22  1  0.28914400  0.56588100  0.36219900  1
  O  O23  1  0.71085600  0.43411900  0.63780100  1
  O  O24  1  0.29374900  0.12382800  0.02948900  1
  O  O25  1  0.29374900  0.87617200  0.52948900  1
  O  O26  1  0.77288600  0.70517400  0.80527000  1
  O  O27  1  0.21085600  0.06588100  0.36219900  1
  O  O28  1  0.78914400  0.06588100  0.13780100  1
  O  O29  1  0.27288600  0.79482600  0.19473000  1
  O  O30  1  0.72711400  0.20517400  0.80527000  1
  O  O31  1  0.77288600  0.29482600  0.30527000  1
  O  O32  1  0.72711400  0.79482600  0.30527000  1
  O  O33  1  0.20625100  0.37617200  0.52948900  1
  O  O34  1  0.79374900  0.62382800  0.47051100  1
  O  O35  1  0.22711400  0.70517400  0.69473000  1
