# generated using pymatgen
data_MnBiSe2I
_symmetry_space_group_name_H-M   'P 1'
_cell_length_a   13.53661200
_cell_length_b   4.13355600
_cell_length_c   10.15846714
_cell_angle_alpha   90.00000000
_cell_angle_beta   91.86275015
_cell_angle_gamma   90.00000000
_symmetry_Int_Tables_number   1
_chemical_formula_structural   MnBiSe2I
_chemical_formula_sum   'Mn4 Bi4 Se8 I4'
_cell_volume   568.10999160
_cell_formula_units_Z   4
loop_
 _symmetry_equiv_pos_site_id
 _symmetry_equiv_pos_as_xyz
  1  'x, y, z'
loop_
 _atom_site_type_symbol
 _atom_site_label
 _atom_site_symmetry_multiplicity
 _atom_site_fract_x
 _atom_site_fract_y
 _atom_site_fract_z
 _atom_site_occupancy
  Mn  Mn0  1  0.00000000  0.50000000  0.00000000  1
  Mn  Mn1  1  0.00000000  0.50000000  0.50000000  1
  Mn  Mn2  1  0.50000000  0.00000000  0.00000000  1
  Mn  Mn3  1  0.50000000  0.00000000  0.50000000  1
  Bi  Bi4  1  0.71097600  0.50000000  0.81094600  1
  Bi  Bi5  1  0.78902400  0.00000000  0.18905400  1
  Bi  Bi6  1  0.21097600  0.00000000  0.81094600  1
  Bi  Bi7  1  0.28902400  0.50000000  0.18905400  1
  Se  Se8  1  0.92954300  0.50000000  0.24333700  1
  Se  Se9  1  0.63460200  0.50000000  0.05790200  1
  Se  Se10  1  0.57045700  0.00000000  0.75666300  1
  Se  Se11  1  0.86539800  0.00000000  0.94209800  1
  Se  Se12  1  0.42954300  0.00000000  0.24333700  1
  Se  Se13  1  0.13460200  0.00000000  0.05790200  1
  Se  Se14  1  0.07045700  0.50000000  0.75666300  1
  Se  Se15  1  0.36539800  0.50000000  0.94209800  1
  I  I16  1  0.63460800  0.50000000  0.42949000  1
  I  I17  1  0.86539200  0.00000000  0.57051000  1
  I  I18  1  0.13460800  0.00000000  0.42949000  1
  I  I19  1  0.36539200  0.50000000  0.57051000  1
