# generated using pymatgen
data_RbZrCdF7
_symmetry_space_group_name_H-M   'P 1'
_cell_length_a   6.94018200
_cell_length_b   11.32018000
_cell_length_c   8.67049600
_cell_angle_alpha   90.00000000
_cell_angle_beta   90.00000000
_cell_angle_gamma   90.00000000
_symmetry_Int_Tables_number   1
_chemical_formula_structural   RbZrCdF7
_chemical_formula_sum   'Rb4 Zr4 Cd4 F28'
_cell_volume   681.18979693
_cell_formula_units_Z   4
loop_
 _symmetry_equiv_pos_site_id
 _symmetry_equiv_pos_as_xyz
  1  'x, y, z'
loop_
 _atom_site_type_symbol
 _atom_site_label
 _atom_site_symmetry_multiplicity
 _atom_site_fract_x
 _atom_site_fract_y
 _atom_site_fract_z
 _atom_site_occupancy
  Rb  Rb0  1  0.50000000  0.00000000  0.50000000  1
  Rb  Rb1  1  0.50000000  0.00000000  0.00000000  1
  Rb  Rb2  1  0.00000000  0.50000000  0.50000000  1
  Rb  Rb3  1  0.00000000  0.50000000  0.00000000  1
  Zr  Zr4  1  0.50000000  0.69318000  0.25000000  1
  Zr  Zr5  1  0.50000000  0.30682000  0.75000000  1
  Zr  Zr6  1  0.00000000  0.19318000  0.25000000  1
  Zr  Zr7  1  0.00000000  0.80682000  0.75000000  1
  Cd  Cd8  1  0.50000000  0.69136200  0.75000000  1
  Cd  Cd9  1  0.50000000  0.30863800  0.25000000  1
  Cd  Cd10  1  0.00000000  0.19136200  0.75000000  1
  Cd  Cd11  1  0.00000000  0.80863800  0.25000000  1
  F  F12  1  0.50000000  0.70361900  0.01393300  1
  F  F13  1  0.29468300  0.14212100  0.25000000  1
  F  F14  1  0.70531700  0.14212100  0.25000000  1
  F  F15  1  0.67698400  0.15165900  0.75000000  1
  F  F16  1  0.32301600  0.15165900  0.75000000  1
  F  F17  1  0.50000000  0.70361900  0.48606700  1
  F  F18  1  0.29468300  0.85787900  0.75000000  1
  F  F19  1  0.67698400  0.84834100  0.25000000  1
  F  F20  1  0.32301600  0.84834100  0.25000000  1
  F  F21  1  0.50000000  0.51045500  0.25000000  1
  F  F22  1  0.50000000  0.29638100  0.51393300  1
  F  F23  1  0.50000000  0.29638100  0.98606700  1
  F  F24  1  0.50000000  0.48954500  0.75000000  1
  F  F25  1  0.70531700  0.85787900  0.75000000  1
  F  F26  1  0.00000000  0.20361900  0.01393300  1
  F  F27  1  0.79468300  0.64212100  0.25000000  1
  F  F28  1  0.20531700  0.64212100  0.25000000  1
  F  F29  1  0.17698400  0.65165900  0.75000000  1
  F  F30  1  0.82301600  0.65165900  0.75000000  1
  F  F31  1  0.00000000  0.20361900  0.48606700  1
  F  F32  1  0.79468300  0.35787900  0.75000000  1
  F  F33  1  0.17698400  0.34834100  0.25000000  1
  F  F34  1  0.82301600  0.34834100  0.25000000  1
  F  F35  1  0.00000000  0.01045500  0.25000000  1
  F  F36  1  0.00000000  0.79638100  0.51393300  1
  F  F37  1  0.00000000  0.79638100  0.98606700  1
  F  F38  1  0.00000000  0.98954500  0.75000000  1
  F  F39  1  0.20531700  0.35787900  0.75000000  1
