# generated using pymatgen
data_LiLa2S2O8F3
_symmetry_space_group_name_H-M   'P 1'
_cell_length_a   15.83520600
_cell_length_b   7.02155000
_cell_length_c   8.33305697
_cell_angle_alpha   90.00000000
_cell_angle_beta   116.72526374
_cell_angle_gamma   90.00000000
_symmetry_Int_Tables_number   1
_chemical_formula_structural   LiLa2S2O8F3
_chemical_formula_sum   'Li4 La8 S8 O32 F12'
_cell_volume   827.55474909
_cell_formula_units_Z   4
loop_
 _symmetry_equiv_pos_site_id
 _symmetry_equiv_pos_as_xyz
  1  'x, y, z'
loop_
 _atom_site_type_symbol
 _atom_site_label
 _atom_site_symmetry_multiplicity
 _atom_site_fract_x
 _atom_site_fract_y
 _atom_site_fract_z
 _atom_site_occupancy
  Li  Li0  1  0.00000000  0.40699700  0.75000000  1
  Li  Li1  1  0.00000000  0.59300300  0.25000000  1
  Li  Li2  1  0.50000000  0.90699700  0.75000000  1
  Li  Li3  1  0.50000000  0.09300300  0.25000000  1
  La  La4  1  0.37995200  0.59335000  0.03426400  1
  La  La5  1  0.37995200  0.40665000  0.53426400  1
  La  La6  1  0.12004800  0.09335000  0.46573600  1
  La  La7  1  0.12004800  0.90665000  0.96573600  1
  La  La8  1  0.87995200  0.09335000  0.03426400  1
  La  La9  1  0.87995200  0.90665000  0.53426400  1
  La  La10  1  0.62004800  0.59335000  0.46573600  1
  La  La11  1  0.62004800  0.40665000  0.96573600  1
  S  S12  1  0.32640400  0.08454300  0.84474600  1
  S  S13  1  0.17359600  0.41545700  0.15525400  1
  S  S14  1  0.32640400  0.91545700  0.34474600  1
  S  S15  1  0.17359600  0.58454300  0.65525400  1
  S  S16  1  0.82640400  0.58454300  0.84474600  1
  S  S17  1  0.67359600  0.91545700  0.15525400  1
  S  S18  1  0.82640400  0.41545700  0.34474600  1
  S  S19  1  0.67359600  0.08454300  0.65525400  1
  O  O20  1  0.23046950  0.04888050  0.82988500  1
  O  O21  1  0.23046950  0.95111950  0.32988500  1
  O  O22  1  0.37952700  0.77545100  0.48903700  1
  O  O23  1  0.12047300  0.72454900  0.51096300  1
  O  O24  1  0.37952700  0.22454900  0.98903700  1
  O  O25  1  0.11714500  0.40697400  0.61977000  1
  O  O26  1  0.12047300  0.27545100  0.01096300  1
  O  O27  1  0.38285500  0.90697400  0.88023000  1
  O  O28  1  0.38285500  0.09302600  0.38023000  1
  O  O29  1  0.30735350  0.15897650  0.66266300  1
  O  O30  1  0.30735350  0.84102350  0.16266300  1
  O  O31  1  0.26953050  0.45111950  0.17011500  1
  O  O32  1  0.19264650  0.65897650  0.83733700  1
  O  O33  1  0.26953050  0.54888050  0.67011500  1
  O  O34  1  0.11714500  0.59302600  0.11977000  1
  O  O35  1  0.19264650  0.34102350  0.33733700  1
  O  O36  1  0.73046950  0.54888050  0.82988500  1
  O  O37  1  0.73046950  0.45111950  0.32988500  1
  O  O38  1  0.87952700  0.27545100  0.48903700  1
  O  O39  1  0.62047300  0.22454900  0.51096300  1
  O  O40  1  0.87952700  0.72454900  0.98903700  1
  O  O41  1  0.61714500  0.90697400  0.61977000  1
  O  O42  1  0.62047300  0.77545100  0.01096300  1
  O  O43  1  0.88285500  0.40697400  0.88023000  1
  O  O44  1  0.88285500  0.59302600  0.38023000  1
  O  O45  1  0.80735350  0.65897650  0.66266300  1
  O  O46  1  0.80735350  0.34102350  0.16266300  1
  O  O47  1  0.76953050  0.95111950  0.17011500  1
  O  O48  1  0.69264650  0.15897650  0.83733700  1
  O  O49  1  0.76953050  0.04888050  0.67011500  1
  O  O50  1  0.61714500  0.09302600  0.11977000  1
  O  O51  1  0.69264650  0.84102350  0.33733700  1
  F  F52  1  0.04743100  0.04181000  0.66429200  1
  F  F53  1  0.04743100  0.95819000  0.16429200  1
  F  F54  1  0.45256900  0.45819000  0.33570800  1
  F  F55  1  0.45256900  0.54181000  0.83570800  1
  F  F56  1  0.00000000  0.69373200  0.75000000  1
  F  F57  1  0.00000000  0.30626800  0.25000000  1
  F  F58  1  0.54743100  0.54181000  0.66429200  1
  F  F59  1  0.54743100  0.45819000  0.16429200  1
  F  F60  1  0.95256900  0.95819000  0.33570800  1
  F  F61  1  0.95256900  0.04181000  0.83570800  1
  F  F62  1  0.50000000  0.19373200  0.75000000  1
  F  F63  1  0.50000000  0.80626800  0.25000000  1
