# generated using pymatgen
data_VCdCuO4
_symmetry_space_group_name_H-M   'P 1'
_cell_length_a   6.08902000
_cell_length_b   9.20397400
_cell_length_c   6.56436700
_cell_angle_alpha   90.00000000
_cell_angle_beta   90.00000000
_cell_angle_gamma   90.00000000
_symmetry_Int_Tables_number   1
_chemical_formula_structural   VCdCuO4
_chemical_formula_sum   'V4 Cd4 Cu4 O16'
_cell_volume   367.88801296
_cell_formula_units_Z   4
loop_
 _symmetry_equiv_pos_site_id
 _symmetry_equiv_pos_as_xyz
  1  'x, y, z'
loop_
 _atom_site_type_symbol
 _atom_site_label
 _atom_site_symmetry_multiplicity
 _atom_site_fract_x
 _atom_site_fract_y
 _atom_site_fract_z
 _atom_site_occupancy
  V  V0  1  0.50000000  0.13411900  0.25000000  1
  V  V1  1  0.50000000  0.86588100  0.75000000  1
  V  V2  1  0.00000000  0.63411900  0.25000000  1
  V  V3  1  0.00000000  0.36588100  0.75000000  1
  Cd  Cd4  1  0.00000000  0.00000000  0.00000000  1
  Cd  Cd5  1  0.00000000  0.00000000  0.50000000  1
  Cd  Cd6  1  0.50000000  0.50000000  0.00000000  1
  Cd  Cd7  1  0.50000000  0.50000000  0.50000000  1
  Cu  Cu8  1  0.50000000  0.80605600  0.25000000  1
  Cu  Cu9  1  0.50000000  0.19394400  0.75000000  1
  Cu  Cu10  1  0.00000000  0.30605600  0.25000000  1
  Cu  Cu11  1  0.00000000  0.69394400  0.75000000  1
  O  O12  1  0.50000000  0.24133400  0.03078900  1
  O  O13  1  0.50000000  0.75866600  0.53078900  1
  O  O14  1  0.50000000  0.75866600  0.96921100  1
  O  O15  1  0.50000000  0.24133400  0.46921100  1
  O  O16  1  0.26561950  0.01789450  0.25000000  1
  O  O17  1  0.73438050  0.98210550  0.75000000  1
  O  O18  1  0.73438050  0.01789450  0.25000000  1
  O  O19  1  0.26561950  0.98210550  0.75000000  1
  O  O20  1  0.00000000  0.74133400  0.03078900  1
  O  O21  1  0.00000000  0.25866600  0.53078900  1
  O  O22  1  0.00000000  0.25866600  0.96921100  1
  O  O23  1  0.00000000  0.74133400  0.46921100  1
  O  O24  1  0.76561950  0.51789450  0.25000000  1
  O  O25  1  0.23438050  0.48210550  0.75000000  1
  O  O26  1  0.23438050  0.51789450  0.25000000  1
  O  O27  1  0.76561950  0.48210550  0.75000000  1
