# generated using pymatgen
data_Ti3(BiO3)4
_symmetry_space_group_name_H-M   'P 1'
_cell_length_a   33.57922200
_cell_length_b   5.43020600
_cell_length_c   5.49599000
_cell_angle_alpha   90.00000000
_cell_angle_beta   90.08468243
_cell_angle_gamma   90.00000000
_symmetry_Int_Tables_number   1
_chemical_formula_structural   Ti3(BiO3)4
_chemical_formula_sum   'Ti12 Bi16 O48'
_cell_volume   1002.14922444
_cell_formula_units_Z   4
loop_
 _symmetry_equiv_pos_site_id
 _symmetry_equiv_pos_as_xyz
  1  'x, y, z'
loop_
 _atom_site_type_symbol
 _atom_site_label
 _atom_site_symmetry_multiplicity
 _atom_site_fract_x
 _atom_site_fract_y
 _atom_site_fract_z
 _atom_site_occupancy
  Ti  Ti0  1  0.74806150  0.25462550  0.51921100  1
  Ti  Ti1  1  0.62166450  0.25331150  0.52852600  1
  Ti  Ti2  1  0.87920800  0.74811300  0.02389400  1
  Ti  Ti3  1  0.87920800  0.25188700  0.52389400  1
  Ti  Ti4  1  0.62166450  0.74668850  0.02852600  1
  Ti  Ti5  1  0.74806150  0.74537450  0.01921100  1
  Ti  Ti6  1  0.24806150  0.75462550  0.51921100  1
  Ti  Ti7  1  0.12166450  0.75331150  0.52852600  1
  Ti  Ti8  1  0.37920800  0.24811300  0.02389400  1
  Ti  Ti9  1  0.37920800  0.75188700  0.52389400  1
  Ti  Ti10  1  0.12166450  0.24668850  0.02852600  1
  Ti  Ti11  1  0.24806150  0.24537450  0.01921100  1
  Bi  Bi12  1  0.54024050  0.75962850  0.46038400  1
  Bi  Bi13  1  0.96331550  0.25126950  0.96798500  1
  Bi  Bi14  1  0.54024050  0.24037150  0.96038400  1
  Bi  Bi15  1  0.81699800  0.75492200  0.47499800  1
  Bi  Bi16  1  0.96331550  0.74873050  0.46798500  1
  Bi  Bi17  1  0.68376550  0.75359750  0.48215600  1
  Bi  Bi18  1  0.68376550  0.24640250  0.98215600  1
  Bi  Bi19  1  0.81699800  0.24507800  0.97499800  1
  Bi  Bi20  1  0.04024050  0.25962850  0.46038400  1
  Bi  Bi21  1  0.46331550  0.75126950  0.96798500  1
  Bi  Bi22  1  0.04024050  0.74037150  0.96038400  1
  Bi  Bi23  1  0.31699800  0.25492200  0.47499800  1
  Bi  Bi24  1  0.46331550  0.24873050  0.46798500  1
  Bi  Bi25  1  0.18376550  0.25359750  0.48215600  1
  Bi  Bi26  1  0.18376550  0.74640250  0.98215600  1
  Bi  Bi27  1  0.31699800  0.74507800  0.97499800  1
  O  O28  1  0.73746000  0.96271400  0.76832900  1
  O  O29  1  0.93113950  0.70525950  0.02947900  1
  O  O30  1  0.62420300  0.44779500  0.84746800  1
  O  O31  1  0.68992750  0.67099250  0.07167400  1
  O  O32  1  0.50062250  0.99836350  0.73706800  1
  O  O33  1  0.80541600  0.17980500  0.56626600  1
  O  O34  1  0.68992750  0.32900750  0.57167400  1
  O  O35  1  0.63915600  0.03335400  0.26915800  1
  O  O36  1  0.80541600  0.82019500  0.06626600  1
  O  O37  1  0.56919800  0.80839900  0.03949800  1
  O  O38  1  0.86083150  0.48120950  0.26921600  1
  O  O39  1  0.93113950  0.29474050  0.52947900  1
  O  O40  1  0.75618900  0.45440600  0.84614100  1
  O  O41  1  0.87232050  0.96410750  0.32286500  1
  O  O42  1  0.62420300  0.55220500  0.34746800  1
  O  O43  1  0.50088100  0.49820500  0.73338300  1
  O  O44  1  0.86083150  0.51879050  0.76921600  1
  O  O45  1  0.56919800  0.19160100  0.53949800  1
  O  O46  1  0.75618900  0.54559400  0.34614100  1
  O  O47  1  0.50062250  0.00163650  0.23706800  1
  O  O48  1  0.63915600  0.96664600  0.76915800  1
  O  O49  1  0.50088100  0.50179500  0.23338300  1
  O  O50  1  0.87232050  0.03589250  0.82286500  1
  O  O51  1  0.73746000  0.03728600  0.26832900  1
  O  O52  1  0.23746000  0.46271400  0.76832900  1
  O  O53  1  0.43113950  0.20525950  0.02947900  1
  O  O54  1  0.12420300  0.94779500  0.84746800  1
  O  O55  1  0.18992750  0.17099250  0.07167400  1
  O  O56  1  0.00062250  0.49836350  0.73706800  1
  O  O57  1  0.30541600  0.67980500  0.56626600  1
  O  O58  1  0.18992750  0.82900750  0.57167400  1
  O  O59  1  0.13915600  0.53335400  0.26915800  1
  O  O60  1  0.30541600  0.32019500  0.06626600  1
  O  O61  1  0.06919800  0.30839900  0.03949800  1
  O  O62  1  0.36083150  0.98120950  0.26921600  1
  O  O63  1  0.43113950  0.79474050  0.52947900  1
  O  O64  1  0.25618900  0.95440600  0.84614100  1
  O  O65  1  0.37232050  0.46410750  0.32286500  1
  O  O66  1  0.12420300  0.05220500  0.34746800  1
  O  O67  1  0.00088100  0.99820500  0.73338300  1
  O  O68  1  0.36083150  0.01879050  0.76921600  1
  O  O69  1  0.06919800  0.69160100  0.53949800  1
  O  O70  1  0.25618900  0.04559400  0.34614100  1
  O  O71  1  0.00062250  0.50163650  0.23706800  1
  O  O72  1  0.13915600  0.46664600  0.76915800  1
  O  O73  1  0.00088100  0.00179500  0.23338300  1
  O  O74  1  0.37232050  0.53589250  0.82286500  1
  O  O75  1  0.23746000  0.53728600  0.26832900  1
