# generated using pymatgen
data_RbU2SbS8
_symmetry_space_group_name_H-M   'P 1'
_cell_length_a   7.95664400
_cell_length_b   11.17955000
_cell_length_c   7.82768948
_cell_angle_alpha   90.00000000
_cell_angle_beta   104.95580215
_cell_angle_gamma   90.00000000
_symmetry_Int_Tables_number   1
_chemical_formula_structural   RbU2SbS8
_chemical_formula_sum   'Rb2 U4 Sb2 S16'
_cell_volume   672.69971759
_cell_formula_units_Z   2
loop_
 _symmetry_equiv_pos_site_id
 _symmetry_equiv_pos_as_xyz
  1  'x, y, z'
loop_
 _atom_site_type_symbol
 _atom_site_label
 _atom_site_symmetry_multiplicity
 _atom_site_fract_x
 _atom_site_fract_y
 _atom_site_fract_z
 _atom_site_occupancy
  Rb  Rb0  1  0.45856700  0.00000000  0.83982800  1
  Rb  Rb1  1  0.95856700  0.50000000  0.83982800  1
  U  U2  1  0.32674200  0.24975200  0.30663800  1
  U  U3  1  0.32674200  0.75024800  0.30663800  1
  U  U4  1  0.82674200  0.74975200  0.30663800  1
  U  U5  1  0.82674200  0.25024800  0.30663800  1
  Sb  Sb6  1  0.00815500  0.00000000  0.03271200  1
  Sb  Sb7  1  0.50815500  0.50000000  0.03271200  1
  S  S8  1  0.63406550  0.14981150  0.52446400  1
  S  S9  1  0.63256500  0.66483200  0.53319600  1
  S  S10  1  0.51430800  0.74128000  0.06159000  1
  S  S11  1  0.30389000  0.00000000  0.23174400  1
  S  S12  1  0.63256500  0.33516800  0.53319600  1
  S  S13  1  0.81072800  0.00000000  0.22863800  1
  S  S14  1  0.63406550  0.85018850  0.52446400  1
  S  S15  1  0.51430800  0.25872000  0.06159000  1
  S  S16  1  0.13406550  0.64981150  0.52446400  1
  S  S17  1  0.13256500  0.16483200  0.53319600  1
  S  S18  1  0.01430800  0.24128000  0.06159000  1
  S  S19  1  0.80389000  0.50000000  0.23174400  1
  S  S20  1  0.13256500  0.83516800  0.53319600  1
  S  S21  1  0.31072800  0.50000000  0.22863800  1
  S  S22  1  0.13406550  0.35018850  0.52446400  1
  S  S23  1  0.01430800  0.75872000  0.06159000  1
