# generated using pymatgen
data_SiO2
_symmetry_space_group_name_H-M   'P 1'
_cell_length_a   10.39272000
_cell_length_b   10.39272000
_cell_length_c   34.79730400
_cell_angle_alpha   90.00000000
_cell_angle_beta   90.00000000
_cell_angle_gamma   90.00000000
_symmetry_Int_Tables_number   1
_chemical_formula_structural   SiO2
_chemical_formula_sum   'Si64 O128'
_cell_volume   3758.40909788
_cell_formula_units_Z   64
loop_
 _symmetry_equiv_pos_site_id
 _symmetry_equiv_pos_as_xyz
  1  'x, y, z'
loop_
 _atom_site_type_symbol
 _atom_site_label
 _atom_site_symmetry_multiplicity
 _atom_site_fract_x
 _atom_site_fract_y
 _atom_site_fract_z
 _atom_site_occupancy
  Si  Si0  1  0.50000000  0.34677400  0.34054200  1
  Si  Si1  1  0.50000000  0.65322600  0.34054200  1
  Si  Si2  1  0.75000000  0.78164800  0.37500000  1
  Si  Si3  1  0.25000000  0.78164800  0.37500000  1
  Si  Si4  1  0.15322600  0.50000000  0.09054200  1
  Si  Si5  1  0.50000000  0.78565900  0.25673200  1
  Si  Si6  1  0.71434100  0.00000000  0.24326800  1
  Si  Si7  1  0.50000000  0.15126050  0.07036950  1
  Si  Si8  1  0.00000000  0.78565900  0.49326800  1
  Si  Si9  1  0.71434100  0.50000000  0.00673200  1
  Si  Si10  1  0.71835200  0.75000000  0.12500000  1
  Si  Si11  1  0.50000000  0.84873950  0.07036950  1
  Si  Si12  1  0.65126050  0.00000000  0.42963050  1
  Si  Si13  1  0.28565900  0.50000000  0.00673200  1
  Si  Si14  1  0.00000000  0.65322600  0.40945800  1
  Si  Si15  1  0.84677400  0.00000000  0.15945800  1
  Si  Si16  1  0.75000000  0.21835200  0.37500000  1
  Si  Si17  1  0.50000000  0.65126050  0.17963050  1
  Si  Si18  1  0.84677400  0.50000000  0.09054200  1
  Si  Si19  1  0.15126050  0.00000000  0.32036950  1
  Si  Si20  1  0.15322600  0.00000000  0.15945800  1
  Si  Si21  1  0.00000000  0.21434100  0.49326800  1
  Si  Si22  1  0.34873950  0.00000000  0.42963050  1
  Si  Si23  1  0.00000000  0.34677400  0.40945800  1
  Si  Si24  1  0.50000000  0.21434100  0.25673200  1
  Si  Si25  1  0.28565900  0.00000000  0.24326800  1
  Si  Si26  1  0.50000000  0.34873950  0.17963050  1
  Si  Si27  1  0.28164800  0.25000000  0.12500000  1
  Si  Si28  1  0.71835200  0.25000000  0.12500000  1
  Si  Si29  1  0.25000000  0.21835200  0.37500000  1
  Si  Si30  1  0.28164800  0.75000000  0.12500000  1
  Si  Si31  1  0.84873950  0.00000000  0.32036950  1
  Si  Si32  1  0.00000000  0.84677400  0.84054200  1
  Si  Si33  1  0.00000000  0.15322600  0.84054200  1
  Si  Si34  1  0.25000000  0.28164800  0.87500000  1
  Si  Si35  1  0.75000000  0.28164800  0.87500000  1
  Si  Si36  1  0.65322600  0.00000000  0.59054200  1
  Si  Si37  1  0.00000000  0.28565900  0.75673200  1
  Si  Si38  1  0.21434100  0.50000000  0.74326800  1
  Si  Si39  1  0.00000000  0.65126050  0.57036950  1
  Si  Si40  1  0.50000000  0.28565900  0.99326800  1
  Si  Si41  1  0.21434100  0.00000000  0.50673200  1
  Si  Si42  1  0.21835200  0.25000000  0.62500000  1
  Si  Si43  1  0.00000000  0.34873950  0.57036950  1
  Si  Si44  1  0.15126050  0.50000000  0.92963050  1
  Si  Si45  1  0.78565900  0.00000000  0.50673200  1
  Si  Si46  1  0.50000000  0.15322600  0.90945800  1
  Si  Si47  1  0.34677400  0.50000000  0.65945800  1
  Si  Si48  1  0.25000000  0.71835200  0.87500000  1
  Si  Si49  1  0.00000000  0.15126050  0.67963050  1
  Si  Si50  1  0.34677400  0.00000000  0.59054200  1
  Si  Si51  1  0.65126050  0.50000000  0.82036950  1
  Si  Si52  1  0.65322600  0.50000000  0.65945800  1
  Si  Si53  1  0.50000000  0.71434100  0.99326800  1
  Si  Si54  1  0.84873950  0.50000000  0.92963050  1
  Si  Si55  1  0.50000000  0.84677400  0.90945800  1
  Si  Si56  1  0.00000000  0.71434100  0.75673200  1
  Si  Si57  1  0.78565900  0.50000000  0.74326800  1
  Si  Si58  1  0.00000000  0.84873950  0.67963050  1
  Si  Si59  1  0.78164800  0.75000000  0.62500000  1
  Si  Si60  1  0.21835200  0.75000000  0.62500000  1
  Si  Si61  1  0.75000000  0.71835200  0.87500000  1
  Si  Si62  1  0.78164800  0.25000000  0.62500000  1
  Si  Si63  1  0.34873950  0.50000000  0.82036950  1
  O  O64  1  0.37170850  0.28062350  0.16220050  1
  O  O65  1  0.62746050  0.30892250  0.36512950  1
  O  O66  1  0.28062350  0.87170850  0.41220050  1
  O  O67  1  0.37191950  0.87191950  0.25000000  1
  O  O68  1  0.62829150  0.21937650  0.08779950  1
  O  O69  1  0.87253950  0.69107750  0.38487050  1
  O  O70  1  0.28062350  0.12829150  0.41220050  1
  O  O71  1  0.50000000  0.00000000  0.41826400  1
  O  O72  1  0.37191950  0.62808050  0.00000000  1
  O  O73  1  0.50000000  0.72866450  0.29982750  1
  O  O74  1  0.50000000  0.50000000  0.33259900  1
  O  O75  1  0.50000000  0.27133550  0.29982750  1
  O  O76  1  0.22866450  0.00000000  0.20017250  1
  O  O77  1  0.83295050  0.00000000  0.27391050  1
  O  O78  1  0.50000000  0.16704950  0.02391050  1
  O  O79  1  0.62808050  0.62808050  0.00000000  1
  O  O80  1  0.62829150  0.28062350  0.16220050  1
  O  O81  1  0.00000000  0.50000000  0.41740100  1
  O  O82  1  0.00000000  0.72866450  0.45017250  1
  O  O83  1  0.78062350  0.87170850  0.33779950  1
  O  O84  1  0.37170850  0.21937650  0.08779950  1
  O  O85  1  0.77133550  0.00000000  0.20017250  1
  O  O86  1  0.62808050  0.87191950  0.25000000  1
  O  O87  1  0.37170850  0.71937650  0.16220050  1
  O  O88  1  0.19107750  0.37253950  0.11512950  1
  O  O89  1  0.62829150  0.78062350  0.08779950  1
  O  O90  1  0.19107750  0.12746050  0.13487050  1
  O  O91  1  0.00000000  0.00000000  0.16740100  1
  O  O92  1  0.62808050  0.12808050  0.25000000  1
  O  O93  1  0.50000000  0.83295050  0.02391050  1
  O  O94  1  0.87253950  0.30892250  0.38487050  1
  O  O95  1  0.22866450  0.50000000  0.04982750  1
  O  O96  1  0.77133550  0.50000000  0.04982750  1
  O  O97  1  0.12746050  0.69107750  0.38487050  1
  O  O98  1  0.50000000  0.66704950  0.22608950  1
  O  O99  1  0.00000000  0.50000000  0.08259900  1
  O  O100  1  0.37170850  0.78062350  0.08779950  1
  O  O101  1  0.00000000  0.00000000  0.33173600  1
  O  O102  1  0.80892250  0.87253950  0.13487050  1
  O  O103  1  0.80892250  0.37253950  0.11512950  1
  O  O104  1  0.16704950  0.00000000  0.27391050  1
  O  O105  1  0.37253950  0.69107750  0.36512950  1
  O  O106  1  0.12746050  0.30892250  0.38487050  1
  O  O107  1  0.80892250  0.12746050  0.13487050  1
  O  O108  1  0.62746050  0.69107750  0.36512950  1
  O  O109  1  0.87191950  0.87191950  0.50000000  1
  O  O110  1  0.21937650  0.87170850  0.33779950  1
  O  O111  1  0.19107750  0.62746050  0.11512950  1
  O  O112  1  0.37253950  0.30892250  0.36512950  1
  O  O113  1  0.80892250  0.62746050  0.11512950  1
  O  O114  1  0.62808050  0.37191950  0.00000000  1
  O  O115  1  0.78062350  0.12829150  0.33779950  1
  O  O116  1  0.66704950  0.00000000  0.47608950  1
  O  O117  1  0.00000000  0.27133550  0.45017250  1
  O  O118  1  0.50000000  0.33295050  0.22608950  1
  O  O119  1  0.50000000  0.00000000  0.08173600  1
  O  O120  1  0.71937650  0.87170850  0.41220050  1
  O  O121  1  0.19107750  0.87253950  0.13487050  1
  O  O122  1  0.37191950  0.12808050  0.25000000  1
  O  O123  1  0.33295050  0.00000000  0.47608950  1
  O  O124  1  0.71937650  0.12829150  0.41220050  1
  O  O125  1  0.21937650  0.12829150  0.33779950  1
  O  O126  1  0.62829150  0.71937650  0.16220050  1
  O  O127  1  0.50000000  0.50000000  0.16826400  1
  O  O128  1  0.87170850  0.78062350  0.66220050  1
  O  O129  1  0.12746050  0.80892250  0.86512950  1
  O  O130  1  0.78062350  0.37170850  0.91220050  1
  O  O131  1  0.87191950  0.37191950  0.75000000  1
  O  O132  1  0.12829150  0.71937650  0.58779950  1
  O  O133  1  0.37253950  0.19107750  0.88487050  1
  O  O134  1  0.78062350  0.62829150  0.91220050  1
  O  O135  1  0.00000000  0.50000000  0.91826400  1
  O  O136  1  0.87191950  0.12808050  0.50000000  1
  O  O137  1  0.00000000  0.22866450  0.79982750  1
  O  O138  1  0.00000000  0.00000000  0.83259900  1
  O  O139  1  0.00000000  0.77133550  0.79982750  1
  O  O140  1  0.72866450  0.50000000  0.70017250  1
  O  O141  1  0.33295050  0.50000000  0.77391050  1
  O  O142  1  0.00000000  0.66704950  0.52391050  1
  O  O143  1  0.12808050  0.12808050  0.50000000  1
  O  O144  1  0.12829150  0.78062350  0.66220050  1
  O  O145  1  0.50000000  0.00000000  0.91740100  1
  O  O146  1  0.50000000  0.22866450  0.95017250  1
  O  O147  1  0.28062350  0.37170850  0.83779950  1
  O  O148  1  0.87170850  0.71937650  0.58779950  1
  O  O149  1  0.27133550  0.50000000  0.70017250  1
  O  O150  1  0.12808050  0.37191950  0.75000000  1
  O  O151  1  0.87170850  0.21937650  0.66220050  1
  O  O152  1  0.69107750  0.87253950  0.61512950  1
  O  O153  1  0.12829150  0.28062350  0.58779950  1
  O  O154  1  0.69107750  0.62746050  0.63487050  1
  O  O155  1  0.50000000  0.50000000  0.66740100  1
  O  O156  1  0.12808050  0.62808050  0.75000000  1
  O  O157  1  0.00000000  0.33295050  0.52391050  1
  O  O158  1  0.37253950  0.80892250  0.88487050  1
  O  O159  1  0.72866450  0.00000000  0.54982750  1
  O  O160  1  0.27133550  0.00000000  0.54982750  1
  O  O161  1  0.62746050  0.19107750  0.88487050  1
  O  O162  1  0.00000000  0.16704950  0.72608950  1
  O  O163  1  0.50000000  0.00000000  0.58259900  1
  O  O164  1  0.87170850  0.28062350  0.58779950  1
  O  O165  1  0.50000000  0.50000000  0.83173600  1
  O  O166  1  0.30892250  0.37253950  0.63487050  1
  O  O167  1  0.30892250  0.87253950  0.61512950  1
  O  O168  1  0.66704950  0.50000000  0.77391050  1
  O  O169  1  0.87253950  0.19107750  0.86512950  1
  O  O170  1  0.62746050  0.80892250  0.88487050  1
  O  O171  1  0.30892250  0.62746050  0.63487050  1
  O  O172  1  0.12746050  0.19107750  0.86512950  1
  O  O173  1  0.37191950  0.37191950  0.00000000  1
  O  O174  1  0.71937650  0.37170850  0.83779950  1
  O  O175  1  0.69107750  0.12746050  0.61512950  1
  O  O176  1  0.87253950  0.80892250  0.86512950  1
  O  O177  1  0.30892250  0.12746050  0.61512950  1
  O  O178  1  0.12808050  0.87191950  0.50000000  1
  O  O179  1  0.28062350  0.62829150  0.83779950  1
  O  O180  1  0.16704950  0.50000000  0.97608950  1
  O  O181  1  0.50000000  0.77133550  0.95017250  1
  O  O182  1  0.00000000  0.83295050  0.72608950  1
  O  O183  1  0.00000000  0.50000000  0.58173600  1
  O  O184  1  0.21937650  0.37170850  0.91220050  1
  O  O185  1  0.69107750  0.37253950  0.63487050  1
  O  O186  1  0.87191950  0.62808050  0.75000000  1
  O  O187  1  0.83295050  0.50000000  0.97608950  1
  O  O188  1  0.21937650  0.62829150  0.91220050  1
  O  O189  1  0.71937650  0.62829150  0.83779950  1
  O  O190  1  0.12829150  0.21937650  0.66220050  1
  O  O191  1  0.00000000  0.00000000  0.66826400  1
