# generated using pymatgen
data_Cs8Tl8O
_symmetry_space_group_name_H-M   'P 1'
_cell_length_a   9.18665998
_cell_length_b   9.18665998
_cell_length_c   32.76692687
_cell_angle_alpha   90.00000000
_cell_angle_beta   90.00000000
_cell_angle_gamma   120.00000000
_symmetry_Int_Tables_number   1
_chemical_formula_structural   Cs8Tl8O
_chemical_formula_sum   'Cs24 Tl24 O3'
_cell_volume   2394.86825957
_cell_formula_units_Z   3
loop_
 _symmetry_equiv_pos_site_id
 _symmetry_equiv_pos_as_xyz
  1  'x, y, z'
loop_
 _atom_site_type_symbol
 _atom_site_label
 _atom_site_symmetry_multiplicity
 _atom_site_fract_x
 _atom_site_fract_y
 _atom_site_fract_z
 _atom_site_occupancy
  Cs  Cs0  1  0.66666667  0.33333333  0.00476633  1
  Cs  Cs1  1  0.00000000  0.00000000  0.32856700  1
  Cs  Cs2  1  0.24682200  0.36318500  0.21515600  1
  Cs  Cs3  1  0.11636300  0.75317800  0.21515600  1
  Cs  Cs4  1  0.02985167  0.44969633  0.11817733  1
  Cs  Cs5  1  0.63681500  0.88363700  0.21515600  1
  Cs  Cs6  1  0.55030367  0.58015533  0.11817733  1
  Cs  Cs7  1  0.41984467  0.97014833  0.11817733  1
  Cs  Cs8  1  0.33333333  0.66666667  0.33809967  1
  Cs  Cs9  1  0.66666667  0.33333333  0.66190033  1
  Cs  Cs10  1  0.91348867  0.69651833  0.54848933  1
  Cs  Cs11  1  0.78302967  0.08651133  0.54848933  1
  Cs  Cs12  1  0.69651833  0.78302967  0.45151067  1
  Cs  Cs13  1  0.30348167  0.21697033  0.54848933  1
  Cs  Cs14  1  0.21697033  0.91348867  0.45151067  1
  Cs  Cs15  1  0.08651133  0.30348167  0.45151067  1
  Cs  Cs16  1  0.00000000  0.00000000  0.67143300  1
  Cs  Cs17  1  0.33333333  0.66666667  0.99523367  1
  Cs  Cs18  1  0.58015533  0.02985167  0.88182267  1
  Cs  Cs19  1  0.44969633  0.41984467  0.88182267  1
  Cs  Cs20  1  0.36318500  0.11636300  0.78484400  1
  Cs  Cs21  1  0.97014833  0.55030367  0.88182267  1
  Cs  Cs22  1  0.88363700  0.24682200  0.78484400  1
  Cs  Cs23  1  0.75317800  0.63681500  0.78484400  1
  Tl  Tl24  1  0.00000000  0.00000000  0.11919400  1
  Tl  Tl25  1  0.45814600  0.12253700  0.29370700  1
  Tl  Tl26  1  0.87746300  0.33560900  0.29370700  1
  Tl  Tl27  1  0.66439100  0.54185400  0.29370700  1
  Tl  Tl28  1  0.78920367  0.99772433  0.03962633  1
  Tl  Tl29  1  0.20852067  0.21079633  0.03962633  1
  Tl  Tl30  1  0.66666667  0.33333333  0.21413933  1
  Tl  Tl31  1  0.00227567  0.79147933  0.03962633  1
  Tl  Tl32  1  0.66666667  0.33333333  0.45252733  1
  Tl  Tl33  1  0.12481267  0.45587033  0.62704033  1
  Tl  Tl34  1  0.54412967  0.66894233  0.62704033  1
  Tl  Tl35  1  0.33105767  0.87518733  0.62704033  1
  Tl  Tl36  1  0.45587033  0.33105767  0.37295967  1
  Tl  Tl37  1  0.87518733  0.54412967  0.37295967  1
  Tl  Tl38  1  0.33333333  0.66666667  0.54747267  1
  Tl  Tl39  1  0.66894233  0.12481267  0.37295967  1
  Tl  Tl40  1  0.33333333  0.66666667  0.78586067  1
  Tl  Tl41  1  0.79147933  0.78920367  0.96037367  1
  Tl  Tl42  1  0.21079633  0.00227567  0.96037367  1
  Tl  Tl43  1  0.99772433  0.20852067  0.96037367  1
  Tl  Tl44  1  0.12253700  0.66439100  0.70629300  1
  Tl  Tl45  1  0.54185400  0.87746300  0.70629300  1
  Tl  Tl46  1  0.00000000  0.00000000  0.88080600  1
  Tl  Tl47  1  0.33560900  0.45814600  0.70629300  1
  O  O48  1  0.33333333  0.66666667  0.16666667  1
  O  O49  1  1.00000000  0.00000000  0.50000000  1
  O  O50  1  0.66666667  0.33333333  0.83333333  1
