# generated using pymatgen
data_BaNb2Bi2O9
_symmetry_space_group_name_H-M   'P 1'
_cell_length_a   5.72365200
_cell_length_b   25.47056400
_cell_length_c   5.76026500
_cell_angle_alpha   90.00000000
_cell_angle_beta   90.00000000
_cell_angle_gamma   90.00000000
_symmetry_Int_Tables_number   1
_chemical_formula_structural   BaNb2Bi2O9
_chemical_formula_sum   'Ba4 Nb8 Bi8 O36'
_cell_volume   839.75818571
_cell_formula_units_Z   4
loop_
 _symmetry_equiv_pos_site_id
 _symmetry_equiv_pos_as_xyz
  1  'x, y, z'
loop_
 _atom_site_type_symbol
 _atom_site_label
 _atom_site_symmetry_multiplicity
 _atom_site_fract_x
 _atom_site_fract_y
 _atom_site_fract_z
 _atom_site_occupancy
  Ba  Ba0  1  0.75171400  0.00000000  0.46479200  1
  Ba  Ba1  1  0.24828600  0.00000000  0.96479200  1
  Ba  Ba2  1  0.25171400  0.50000000  0.46479200  1
  Ba  Ba3  1  0.74828600  0.50000000  0.96479200  1
  Nb  Nb4  1  0.25170700  0.91455400  0.47713900  1
  Nb  Nb5  1  0.74829300  0.91455400  0.97713900  1
  Nb  Nb6  1  0.75170700  0.58544600  0.47713900  1
  Nb  Nb7  1  0.24829300  0.58544600  0.97713900  1
  Nb  Nb8  1  0.75170700  0.41455400  0.47713900  1
  Nb  Nb9  1  0.24829300  0.41455400  0.97713900  1
  Nb  Nb10  1  0.25170700  0.08544600  0.47713900  1
  Nb  Nb11  1  0.74829300  0.08544600  0.97713900  1
  Bi  Bi12  1  0.27649800  0.79858500  0.07279400  1
  Bi  Bi13  1  0.72350200  0.79858500  0.57279400  1
  Bi  Bi14  1  0.22350200  0.70141500  0.57279400  1
  Bi  Bi15  1  0.77649800  0.70141500  0.07279400  1
  Bi  Bi16  1  0.77649800  0.29858500  0.07279400  1
  Bi  Bi17  1  0.22350200  0.29858500  0.57279400  1
  Bi  Bi18  1  0.72350200  0.20141500  0.57279400  1
  Bi  Bi19  1  0.27649800  0.20141500  0.07279400  1
  O  O20  1  0.48526550  0.74849250  0.76848000  1
  O  O21  1  0.00328350  0.57524550  0.20090200  1
  O  O22  1  0.79439900  0.65896700  0.43348600  1
  O  O23  1  0.99671650  0.57524550  0.70090200  1
  O  O24  1  0.00250300  0.91689200  0.19709000  1
  O  O25  1  0.50250300  0.58310800  0.19709000  1
  O  O26  1  0.20560100  0.65896700  0.93348600  1
  O  O27  1  0.70560100  0.84103300  0.93348600  1
  O  O28  1  0.99749700  0.91689200  0.69709000  1
  O  O29  1  0.49749700  0.58310800  0.69709000  1
  O  O30  1  0.50328350  0.92475450  0.20090200  1
  O  O31  1  0.49671650  0.92475450  0.70090200  1
  O  O32  1  0.01473450  0.75150750  0.26848000  1
  O  O33  1  0.98526550  0.75150750  0.76848000  1
  O  O34  1  0.51473450  0.74849250  0.26848000  1
  O  O35  1  0.29439900  0.84103300  0.43348600  1
  O  O36  1  0.76494700  0.00000000  0.94742600  1
  O  O37  1  0.23505300  0.00000000  0.44742600  1
  O  O38  1  0.98526550  0.24849250  0.76848000  1
  O  O39  1  0.50328350  0.07524550  0.20090200  1
  O  O40  1  0.29439900  0.15896700  0.43348600  1
  O  O41  1  0.49671650  0.07524550  0.70090200  1
  O  O42  1  0.50250300  0.41689200  0.19709000  1
  O  O43  1  0.00250300  0.08310800  0.19709000  1
  O  O44  1  0.70560100  0.15896700  0.93348600  1
  O  O45  1  0.20560100  0.34103300  0.93348600  1
  O  O46  1  0.49749700  0.41689200  0.69709000  1
  O  O47  1  0.99749700  0.08310800  0.69709000  1
  O  O48  1  0.00328350  0.42475450  0.20090200  1
  O  O49  1  0.99671650  0.42475450  0.70090200  1
  O  O50  1  0.51473450  0.25150750  0.26848000  1
  O  O51  1  0.48526550  0.25150750  0.76848000  1
  O  O52  1  0.01473450  0.24849250  0.26848000  1
  O  O53  1  0.79439900  0.34103300  0.43348600  1
  O  O54  1  0.26494700  0.50000000  0.94742600  1
  O  O55  1  0.73505300  0.50000000  0.44742600  1
