# generated using pymatgen
data_SiO2
_symmetry_space_group_name_H-M   'P 1'
_cell_length_a   7.85677600
_cell_length_b   7.85677600
_cell_length_c   27.58516800
_cell_angle_alpha   90.00000000
_cell_angle_beta   90.00000000
_cell_angle_gamma   90.00000000
_symmetry_Int_Tables_number   1
_chemical_formula_structural   SiO2
_chemical_formula_sum   'Si32 O64'
_cell_volume   1702.80288007
_cell_formula_units_Z   32
loop_
 _symmetry_equiv_pos_site_id
 _symmetry_equiv_pos_as_xyz
  1  'x, y, z'
loop_
 _atom_site_type_symbol
 _atom_site_label
 _atom_site_symmetry_multiplicity
 _atom_site_fract_x
 _atom_site_fract_y
 _atom_site_fract_z
 _atom_site_occupancy
  Si  Si0  1  0.00000000  0.70347500  0.18187000  1
  Si  Si1  1  0.79652500  0.50000000  0.31813000  1
  Si  Si2  1  0.70347500  0.50000000  0.43187000  1
  Si  Si3  1  0.00000000  0.20347500  0.06813000  1
  Si  Si4  1  0.69241600  0.69241600  0.00000000  1
  Si  Si5  1  0.30758400  0.19241600  0.25000000  1
  Si  Si6  1  0.20347500  0.50000000  0.31813000  1
  Si  Si7  1  0.30758400  0.30758400  0.00000000  1
  Si  Si8  1  0.69241600  0.30758400  0.00000000  1
  Si  Si9  1  0.00000000  0.79652500  0.06813000  1
  Si  Si10  1  0.30758400  0.80758400  0.25000000  1
  Si  Si11  1  0.30758400  0.69241600  0.00000000  1
  Si  Si12  1  0.00000000  0.29652500  0.18187000  1
  Si  Si13  1  0.69241600  0.80758400  0.25000000  1
  Si  Si14  1  0.69241600  0.19241600  0.25000000  1
  Si  Si15  1  0.29652500  0.50000000  0.43187000  1
  Si  Si16  1  0.50000000  0.20347500  0.68187000  1
  Si  Si17  1  0.29652500  0.00000000  0.81813000  1
  Si  Si18  1  0.20347500  0.00000000  0.93187000  1
  Si  Si19  1  0.50000000  0.70347500  0.56813000  1
  Si  Si20  1  0.19241600  0.19241600  0.50000000  1
  Si  Si21  1  0.80758400  0.69241600  0.75000000  1
  Si  Si22  1  0.70347500  0.00000000  0.81813000  1
  Si  Si23  1  0.80758400  0.80758400  0.50000000  1
  Si  Si24  1  0.19241600  0.80758400  0.50000000  1
  Si  Si25  1  0.50000000  0.29652500  0.56813000  1
  Si  Si26  1  0.80758400  0.30758400  0.75000000  1
  Si  Si27  1  0.80758400  0.19241600  0.50000000  1
  Si  Si28  1  0.50000000  0.79652500  0.68187000  1
  Si  Si29  1  0.19241600  0.30758400  0.75000000  1
  Si  Si30  1  0.19241600  0.69241600  0.75000000  1
  Si  Si31  1  0.79652500  0.00000000  0.93187000  1
  O  O32  1  0.71960250  0.67137250  0.29355750  1
  O  O33  1  0.28039750  0.32862750  0.29355750  1
  O  O34  1  0.21960250  0.32862750  0.45644250  1
  O  O35  1  0.71529050  0.00000000  0.27171750  1
  O  O36  1  0.21529050  0.00000000  0.47828250  1
  O  O37  1  0.21960250  0.67137250  0.45644250  1
  O  O38  1  0.00000000  0.50000000  0.31055500  1
  O  O39  1  0.17137250  0.71960250  0.04355750  1
  O  O40  1  0.00000000  0.00000000  0.06055500  1
  O  O41  1  0.00000000  0.50000000  0.18944500  1
  O  O42  1  0.82862750  0.71960250  0.04355750  1
  O  O43  1  0.78039750  0.32862750  0.45644250  1
  O  O44  1  0.28039750  0.67137250  0.29355750  1
  O  O45  1  0.28470950  0.00000000  0.27171750  1
  O  O46  1  0.82862750  0.78039750  0.20644250  1
  O  O47  1  0.50000000  0.21529050  0.22828250  1
  O  O48  1  0.50000000  0.78470950  0.22828250  1
  O  O49  1  0.82862750  0.21960250  0.20644250  1
  O  O50  1  0.82862750  0.28039750  0.04355750  1
  O  O51  1  0.50000000  0.28470950  0.02171750  1
  O  O52  1  0.75000000  0.50000000  0.37500000  1
  O  O53  1  0.78470950  0.00000000  0.47828250  1
  O  O54  1  0.78039750  0.67137250  0.45644250  1
  O  O55  1  0.71960250  0.32862750  0.29355750  1
  O  O56  1  0.50000000  0.71529050  0.02171750  1
  O  O57  1  0.50000000  0.50000000  0.43944500  1
  O  O58  1  0.17137250  0.28039750  0.04355750  1
  O  O59  1  0.00000000  0.75000000  0.12500000  1
  O  O60  1  0.17137250  0.21960250  0.20644250  1
  O  O61  1  0.25000000  0.50000000  0.37500000  1
  O  O62  1  0.00000000  0.25000000  0.12500000  1
  O  O63  1  0.17137250  0.78039750  0.20644250  1
  O  O64  1  0.21960250  0.17137250  0.79355750  1
  O  O65  1  0.78039750  0.82862750  0.79355750  1
  O  O66  1  0.71960250  0.82862750  0.95644250  1
  O  O67  1  0.21529050  0.50000000  0.77171750  1
  O  O68  1  0.71529050  0.50000000  0.97828250  1
  O  O69  1  0.71960250  0.17137250  0.95644250  1
  O  O70  1  0.50000000  0.00000000  0.81055500  1
  O  O71  1  0.67137250  0.21960250  0.54355750  1
  O  O72  1  0.50000000  0.50000000  0.56055500  1
  O  O73  1  0.50000000  0.00000000  0.68944500  1
  O  O74  1  0.32862750  0.21960250  0.54355750  1
  O  O75  1  0.28039750  0.82862750  0.95644250  1
  O  O76  1  0.78039750  0.17137250  0.79355750  1
  O  O77  1  0.78470950  0.50000000  0.77171750  1
  O  O78  1  0.32862750  0.28039750  0.70644250  1
  O  O79  1  0.00000000  0.71529050  0.72828250  1
  O  O80  1  0.00000000  0.28470950  0.72828250  1
  O  O81  1  0.32862750  0.71960250  0.70644250  1
  O  O82  1  0.32862750  0.78039750  0.54355750  1
  O  O83  1  0.00000000  0.78470950  0.52171750  1
  O  O84  1  0.25000000  0.00000000  0.87500000  1
  O  O85  1  0.28470950  0.50000000  0.97828250  1
  O  O86  1  0.28039750  0.17137250  0.95644250  1
  O  O87  1  0.21960250  0.82862750  0.79355750  1
  O  O88  1  0.00000000  0.21529050  0.52171750  1
  O  O89  1  0.00000000  0.00000000  0.93944500  1
  O  O90  1  0.67137250  0.78039750  0.54355750  1
  O  O91  1  0.50000000  0.25000000  0.62500000  1
  O  O92  1  0.67137250  0.71960250  0.70644250  1
  O  O93  1  0.75000000  0.00000000  0.87500000  1
  O  O94  1  0.50000000  0.75000000  0.62500000  1
  O  O95  1  0.67137250  0.28039750  0.70644250  1
