# generated using pymatgen
data_Mg2SiO4
_symmetry_space_group_name_H-M   'P 1'
_cell_length_a   5.85236200
_cell_length_b   8.95238000
_cell_length_c   11.59365200
_cell_angle_alpha   90.00000000
_cell_angle_beta   90.00000000
_cell_angle_gamma   90.00000000
_symmetry_Int_Tables_number   1
_chemical_formula_structural   Mg2SiO4
_chemical_formula_sum   'Mg16 Si8 O32'
_cell_volume   607.42120683
_cell_formula_units_Z   8
loop_
 _symmetry_equiv_pos_site_id
 _symmetry_equiv_pos_as_xyz
  1  'x, y, z'
loop_
 _atom_site_type_symbol
 _atom_site_label
 _atom_site_symmetry_multiplicity
 _atom_site_fract_x
 _atom_site_fract_y
 _atom_site_fract_z
 _atom_site_occupancy
  Mg  Mg0  1  0.50000000  0.00000000  0.00000000  1
  Mg  Mg1  1  0.00000000  0.50000000  0.00000000  1
  Mg  Mg2  1  0.50000000  0.44443600  0.25000000  1
  Mg  Mg3  1  0.50000000  0.55556400  0.75000000  1
  Mg  Mg4  1  0.75000000  0.75000000  0.88201600  1
  Mg  Mg5  1  0.75000000  0.25000000  0.11798400  1
  Mg  Mg6  1  0.25000000  0.25000000  0.11798400  1
  Mg  Mg7  1  0.25000000  0.75000000  0.88201600  1
  Mg  Mg8  1  0.00000000  0.50000000  0.50000000  1
  Mg  Mg9  1  0.50000000  0.00000000  0.50000000  1
  Mg  Mg10  1  0.00000000  0.94443600  0.75000000  1
  Mg  Mg11  1  0.00000000  0.05556400  0.25000000  1
  Mg  Mg12  1  0.25000000  0.25000000  0.38201600  1
  Mg  Mg13  1  0.25000000  0.75000000  0.61798400  1
  Mg  Mg14  1  0.75000000  0.75000000  0.61798400  1
  Mg  Mg15  1  0.75000000  0.25000000  0.38201600  1
  Si  Si16  1  0.50000000  0.62607850  0.11001850  1
  Si  Si17  1  0.50000000  0.37392150  0.88998150  1
  Si  Si18  1  0.00000000  0.12607850  0.88998150  1
  Si  Si19  1  0.00000000  0.87392150  0.11001850  1
  Si  Si20  1  0.00000000  0.12607850  0.61001850  1
  Si  Si21  1  0.00000000  0.87392150  0.38998150  1
  Si  Si22  1  0.50000000  0.62607850  0.38998150  1
  Si  Si23  1  0.50000000  0.37392150  0.61001850  1
  O  O24  1  0.28301200  0.49643450  0.61516350  1
  O  O25  1  0.28301200  0.50356550  0.38483650  1
  O  O26  1  0.71698800  0.49643450  0.88483650  1
  O  O27  1  0.71698800  0.50356550  0.11516350  1
  O  O28  1  0.71698800  0.50356550  0.38483650  1
  O  O29  1  0.71698800  0.49643450  0.61516350  1
  O  O30  1  0.28301200  0.50356550  0.11516350  1
  O  O31  1  0.28301200  0.49643450  0.88483650  1
  O  O32  1  0.00000000  0.74449600  0.00918000  1
  O  O33  1  0.00000000  0.25550400  0.99082000  1
  O  O34  1  0.50000000  0.24449600  0.99082000  1
  O  O35  1  0.50000000  0.75550400  0.00918000  1
  O  O36  1  0.00000000  0.73593800  0.75000000  1
  O  O37  1  0.00000000  0.26406200  0.25000000  1
  O  O38  1  0.50000000  0.68925500  0.25000000  1
  O  O39  1  0.50000000  0.31074500  0.75000000  1
  O  O40  1  0.78301200  0.99643450  0.11516350  1
  O  O41  1  0.78301200  0.00356550  0.88483650  1
  O  O42  1  0.21698800  0.99643450  0.38483650  1
  O  O43  1  0.21698800  0.00356550  0.61516350  1
  O  O44  1  0.21698800  0.00356550  0.88483650  1
  O  O45  1  0.21698800  0.99643450  0.11516350  1
  O  O46  1  0.78301200  0.00356550  0.61516350  1
  O  O47  1  0.78301200  0.99643450  0.38483650  1
  O  O48  1  0.50000000  0.24449600  0.50918000  1
  O  O49  1  0.50000000  0.75550400  0.49082000  1
  O  O50  1  0.00000000  0.74449600  0.49082000  1
  O  O51  1  0.00000000  0.25550400  0.50918000  1
  O  O52  1  0.50000000  0.23593800  0.25000000  1
  O  O53  1  0.50000000  0.76406200  0.75000000  1
  O  O54  1  0.00000000  0.18925500  0.75000000  1
  O  O55  1  0.00000000  0.81074500  0.25000000  1
