# generated using pymatgen
data_MnCoH18(CN2)6
_symmetry_space_group_name_H-M   'P 1'
_cell_length_a   11.09919873
_cell_length_b   11.09919873
_cell_length_c   11.08824020
_cell_angle_alpha   90.00000000
_cell_angle_beta   90.00000000
_cell_angle_gamma   120.00000000
_symmetry_Int_Tables_number   1
_chemical_formula_structural   MnCoH18(CN2)6
_chemical_formula_sum   'Mn3 Co3 H54 C18 N36'
_cell_volume   1182.97757505
_cell_formula_units_Z   3
loop_
 _symmetry_equiv_pos_site_id
 _symmetry_equiv_pos_as_xyz
  1  'x, y, z'
loop_
 _atom_site_type_symbol
 _atom_site_label
 _atom_site_symmetry_multiplicity
 _atom_site_fract_x
 _atom_site_fract_y
 _atom_site_fract_z
 _atom_site_occupancy
  Mn  Mn0  1  0.00000000  0.00000000  0.50000000  1
  Mn  Mn1  1  0.66666667  0.33333333  0.83333333  1
  Mn  Mn2  1  0.33333333  0.66666667  0.16666667  1
  Co  Co3  1  0.00000000  0.00000000  0.00000000  1
  Co  Co4  1  0.66666667  0.33333333  0.33333333  1
  Co  Co5  1  0.33333333  0.66666667  0.66666667  1
  H  H6  1  0.89935600  0.53832300  0.40594500  1
  H  H7  1  0.46167700  0.36103300  0.40594500  1
  H  H8  1  0.63896700  0.10064400  0.40594500  1
  H  H9  1  0.10064400  0.46167700  0.59405500  1
  H  H10  1  0.53832300  0.63896700  0.59405500  1
  H  H11  1  0.36103300  0.89935600  0.59405500  1
  H  H12  1  0.77197033  0.56645067  0.44319567  1
  H  H13  1  0.43354933  0.20551967  0.44319567  1
  H  H14  1  0.79448033  0.22802967  0.44319567  1
  H  H15  1  0.22802967  0.43354933  0.55680433  1
  H  H16  1  0.56645067  0.79448033  0.55680433  1
  H  H17  1  0.20551967  0.77197033  0.55680433  1
  H  H18  1  0.13464800  0.12607000  0.19106600  1
  H  H19  1  0.87393000  0.00857800  0.19106600  1
  H  H20  1  0.99142200  0.86535200  0.19106600  1
  H  H21  1  0.86535200  0.87393000  0.80893400  1
  H  H22  1  0.12607000  0.99142200  0.80893400  1
  H  H23  1  0.00857800  0.13464800  0.80893400  1
  H  H24  1  0.56602267  0.87165633  0.73927833  1
  H  H25  1  0.12834367  0.69436633  0.73927833  1
  H  H26  1  0.30563367  0.43397733  0.73927833  1
  H  H27  1  0.76731067  0.79501033  0.92738833  1
  H  H28  1  0.20498967  0.97230033  0.92738833  1
  H  H29  1  0.02769967  0.23268933  0.92738833  1
  H  H30  1  0.43863700  0.89978400  0.77652900  1
  H  H31  1  0.10021600  0.53885300  0.77652900  1
  H  H32  1  0.46114700  0.56136300  0.77652900  1
  H  H33  1  0.89469633  0.76688267  0.89013767  1
  H  H34  1  0.23311733  0.12781367  0.89013767  1
  H  H35  1  0.87218633  0.10530367  0.89013767  1
  H  H36  1  0.80131467  0.45940333  0.52439933  1
  H  H37  1  0.54059667  0.34191133  0.52439933  1
  H  H38  1  0.65808867  0.19868533  0.52439933  1
  H  H39  1  0.53201867  0.20726333  0.14226733  1
  H  H40  1  0.79273667  0.32475533  0.14226733  1
  H  H41  1  0.67524467  0.46798133  0.14226733  1
  H  H42  1  0.23268933  0.20498967  0.07261167  1
  H  H43  1  0.79501033  0.02769967  0.07261167  1
  H  H44  1  0.97230033  0.76731067  0.07261167  1
  H  H45  1  0.43397733  0.12834367  0.26072167  1
  H  H46  1  0.87165633  0.30563367  0.26072167  1
  H  H47  1  0.69436633  0.56602267  0.26072167  1
  H  H48  1  0.10530367  0.23311733  0.10986233  1
  H  H49  1  0.76688267  0.87218633  0.10986233  1
  H  H50  1  0.12781367  0.89469633  0.10986233  1
  H  H51  1  0.56136300  0.10021600  0.22347100  1
  H  H52  1  0.89978400  0.46114700  0.22347100  1
  H  H53  1  0.53885300  0.43863700  0.22347100  1
  H  H54  1  0.46798133  0.79273667  0.85773267  1
  H  H55  1  0.20726333  0.67524467  0.85773267  1
  H  H56  1  0.32475533  0.53201867  0.85773267  1
  H  H57  1  0.19868533  0.54059667  0.47560067  1
  H  H58  1  0.45940333  0.65808867  0.47560067  1
  H  H59  1  0.34191133  0.80131467  0.47560067  1
  C  C60  1  0.12919067  0.15455033  0.60371933  1
  C  C61  1  0.84544967  0.97464033  0.60371933  1
  C  C62  1  0.02535967  0.87080933  0.60371933  1
  C  C63  1  0.87080933  0.84544967  0.39628067  1
  C  C64  1  0.15455033  0.02535967  0.39628067  1
  C  C65  1  0.97464033  0.12919067  0.39628067  1
  C  C66  1  0.79585733  0.48788367  0.93705267  1
  C  C67  1  0.51211633  0.30797367  0.93705267  1
  C  C68  1  0.69202633  0.20414267  0.93705267  1
  C  C69  1  0.53747600  0.17878300  0.72961400  1
  C  C70  1  0.82121700  0.35869300  0.72961400  1
  C  C71  1  0.64130700  0.46252400  0.72961400  1
  C  C72  1  0.46252400  0.82121700  0.27038600  1
  C  C73  1  0.17878300  0.64130700  0.27038600  1
  C  C74  1  0.35869300  0.53747600  0.27038600  1
  C  C75  1  0.20414267  0.51211633  0.06294733  1
  C  C76  1  0.48788367  0.69202633  0.06294733  1
  C  C77  1  0.30797367  0.79585733  0.06294733  1
  N  N78  1  0.79780700  0.48975200  0.43765200  1
  N  N79  1  0.51024800  0.30805500  0.43765200  1
  N  N80  1  0.69194500  0.20219300  0.43765200  1
  N  N81  1  0.20219300  0.51024800  0.56234800  1
  N  N82  1  0.48975200  0.69194500  0.56234800  1
  N  N83  1  0.30805500  0.79780700  0.56234800  1
  N  N84  1  0.20329367  0.24741333  0.66726333  1
  N  N85  1  0.75258667  0.95588033  0.66726333  1
  N  N86  1  0.04411967  0.79670633  0.66726333  1
  N  N87  1  0.79670633  0.75258667  0.33273667  1
  N  N88  1  0.24741333  0.04411967  0.33273667  1
  N  N89  1  0.95588033  0.20329367  0.33273667  1
  N  N90  1  0.46447367  0.82308533  0.77098533  1
  N  N91  1  0.17691467  0.64138833  0.77098533  1
  N  N92  1  0.35861167  0.53552633  0.77098533  1
  N  N93  1  0.86885967  0.84358133  0.89568133  1
  N  N94  1  0.15641867  0.02527833  0.89568133  1
  N  N95  1  0.97472167  0.13114033  0.89568133  1
  N  N96  1  0.86996033  0.58074667  0.00059667  1
  N  N97  1  0.41925333  0.28921367  0.00059667  1
  N  N98  1  0.71078633  0.13003967  0.00059667  1
  N  N99  1  0.46337300  0.08592000  0.66607000  1
  N  N100  1  0.91408000  0.37745300  0.66607000  1
  N  N101  1  0.62254700  0.53662700  0.66607000  1
  N  N102  1  0.13114033  0.15641867  0.10431867  1
  N  N103  1  0.84358133  0.97472167  0.10431867  1
  N  N104  1  0.02527833  0.86885967  0.10431867  1
  N  N105  1  0.53552633  0.17691467  0.22901467  1
  N  N106  1  0.82308533  0.35861167  0.22901467  1
  N  N107  1  0.64138833  0.46447367  0.22901467  1
  N  N108  1  0.53662700  0.91408000  0.33393000  1
  N  N109  1  0.08592000  0.62254700  0.33393000  1
  N  N110  1  0.37745300  0.46337300  0.33393000  1
  N  N111  1  0.13003967  0.41925333  0.99940333  1
  N  N112  1  0.58074667  0.71078633  0.99940333  1
  N  N113  1  0.28921367  0.86996033  0.99940333  1
