# generated using pymatgen
data_BaY2CuO5
_symmetry_space_group_name_H-M   'P 1'
_cell_length_a   5.71688500
_cell_length_b   7.24591700
_cell_length_c   12.28199800
_cell_angle_alpha   90.00000000
_cell_angle_beta   90.00000000
_cell_angle_gamma   90.00000000
_symmetry_Int_Tables_number   1
_chemical_formula_structural   BaY2CuO5
_chemical_formula_sum   'Ba4 Y8 Cu4 O20'
_cell_volume   508.77039658
_cell_formula_units_Z   4
loop_
 _symmetry_equiv_pos_site_id
 _symmetry_equiv_pos_as_xyz
  1  'x, y, z'
loop_
 _atom_site_type_symbol
 _atom_site_label
 _atom_site_symmetry_multiplicity
 _atom_site_fract_x
 _atom_site_fract_y
 _atom_site_fract_z
 _atom_site_occupancy
  Ba  Ba0  1  0.75000000  0.06983900  0.09526600  1
  Ba  Ba1  1  0.25000000  0.93016100  0.90473400  1
  Ba  Ba2  1  0.25000000  0.56983900  0.40473400  1
  Ba  Ba3  1  0.75000000  0.43016100  0.59526600  1
  Y  Y4  1  0.25000000  0.11436700  0.28737100  1
  Y  Y5  1  0.75000000  0.88563300  0.71262900  1
  Y  Y6  1  0.75000000  0.61436700  0.21262900  1
  Y  Y7  1  0.25000000  0.38563300  0.78737100  1
  Y  Y8  1  0.25000000  0.39664400  0.07412100  1
  Y  Y9  1  0.75000000  0.60335600  0.92587900  1
  Y  Y10  1  0.75000000  0.89664400  0.42587900  1
  Y  Y11  1  0.25000000  0.10335600  0.57412100  1
  Cu  Cu12  1  0.75000000  0.28372200  0.33955500  1
  Cu  Cu13  1  0.25000000  0.71627800  0.66044500  1
  Cu  Cu14  1  0.25000000  0.78372200  0.16044500  1
  Cu  Cu15  1  0.75000000  0.21627800  0.83955500  1
  O  O16  1  0.50657400  0.16329200  0.43231200  1
  O  O17  1  0.00657400  0.83670800  0.56768800  1
  O  O18  1  0.49342600  0.66329200  0.06768800  1
  O  O19  1  0.99342600  0.33670800  0.93231200  1
  O  O20  1  0.49342600  0.83670800  0.56768800  1
  O  O21  1  0.99342600  0.16329200  0.43231200  1
  O  O22  1  0.50657400  0.33670800  0.93231200  1
  O  O23  1  0.00657400  0.66329200  0.06768800  1
  O  O24  1  0.50419300  0.35587800  0.22800600  1
  O  O25  1  0.00419300  0.64412200  0.77199400  1
  O  O26  1  0.49580700  0.85587800  0.27199400  1
  O  O27  1  0.99580700  0.14412200  0.72800600  1
  O  O28  1  0.49580700  0.64412200  0.77199400  1
  O  O29  1  0.99580700  0.35587800  0.22800600  1
  O  O30  1  0.50419300  0.14412200  0.72800600  1
  O  O31  1  0.00419300  0.85587800  0.27199400  1
  O  O32  1  0.25000000  0.08383800  0.10001700  1
  O  O33  1  0.75000000  0.91616200  0.89998300  1
  O  O34  1  0.75000000  0.58383800  0.39998300  1
  O  O35  1  0.25000000  0.41616200  0.60001700  1
