# generated using pymatgen
data_Rb4CuSi2O7
_symmetry_space_group_name_H-M   'P 1'
_cell_length_a   6.37319549
_cell_length_b   7.21984369
_cell_length_c   7.29564618
_cell_angle_alpha   114.54806640
_cell_angle_beta   100.23258350
_cell_angle_gamma   108.12026019
_symmetry_Int_Tables_number   1
_chemical_formula_structural   Rb4CuSi2O7
_chemical_formula_sum   'Rb4 Cu1 Si2 O7'
_cell_volume   271.31420705
_cell_formula_units_Z   1
loop_
 _symmetry_equiv_pos_site_id
 _symmetry_equiv_pos_as_xyz
  1  'x, y, z'
loop_
 _atom_site_type_symbol
 _atom_site_label
 _atom_site_symmetry_multiplicity
 _atom_site_fract_x
 _atom_site_fract_y
 _atom_site_fract_z
 _atom_site_occupancy
  Rb  Rb0  1  0.60732336  0.36236805  0.71510866  1
  Rb  Rb1  1  0.39267664  0.63763195  0.28489134  1
  Rb  Rb2  1  0.70956666  0.23462259  0.22187975  1
  Rb  Rb3  1  0.29043334  0.76537741  0.77812025  1
  Cu  Cu4  1  0.00000000  0.00000000  0.50000000  1
  Si  Si5  1  0.99217097  0.85692822  0.22322058  1
  Si  Si6  1  0.00782903  0.14307178  0.77677942  1
  O  O7  1  0.24103271  0.00864116  0.23241451  1
  O  O8  1  0.24940775  0.16349703  0.56747895  1
  O  O9  1  0.75059225  0.83650297  0.43252105  1
  O  O10  1  0.03193553  0.37589849  0.76559134  1
  O  O11  1  0.96806447  0.62410151  0.23440866  1
  O  O12  1  0.75896729  0.99135884  0.76758549  1
  O  O13  1  0.00000000  0.00000000  0.00000000  1
