# generated using pymatgen
data_CsAg3S2
_symmetry_space_group_name_H-M   'P 1'
_cell_length_a   16.32204200
_cell_length_b   4.37754000
_cell_length_c   9.16837108
_cell_angle_alpha   90.00000000
_cell_angle_beta   113.01720451
_cell_angle_gamma   90.00000000
_symmetry_Int_Tables_number   1
_chemical_formula_structural   CsAg3S2
_chemical_formula_sum   'Cs4 Ag12 S8'
_cell_volume   602.93084395
_cell_formula_units_Z   4
loop_
 _symmetry_equiv_pos_site_id
 _symmetry_equiv_pos_as_xyz
  1  'x, y, z'
loop_
 _atom_site_type_symbol
 _atom_site_label
 _atom_site_symmetry_multiplicity
 _atom_site_fract_x
 _atom_site_fract_y
 _atom_site_fract_z
 _atom_site_occupancy
  Cs  Cs0  1  0.36454700  0.50000000  0.95683100  1
  Cs  Cs1  1  0.13545300  0.00000000  0.04316900  1
  Cs  Cs2  1  0.86454700  0.00000000  0.95683100  1
  Cs  Cs3  1  0.63545300  0.50000000  0.04316900  1
  Ag  Ag4  1  0.44167600  0.50000000  0.59857000  1
  Ag  Ag5  1  0.05832400  0.00000000  0.40143000  1
  Ag  Ag6  1  0.09584000  0.50000000  0.64647400  1
  Ag  Ag7  1  0.40416000  0.00000000  0.35352600  1
  Ag  Ag8  1  0.31180200  0.00000000  0.58212000  1
  Ag  Ag9  1  0.18819800  0.50000000  0.41788000  1
  Ag  Ag10  1  0.94167600  0.00000000  0.59857000  1
  Ag  Ag11  1  0.55832400  0.50000000  0.40143000  1
  Ag  Ag12  1  0.59584000  0.00000000  0.64647400  1
  Ag  Ag13  1  0.90416000  0.50000000  0.35352600  1
  Ag  Ag14  1  0.81180200  0.50000000  0.58212000  1
  Ag  Ag15  1  0.68819800  0.00000000  0.41788000  1
  S  S16  1  0.19163300  0.00000000  0.68526600  1
  S  S17  1  0.30836700  0.50000000  0.31473400  1
  S  S18  1  0.47833100  0.00000000  0.76472200  1
  S  S19  1  0.02166900  0.50000000  0.23527800  1
  S  S20  1  0.69163300  0.50000000  0.68526600  1
  S  S21  1  0.80836700  0.00000000  0.31473400  1
  S  S22  1  0.97833100  0.50000000  0.76472200  1
  S  S23  1  0.52166900  0.00000000  0.23527800  1
