# generated using pymatgen
data_KBS4(ClO3)4
_symmetry_space_group_name_H-M   'P 1'
_cell_length_a   8.36762400
_cell_length_b   20.79053000
_cell_length_c   10.76033327
_cell_angle_alpha   90.00000000
_cell_angle_beta   109.04968970
_cell_angle_gamma   90.00000000
_symmetry_Int_Tables_number   1
_chemical_formula_structural   KBS4(ClO3)4
_chemical_formula_sum   'K4 B4 S16 Cl16 O48'
_cell_volume   1769.43101304
_cell_formula_units_Z   4
loop_
 _symmetry_equiv_pos_site_id
 _symmetry_equiv_pos_as_xyz
  1  'x, y, z'
loop_
 _atom_site_type_symbol
 _atom_site_label
 _atom_site_symmetry_multiplicity
 _atom_site_fract_x
 _atom_site_fract_y
 _atom_site_fract_z
 _atom_site_occupancy
  K  K0  1  0.56933100  0.08300900  0.40418800  1
  K  K1  1  0.06933100  0.41699100  0.90418800  1
  K  K2  1  0.06933100  0.58300900  0.40418800  1
  K  K3  1  0.56933100  0.91699100  0.90418800  1
  B  B4  1  0.49897700  0.37914600  0.50114800  1
  B  B5  1  0.99897700  0.12085400  0.00114800  1
  B  B6  1  0.99897700  0.87914600  0.50114800  1
  B  B7  1  0.49897700  0.62085400  0.00114800  1
  S  S8  1  0.16271650  0.22325650  0.94034300  1
  S  S9  1  0.71194750  0.09110450  0.79943300  1
  S  S10  1  0.66271650  0.27674350  0.44034300  1
  S  S11  1  0.39892650  0.35062850  0.71153800  1
  S  S12  1  0.23438900  0.02456000  0.05113500  1
  S  S13  1  0.89892650  0.14937150  0.21153800  1
  S  S14  1  0.21194750  0.40889550  0.29943300  1
  S  S15  1  0.73438900  0.47544000  0.55113500  1
  S  S16  1  0.66271650  0.72325650  0.94034300  1
  S  S17  1  0.21194750  0.59110450  0.79943300  1
  S  S18  1  0.16271650  0.77674350  0.44034300  1
  S  S19  1  0.89892650  0.85062850  0.71153800  1
  S  S20  1  0.73438900  0.52456000  0.05113500  1
  S  S21  1  0.39892650  0.64937150  0.21153800  1
  S  S22  1  0.71194750  0.90889550  0.29943300  1
  S  S23  1  0.23438900  0.97544000  0.55113500  1
  Cl  Cl24  1  0.12809550  0.17539950  0.34284600  1
  Cl  Cl25  1  0.50810350  0.14894850  0.76710600  1
  Cl  Cl26  1  0.00810350  0.35105150  0.26710600  1
  Cl  Cl27  1  0.11706000  0.04788000  0.61405300  1
  Cl  Cl28  1  0.40115900  0.24289900  0.05989700  1
  Cl  Cl29  1  0.90115900  0.25710100  0.55989700  1
  Cl  Cl30  1  0.61706000  0.45212000  0.11405300  1
  Cl  Cl31  1  0.62809550  0.32460050  0.84284600  1
  Cl  Cl32  1  0.62809550  0.67539950  0.34284600  1
  Cl  Cl33  1  0.00810350  0.64894850  0.76710600  1
  Cl  Cl34  1  0.50810350  0.85105150  0.26710600  1
  Cl  Cl35  1  0.61706000  0.54788000  0.61405300  1
  Cl  Cl36  1  0.90115900  0.74289900  0.05989700  1
  Cl  Cl37  1  0.40115900  0.75710100  0.55989700  1
  Cl  Cl38  1  0.11706000  0.95212000  0.11405300  1
  Cl  Cl39  1  0.12809550  0.82460050  0.84284600  1
  O  O40  1  0.83011850  0.43935050  0.66503600  1
  O  O41  1  0.35163350  0.36276150  0.38387900  1
  O  O42  1  0.31784250  0.00379250  0.46756100  1
  O  O43  1  0.58241850  0.43563150  0.46291200  1
  O  O44  1  0.69025450  0.03693050  0.87529000  1
  O  O45  1  0.60734200  0.32166100  0.53515500  1
  O  O46  1  0.23414100  0.41931300  0.17407100  1
  O  O47  1  0.82074750  0.20661650  0.14511000  1
  O  O48  1  0.95198700  0.10281800  0.11786000  1
  O  O49  1  0.56977550  0.21740750  0.42397800  1
  O  O50  1  0.06977550  0.28259250  0.92397800  1
  O  O51  1  0.17312250  0.18901250  0.82767000  1
  O  O52  1  0.08241850  0.06436850  0.96291200  1
  O  O53  1  0.10734200  0.17833900  0.03515500  1
  O  O54  1  0.31711100  0.38914400  0.78359200  1
  O  O55  1  0.45198700  0.39718200  0.61786000  1
  O  O56  1  0.73414100  0.08068700  0.67407100  1
  O  O57  1  0.33011850  0.06064950  0.16503600  1
  O  O58  1  0.81784250  0.49620750  0.96756100  1
  O  O59  1  0.85163350  0.13723850  0.88387900  1
  O  O60  1  0.19025450  0.46306950  0.37529000  1
  O  O61  1  0.81711100  0.11085600  0.28359200  1
  O  O62  1  0.32074750  0.29338350  0.64511000  1
  O  O63  1  0.67312250  0.31098750  0.32767000  1
  O  O64  1  0.33011850  0.93935050  0.66503600  1
  O  O65  1  0.85163350  0.86276150  0.38387900  1
  O  O66  1  0.81784250  0.50379250  0.46756100  1
  O  O67  1  0.08241850  0.93563150  0.46291200  1
  O  O68  1  0.19025450  0.53693050  0.87529000  1
  O  O69  1  0.10734200  0.82166100  0.53515500  1
  O  O70  1  0.73414100  0.91931300  0.17407100  1
  O  O71  1  0.32074750  0.70661650  0.14511000  1
  O  O72  1  0.45198700  0.60281800  0.11786000  1
  O  O73  1  0.06977550  0.71740750  0.42397800  1
  O  O74  1  0.56977550  0.78259250  0.92397800  1
  O  O75  1  0.67312250  0.68901250  0.82767000  1
  O  O76  1  0.58241850  0.56436850  0.96291200  1
  O  O77  1  0.60734200  0.67833900  0.03515500  1
  O  O78  1  0.81711100  0.88914400  0.78359200  1
  O  O79  1  0.95198700  0.89718200  0.61786000  1
  O  O80  1  0.23414100  0.58068700  0.67407100  1
  O  O81  1  0.83011850  0.56064950  0.16503600  1
  O  O82  1  0.31784250  0.99620750  0.96756100  1
  O  O83  1  0.35163350  0.63723850  0.88387900  1
  O  O84  1  0.69025450  0.96306950  0.37529000  1
  O  O85  1  0.31711100  0.61085600  0.28359200  1
  O  O86  1  0.82074750  0.79338350  0.64511000  1
  O  O87  1  0.17312250  0.81098750  0.32767000  1
