# generated using pymatgen
data_Na3Si3SnO9F
_symmetry_space_group_name_H-M   'P 1'
_cell_length_a   10.68537000
_cell_length_b   14.16408800
_cell_length_c   6.60520791
_cell_angle_alpha   90.00000000
_cell_angle_beta   111.65370854
_cell_angle_gamma   90.00000000
_symmetry_Int_Tables_number   1
_chemical_formula_structural   Na3Si3SnO9F
_chemical_formula_sum   'Na12 Si12 Sn4 O36 F4'
_cell_volume   929.14143500
_cell_formula_units_Z   4
loop_
 _symmetry_equiv_pos_site_id
 _symmetry_equiv_pos_as_xyz
  1  'x, y, z'
loop_
 _atom_site_type_symbol
 _atom_site_label
 _atom_site_symmetry_multiplicity
 _atom_site_fract_x
 _atom_site_fract_y
 _atom_site_fract_z
 _atom_site_occupancy
  Na  Na0  1  0.51048900  0.00000000  0.26270400  1
  Na  Na1  1  0.25829450  0.13549250  0.91818400  1
  Na  Na2  1  0.25829450  0.86450750  0.91818400  1
  Na  Na3  1  0.48951100  0.00000000  0.73729600  1
  Na  Na4  1  0.74170550  0.86450750  0.08181600  1
  Na  Na5  1  0.74170550  0.13549250  0.08181600  1
  Na  Na6  1  0.01048900  0.50000000  0.26270400  1
  Na  Na7  1  0.75829450  0.63549250  0.91818400  1
  Na  Na8  1  0.75829450  0.36450750  0.91818400  1
  Na  Na9  1  0.98951100  0.50000000  0.73729600  1
  Na  Na10  1  0.24170550  0.36450750  0.08181600  1
  Na  Na11  1  0.24170550  0.63549250  0.08181600  1
  Si  Si12  1  0.79776050  0.11050150  0.60347000  1
  Si  Si13  1  0.20223950  0.11050150  0.39653000  1
  Si  Si14  1  0.20223950  0.88949850  0.39653000  1
  Si  Si15  1  0.50000000  0.71376400  0.00000000  1
  Si  Si16  1  0.50000000  0.28623600  0.00000000  1
  Si  Si17  1  0.79776050  0.88949850  0.60347000  1
  Si  Si18  1  0.29776050  0.61050150  0.60347000  1
  Si  Si19  1  0.70223950  0.61050150  0.39653000  1
  Si  Si20  1  0.70223950  0.38949850  0.39653000  1
  Si  Si21  1  0.00000000  0.21376400  0.00000000  1
  Si  Si22  1  0.00000000  0.78623600  0.00000000  1
  Si  Si23  1  0.29776050  0.38949850  0.60347000  1
  Sn  Sn24  1  0.50000000  0.77545400  0.50000000  1
  Sn  Sn25  1  0.50000000  0.22454600  0.50000000  1
  Sn  Sn26  1  0.00000000  0.27545400  0.50000000  1
  Sn  Sn27  1  0.00000000  0.72454600  0.50000000  1
  O  O28  1  0.55046850  0.22305050  0.83904500  1
  O  O29  1  0.62876550  0.35421750  0.13900900  1
  O  O30  1  0.62876550  0.64578250  0.13900900  1
  O  O31  1  0.37123450  0.64578250  0.86099100  1
  O  O32  1  0.35051600  0.67446800  0.44628800  1
  O  O33  1  0.44953150  0.22305050  0.16095500  1
  O  O34  1  0.36505900  0.88577700  0.46174100  1
  O  O35  1  0.36505900  0.11422300  0.46174100  1
  O  O36  1  0.63494100  0.88577700  0.53825900  1
  O  O37  1  0.55046850  0.77694950  0.83904500  1
  O  O38  1  0.64948400  0.32553200  0.55371200  1
  O  O39  1  0.15919400  0.00000000  0.40648900  1
  O  O40  1  0.64948400  0.67446800  0.55371200  1
  O  O41  1  0.63494100  0.11422300  0.53825900  1
  O  O42  1  0.35051600  0.32553200  0.44628800  1
  O  O43  1  0.44953150  0.77694950  0.16095500  1
  O  O44  1  0.37123450  0.35421750  0.86099100  1
  O  O45  1  0.84080600  0.00000000  0.59351100  1
  O  O46  1  0.05046850  0.72305050  0.83904500  1
  O  O47  1  0.12876550  0.85421750  0.13900900  1
  O  O48  1  0.12876550  0.14578250  0.13900900  1
  O  O49  1  0.87123450  0.14578250  0.86099100  1
  O  O50  1  0.85051600  0.17446800  0.44628800  1
  O  O51  1  0.94953150  0.72305050  0.16095500  1
  O  O52  1  0.86505900  0.38577700  0.46174100  1
  O  O53  1  0.86505900  0.61422300  0.46174100  1
  O  O54  1  0.13494100  0.38577700  0.53825900  1
  O  O55  1  0.05046850  0.27694950  0.83904500  1
  O  O56  1  0.14948400  0.82553200  0.55371200  1
  O  O57  1  0.65919400  0.50000000  0.40648900  1
  O  O58  1  0.14948400  0.17446800  0.55371200  1
  O  O59  1  0.13494100  0.61422300  0.53825900  1
  O  O60  1  0.85051600  0.82553200  0.44628800  1
  O  O61  1  0.94953150  0.27694950  0.16095500  1
  O  O62  1  0.87123450  0.85421750  0.86099100  1
  O  O63  1  0.34080600  0.50000000  0.59351100  1
  F  F64  1  0.35092600  0.00000000  0.93115600  1
  F  F65  1  0.64907400  0.00000000  0.06884400  1
  F  F66  1  0.85092600  0.50000000  0.93115600  1
  F  F67  1  0.14907400  0.50000000  0.06884400  1
