# generated using pymatgen
data_TiSn6F16
_symmetry_space_group_name_H-M   'P 1'
_cell_length_a   18.86261400
_cell_length_b   7.81315800
_cell_length_c   11.10167150
_cell_angle_alpha   90.00000000
_cell_angle_beta   90.98650255
_cell_angle_gamma   90.00000000
_symmetry_Int_Tables_number   1
_chemical_formula_structural   TiSn6F16
_chemical_formula_sum   'Ti4 Sn24 F64'
_cell_volume   1635.88390836
_cell_formula_units_Z   4
loop_
 _symmetry_equiv_pos_site_id
 _symmetry_equiv_pos_as_xyz
  1  'x, y, z'
loop_
 _atom_site_type_symbol
 _atom_site_label
 _atom_site_symmetry_multiplicity
 _atom_site_fract_x
 _atom_site_fract_y
 _atom_site_fract_z
 _atom_site_occupancy
  Ti  Ti0  1  0.00000000  0.66935600  0.25000000  1
  Ti  Ti1  1  0.00000000  0.33064400  0.75000000  1
  Ti  Ti2  1  0.50000000  0.16935600  0.25000000  1
  Ti  Ti3  1  0.50000000  0.83064400  0.75000000  1
  Sn  Sn4  1  0.92662800  0.82583100  0.60394500  1
  Sn  Sn5  1  0.64734950  0.10709850  0.52991700  1
  Sn  Sn6  1  0.57337200  0.67416900  0.39605500  1
  Sn  Sn7  1  0.85265050  0.39290150  0.47008300  1
  Sn  Sn8  1  0.79395150  0.08398750  0.81926600  1
  Sn  Sn9  1  0.92662800  0.17416900  0.10394500  1
  Sn  Sn10  1  0.57337200  0.32583100  0.89605500  1
  Sn  Sn11  1  0.70604850  0.58398750  0.68073400  1
  Sn  Sn12  1  0.70604850  0.41601250  0.18073400  1
  Sn  Sn13  1  0.79395150  0.91601250  0.31926600  1
  Sn  Sn14  1  0.64734950  0.89290150  0.02991700  1
  Sn  Sn15  1  0.85265050  0.60709850  0.97008300  1
  Sn  Sn16  1  0.42662800  0.32583100  0.60394500  1
  Sn  Sn17  1  0.14734950  0.60709850  0.52991700  1
  Sn  Sn18  1  0.07337200  0.17416900  0.39605500  1
  Sn  Sn19  1  0.35265050  0.89290150  0.47008300  1
  Sn  Sn20  1  0.29395150  0.58398750  0.81926600  1
  Sn  Sn21  1  0.42662800  0.67416900  0.10394500  1
  Sn  Sn22  1  0.07337200  0.82583100  0.89605500  1
  Sn  Sn23  1  0.20604850  0.08398750  0.68073400  1
  Sn  Sn24  1  0.20604850  0.91601250  0.18073400  1
  Sn  Sn25  1  0.29395150  0.41601250  0.31926600  1
  Sn  Sn26  1  0.14734950  0.39290150  0.02991700  1
  Sn  Sn27  1  0.35265050  0.10709850  0.97008300  1
  F  F28  1  0.76447450  0.37048950  0.59398200  1
  F  F29  1  0.84175400  0.65575800  0.54118900  1
  F  F30  1  0.73552550  0.87048950  0.90601800  1
  F  F31  1  0.84851550  0.86042050  0.74688700  1
  F  F32  1  0.76447450  0.62951050  0.09398200  1
  F  F33  1  0.65824600  0.15575800  0.95881100  1
  F  F34  1  0.93342800  0.49615200  0.20971100  1
  F  F35  1  0.65148450  0.36042050  0.75311300  1
  F  F36  1  0.53355650  0.16749250  0.08889200  1
  F  F37  1  0.96644350  0.33250750  0.91110800  1
  F  F38  1  0.53355650  0.83250750  0.58889200  1
  F  F39  1  0.78066350  0.49142350  0.34026500  1
  F  F40  1  0.65824600  0.84424200  0.45881100  1
  F  F41  1  0.84851550  0.13957950  0.24688700  1
  F  F42  1  0.93239700  0.83926300  0.20707700  1
  F  F43  1  0.65148450  0.63957950  0.25311300  1
  F  F44  1  0.71933650  0.00857650  0.65973500  1
  F  F45  1  0.93239700  0.16073700  0.70707700  1
  F  F46  1  0.56760300  0.33926300  0.29292300  1
  F  F47  1  0.84175400  0.34424200  0.04118900  1
  F  F48  1  0.71933650  0.99142350  0.15973500  1
  F  F49  1  0.62964600  0.49156300  0.01608100  1
  F  F50  1  0.96644350  0.66749250  0.41110800  1
  F  F51  1  0.62964600  0.50843700  0.51608100  1
  F  F52  1  0.87035400  0.99156300  0.48391900  1
  F  F53  1  0.56657200  0.99615200  0.29028900  1
  F  F54  1  0.56760300  0.66073700  0.79292300  1
  F  F55  1  0.93342800  0.50384800  0.70971100  1
  F  F56  1  0.56657200  0.00384800  0.79028900  1
  F  F57  1  0.78066350  0.50857650  0.84026500  1
  F  F58  1  0.73552550  0.12951050  0.40601800  1
  F  F59  1  0.87035400  0.00843700  0.98391900  1
  F  F60  1  0.26447450  0.87048950  0.59398200  1
  F  F61  1  0.34175400  0.15575800  0.54118900  1
  F  F62  1  0.23552550  0.37048950  0.90601800  1
  F  F63  1  0.34851550  0.36042050  0.74688700  1
  F  F64  1  0.26447450  0.12951050  0.09398200  1
  F  F65  1  0.15824600  0.65575800  0.95881100  1
  F  F66  1  0.43342800  0.99615200  0.20971100  1
  F  F67  1  0.15148450  0.86042050  0.75311300  1
  F  F68  1  0.03355650  0.66749250  0.08889200  1
  F  F69  1  0.46644350  0.83250750  0.91110800  1
  F  F70  1  0.03355650  0.33250750  0.58889200  1
  F  F71  1  0.28066350  0.99142350  0.34026500  1
  F  F72  1  0.15824600  0.34424200  0.45881100  1
  F  F73  1  0.34851550  0.63957950  0.24688700  1
  F  F74  1  0.43239700  0.33926300  0.20707700  1
  F  F75  1  0.15148450  0.13957950  0.25311300  1
  F  F76  1  0.21933650  0.50857650  0.65973500  1
  F  F77  1  0.43239700  0.66073700  0.70707700  1
  F  F78  1  0.06760300  0.83926300  0.29292300  1
  F  F79  1  0.34175400  0.84424200  0.04118900  1
  F  F80  1  0.21933650  0.49142350  0.15973500  1
  F  F81  1  0.12964600  0.99156300  0.01608100  1
  F  F82  1  0.46644350  0.16749250  0.41110800  1
  F  F83  1  0.12964600  0.00843700  0.51608100  1
  F  F84  1  0.37035400  0.49156300  0.48391900  1
  F  F85  1  0.06657200  0.49615200  0.29028900  1
  F  F86  1  0.06760300  0.16073700  0.79292300  1
  F  F87  1  0.43342800  0.00384800  0.70971100  1
  F  F88  1  0.06657200  0.50384800  0.79028900  1
  F  F89  1  0.28066350  0.00857650  0.84026500  1
  F  F90  1  0.23552550  0.62951050  0.40601800  1
  F  F91  1  0.37035400  0.50843700  0.98391900  1
