# generated using pymatgen
data_RbBe2P3O10
_symmetry_space_group_name_H-M   'P 1'
_cell_length_a   12.33017600
_cell_length_b   8.80017600
_cell_length_c   9.03831612
_cell_angle_alpha   90.00000000
_cell_angle_beta   117.22686945
_cell_angle_gamma   90.00000000
_symmetry_Int_Tables_number   1
_chemical_formula_structural   RbBe2P3O10
_chemical_formula_sum   'Rb4 Be8 P12 O40'
_cell_volume   872.06438402
_cell_formula_units_Z   4
loop_
 _symmetry_equiv_pos_site_id
 _symmetry_equiv_pos_as_xyz
  1  'x, y, z'
loop_
 _atom_site_type_symbol
 _atom_site_label
 _atom_site_symmetry_multiplicity
 _atom_site_fract_x
 _atom_site_fract_y
 _atom_site_fract_z
 _atom_site_occupancy
  Rb  Rb0  1  0.00000000  0.30081900  0.75000000  1
  Rb  Rb1  1  0.00000000  0.69918100  0.25000000  1
  Rb  Rb2  1  0.50000000  0.80081900  0.75000000  1
  Rb  Rb3  1  0.50000000  0.19918100  0.25000000  1
  Be  Be4  1  0.24436100  0.54404400  0.06338700  1
  Be  Be5  1  0.75563900  0.45595600  0.93661300  1
  Be  Be6  1  0.75563900  0.54404400  0.43661300  1
  Be  Be7  1  0.24436100  0.45595600  0.56338700  1
  Be  Be8  1  0.74436100  0.04404400  0.06338700  1
  Be  Be9  1  0.25563900  0.95595600  0.93661300  1
  Be  Be10  1  0.25563900  0.04404400  0.43661300  1
  Be  Be11  1  0.74436100  0.95595600  0.56338700  1
  P  P12  1  0.18299300  0.31490600  0.24717600  1
  P  P13  1  0.18299300  0.68509400  0.74717600  1
  P  P14  1  0.81700700  0.68509400  0.75282400  1
  P  P15  1  0.00000000  0.88121000  0.75000000  1
  P  P16  1  0.00000000  0.11879000  0.25000000  1
  P  P17  1  0.81700700  0.31490600  0.25282400  1
  P  P18  1  0.68299300  0.81490600  0.24717600  1
  P  P19  1  0.68299300  0.18509400  0.74717600  1
  P  P20  1  0.31700700  0.18509400  0.75282400  1
  P  P21  1  0.50000000  0.38121000  0.75000000  1
  P  P22  1  0.50000000  0.61879000  0.25000000  1
  P  P23  1  0.31700700  0.81490600  0.25282400  1
  O  O24  1  0.17168950  0.56842350  0.86407700  1
  O  O25  1  0.82831050  0.43157650  0.13592300  1
  O  O26  1  0.82831050  0.56842350  0.63592300  1
  O  O27  1  0.22511900  0.31147100  0.66435000  1
  O  O28  1  0.95140200  0.22932500  0.34775400  1
  O  O29  1  0.60560900  0.52715300  0.37554100  1
  O  O30  1  0.04859800  0.22932500  0.15224600  1
  O  O31  1  0.80460850  0.61442550  0.89745200  1
  O  O32  1  0.17168950  0.43157650  0.36407700  1
  O  O33  1  0.04859800  0.77067500  0.65224600  1
  O  O34  1  0.22511900  0.68852900  0.16435000  1
  O  O35  1  0.39439100  0.52715300  0.12445900  1
  O  O36  1  0.77488100  0.31147100  0.83565000  1
  O  O37  1  0.77488100  0.68852900  0.33565000  1
  O  O38  1  0.19539150  0.61442550  0.60254800  1
  O  O39  1  0.39439100  0.47284700  0.62445900  1
  O  O40  1  0.95140200  0.77067500  0.84775400  1
  O  O41  1  0.80460850  0.38557450  0.39745200  1
  O  O42  1  0.19539150  0.38557450  0.10254800  1
  O  O43  1  0.60560900  0.47284700  0.87554100  1
  O  O44  1  0.67168950  0.06842350  0.86407700  1
  O  O45  1  0.32831050  0.93157650  0.13592300  1
  O  O46  1  0.32831050  0.06842350  0.63592300  1
  O  O47  1  0.72511900  0.81147100  0.66435000  1
  O  O48  1  0.45140200  0.72932500  0.34775400  1
  O  O49  1  0.10560900  0.02715300  0.37554100  1
  O  O50  1  0.54859800  0.72932500  0.15224600  1
  O  O51  1  0.30460850  0.11442550  0.89745200  1
  O  O52  1  0.67168950  0.93157650  0.36407700  1
  O  O53  1  0.54859800  0.27067500  0.65224600  1
  O  O54  1  0.72511900  0.18852900  0.16435000  1
  O  O55  1  0.89439100  0.02715300  0.12445900  1
  O  O56  1  0.27488100  0.81147100  0.83565000  1
  O  O57  1  0.27488100  0.18852900  0.33565000  1
  O  O58  1  0.69539150  0.11442550  0.60254800  1
  O  O59  1  0.89439100  0.97284700  0.62445900  1
  O  O60  1  0.45140200  0.27067500  0.84775400  1
  O  O61  1  0.30460850  0.88557450  0.39745200  1
  O  O62  1  0.69539150  0.88557450  0.10254800  1
  O  O63  1  0.10560900  0.97284700  0.87554100  1
