# generated using pymatgen
data_AlBiO3
_symmetry_space_group_name_H-M   'P 1'
_cell_length_a   5.41513407
_cell_length_b   5.41513407
_cell_length_c   13.42882369
_cell_angle_alpha   90.00000000
_cell_angle_beta   90.00000000
_cell_angle_gamma   120.00000000
_symmetry_Int_Tables_number   1
_chemical_formula_structural   AlBiO3
_chemical_formula_sum   'Al6 Bi6 O18'
_cell_volume   341.02563829
_cell_formula_units_Z   6
loop_
 _symmetry_equiv_pos_site_id
 _symmetry_equiv_pos_as_xyz
  1  'x, y, z'
loop_
 _atom_site_type_symbol
 _atom_site_label
 _atom_site_symmetry_multiplicity
 _atom_site_fract_x
 _atom_site_fract_y
 _atom_site_fract_z
 _atom_site_occupancy
  Al  Al0  1  0.00000000  0.00000000  0.27861000  1
  Al  Al1  1  0.66666667  0.33333333  0.11194333  1
  Al  Al2  1  0.66666667  0.33333333  0.61194333  1
  Al  Al3  1  0.33333333  0.66666667  0.44527667  1
  Al  Al4  1  0.33333333  0.66666667  0.94527667  1
  Al  Al5  1  0.00000000  0.00000000  0.77861000  1
  Bi  Bi6  1  0.00000000  0.00000000  0.00558500  1
  Bi  Bi7  1  0.33333333  0.66666667  0.17225167  1
  Bi  Bi8  1  0.66666667  0.33333333  0.33891833  1
  Bi  Bi9  1  0.00000000  0.00000000  0.50558500  1
  Bi  Bi10  1  0.33333333  0.66666667  0.67225167  1
  Bi  Bi11  1  0.66666667  0.33333333  0.83891833  1
  O  O12  1  0.34343933  0.22138467  0.20643567  1
  O  O13  1  0.01010600  0.45538800  0.03976900  1
  O  O14  1  0.77861533  0.12205467  0.20643567  1
  O  O15  1  0.44528200  0.98989400  0.03976900  1
  O  O16  1  0.54461200  0.55471800  0.03976900  1
  O  O17  1  0.87794533  0.65656067  0.20643567  1
  O  O18  1  0.01010600  0.55471800  0.53976900  1
  O  O19  1  0.67677267  0.78872133  0.37310233  1
  O  O20  1  0.44528200  0.45538800  0.53976900  1
  O  O21  1  0.11194867  0.32322733  0.37310233  1
  O  O22  1  0.21127867  0.88805133  0.37310233  1
  O  O23  1  0.54461200  0.98989400  0.53976900  1
  O  O24  1  0.67677267  0.88805133  0.87310233  1
  O  O25  1  0.34343933  0.12205467  0.70643567  1
  O  O26  1  0.11194867  0.78872133  0.87310233  1
  O  O27  1  0.77861533  0.65656067  0.70643567  1
  O  O28  1  0.87794533  0.22138467  0.70643567  1
  O  O29  1  0.21127867  0.32322733  0.87310233  1
