# generated using pymatgen
data_K2Ga3
_symmetry_space_group_name_H-M   'P 1'
_cell_length_a   6.21471800
_cell_length_b   6.21471800
_cell_length_c   14.96140800
_cell_angle_alpha   90.00000000
_cell_angle_beta   90.00000000
_cell_angle_gamma   90.00000000
_symmetry_Int_Tables_number   1
_chemical_formula_structural   K2Ga3
_chemical_formula_sum   'K8 Ga12'
_cell_volume   577.85026929
_cell_formula_units_Z   4
loop_
 _symmetry_equiv_pos_site_id
 _symmetry_equiv_pos_as_xyz
  1  'x, y, z'
loop_
 _atom_site_type_symbol
 _atom_site_label
 _atom_site_symmetry_multiplicity
 _atom_site_fract_x
 _atom_site_fract_y
 _atom_site_fract_z
 _atom_site_occupancy
  K  K0  1  0.00000000  0.00000000  0.39035400  1
  K  K1  1  0.00000000  0.50000000  0.25000000  1
  K  K2  1  0.50000000  0.50000000  0.10964600  1
  K  K3  1  0.50000000  0.00000000  0.25000000  1
  K  K4  1  0.50000000  0.50000000  0.89035400  1
  K  K5  1  0.50000000  0.00000000  0.75000000  1
  K  K6  1  0.00000000  0.00000000  0.60964600  1
  K  K7  1  0.00000000  0.50000000  0.75000000  1
  Ga  Ga8  1  0.00000000  0.29430900  0.00000000  1
  Ga  Ga9  1  0.00000000  0.00000000  0.13923500  1
  Ga  Ga10  1  0.29430900  0.00000000  0.00000000  1
  Ga  Ga11  1  0.00000000  0.70569100  0.00000000  1
  Ga  Ga12  1  0.50000000  0.50000000  0.36076500  1
  Ga  Ga13  1  0.70569100  0.00000000  0.00000000  1
  Ga  Ga14  1  0.50000000  0.79430900  0.50000000  1
  Ga  Ga15  1  0.50000000  0.50000000  0.63923500  1
  Ga  Ga16  1  0.79430900  0.50000000  0.50000000  1
  Ga  Ga17  1  0.50000000  0.20569100  0.50000000  1
  Ga  Ga18  1  0.00000000  0.00000000  0.86076500  1
  Ga  Ga19  1  0.20569100  0.50000000  0.50000000  1
