# generated using pymatgen
data_SiO2
_symmetry_space_group_name_H-M   'P 1'
_cell_length_a   14.29650200
_cell_length_b   14.29650200
_cell_length_c   10.33618200
_cell_angle_alpha   90.00000000
_cell_angle_beta   90.00000000
_cell_angle_gamma   90.00000000
_symmetry_Int_Tables_number   1
_chemical_formula_structural   SiO2
_chemical_formula_sum   'Si32 O64'
_cell_volume   2112.61192306
_cell_formula_units_Z   32
loop_
 _symmetry_equiv_pos_site_id
 _symmetry_equiv_pos_as_xyz
  1  'x, y, z'
loop_
 _atom_site_type_symbol
 _atom_site_label
 _atom_site_symmetry_multiplicity
 _atom_site_fract_x
 _atom_site_fract_y
 _atom_site_fract_z
 _atom_site_occupancy
  Si  Si0  1  0.39079200  0.89079200  0.25000000  1
  Si  Si1  1  0.39079200  0.89079200  0.75000000  1
  Si  Si2  1  0.73447000  0.11057000  0.00000000  1
  Si  Si3  1  0.61057000  0.76553000  0.50000000  1
  Si  Si4  1  0.39079200  0.10920800  0.25000000  1
  Si  Si5  1  0.60920800  0.10920800  0.75000000  1
  Si  Si6  1  0.61057000  0.23447000  0.50000000  1
  Si  Si7  1  0.26553000  0.88943000  0.00000000  1
  Si  Si8  1  0.26553000  0.11057000  0.00000000  1
  Si  Si9  1  0.60920800  0.10920800  0.25000000  1
  Si  Si10  1  0.39079200  0.10920800  0.75000000  1
  Si  Si11  1  0.38943000  0.23447000  0.50000000  1
  Si  Si12  1  0.38943000  0.76553000  0.50000000  1
  Si  Si13  1  0.60920800  0.89079200  0.25000000  1
  Si  Si14  1  0.60920800  0.89079200  0.75000000  1
  Si  Si15  1  0.73447000  0.88943000  0.00000000  1
  Si  Si16  1  0.89079200  0.39079200  0.75000000  1
  Si  Si17  1  0.89079200  0.39079200  0.25000000  1
  Si  Si18  1  0.23447000  0.61057000  0.50000000  1
  Si  Si19  1  0.11057000  0.26553000  0.00000000  1
  Si  Si20  1  0.89079200  0.60920800  0.75000000  1
  Si  Si21  1  0.10920800  0.60920800  0.25000000  1
  Si  Si22  1  0.11057000  0.73447000  0.00000000  1
  Si  Si23  1  0.76553000  0.38943000  0.50000000  1
  Si  Si24  1  0.76553000  0.61057000  0.50000000  1
  Si  Si25  1  0.10920800  0.60920800  0.75000000  1
  Si  Si26  1  0.89079200  0.60920800  0.25000000  1
  Si  Si27  1  0.88943000  0.73447000  0.00000000  1
  Si  Si28  1  0.88943000  0.26553000  0.00000000  1
  Si  Si29  1  0.10920800  0.39079200  0.75000000  1
  Si  Si30  1  0.10920800  0.39079200  0.25000000  1
  Si  Si31  1  0.23447000  0.38943000  0.50000000  1
  O  O32  1  0.50000000  0.26026500  0.50000000  1
  O  O33  1  0.67415550  0.13773850  0.87214850  1
  O  O34  1  0.37412300  0.00000000  0.28942700  1
  O  O35  1  0.62587700  0.00000000  0.71057300  1
  O  O36  1  0.36226150  0.82584450  0.37214850  1
  O  O37  1  0.83172100  0.16827900  0.00000000  1
  O  O38  1  0.63773850  0.82584450  0.62785150  1
  O  O39  1  0.32584450  0.86226150  0.87214850  1
  O  O40  1  0.37412300  0.00000000  0.71057300  1
  O  O41  1  0.63773850  0.17415550  0.37214850  1
  O  O42  1  0.36226150  0.17415550  0.62785150  1
  O  O43  1  0.67415550  0.13773850  0.12785150  1
  O  O44  1  0.76026500  0.00000000  0.00000000  1
  O  O45  1  0.50000000  0.73973500  0.50000000  1
  O  O46  1  0.50000000  0.12587700  0.21057300  1
  O  O47  1  0.36226150  0.82584450  0.62785150  1
  O  O48  1  0.50000000  0.12587700  0.78942700  1
  O  O49  1  0.66827900  0.33172100  0.50000000  1
  O  O50  1  0.67415550  0.86226150  0.12785150  1
  O  O51  1  0.32584450  0.13773850  0.87214850  1
  O  O52  1  0.23973500  0.00000000  0.00000000  1
  O  O53  1  0.66827900  0.66827900  0.50000000  1
  O  O54  1  0.32584450  0.86226150  0.12785150  1
  O  O55  1  0.50000000  0.87412300  0.78942700  1
  O  O56  1  0.36226150  0.17415550  0.37214850  1
  O  O57  1  0.32584450  0.13773850  0.12785150  1
  O  O58  1  0.63773850  0.82584450  0.37214850  1
  O  O59  1  0.63773850  0.17415550  0.62785150  1
  O  O60  1  0.67415550  0.86226150  0.87214850  1
  O  O61  1  0.83172100  0.83172100  0.00000000  1
  O  O62  1  0.62587700  0.00000000  0.28942700  1
  O  O63  1  0.50000000  0.87412300  0.21057300  1
  O  O64  1  0.00000000  0.76026500  0.00000000  1
  O  O65  1  0.17415550  0.63773850  0.37214850  1
  O  O66  1  0.87412300  0.50000000  0.78942700  1
  O  O67  1  0.12587700  0.50000000  0.21057300  1
  O  O68  1  0.86226150  0.32584450  0.87214850  1
  O  O69  1  0.33172100  0.66827900  0.50000000  1
  O  O70  1  0.13773850  0.32584450  0.12785150  1
  O  O71  1  0.82584450  0.36226150  0.37214850  1
  O  O72  1  0.87412300  0.50000000  0.21057300  1
  O  O73  1  0.13773850  0.67415550  0.87214850  1
  O  O74  1  0.86226150  0.67415550  0.12785150  1
  O  O75  1  0.17415550  0.63773850  0.62785150  1
  O  O76  1  0.26026500  0.50000000  0.50000000  1
  O  O77  1  0.00000000  0.23973500  0.00000000  1
  O  O78  1  0.00000000  0.62587700  0.71057300  1
  O  O79  1  0.86226150  0.32584450  0.12785150  1
  O  O80  1  0.00000000  0.62587700  0.28942700  1
  O  O81  1  0.16827900  0.83172100  0.00000000  1
  O  O82  1  0.17415550  0.36226150  0.62785150  1
  O  O83  1  0.82584450  0.63773850  0.37214850  1
  O  O84  1  0.73973500  0.50000000  0.50000000  1
  O  O85  1  0.16827900  0.16827900  0.00000000  1
  O  O86  1  0.82584450  0.36226150  0.62785150  1
  O  O87  1  0.00000000  0.37412300  0.28942700  1
  O  O88  1  0.86226150  0.67415550  0.87214850  1
  O  O89  1  0.82584450  0.63773850  0.62785150  1
  O  O90  1  0.13773850  0.32584450  0.87214850  1
  O  O91  1  0.13773850  0.67415550  0.12785150  1
  O  O92  1  0.17415550  0.36226150  0.37214850  1
  O  O93  1  0.33172100  0.33172100  0.50000000  1
  O  O94  1  0.12587700  0.50000000  0.78942700  1
  O  O95  1  0.00000000  0.37412300  0.71057300  1
