# generated using pymatgen
data_SbCNCl4O
_symmetry_space_group_name_H-M   'P 1'
_cell_length_a   12.05733968
_cell_length_b   12.05733968
_cell_length_c   10.53633900
_cell_angle_alpha   90.00000000
_cell_angle_beta   90.00000000
_cell_angle_gamma   120.00000000
_symmetry_Int_Tables_number   1
_chemical_formula_structural   SbCNCl4O
_chemical_formula_sum   'Sb6 C6 N6 Cl24 O6'
_cell_volume   1326.54919080
_cell_formula_units_Z   6
loop_
 _symmetry_equiv_pos_site_id
 _symmetry_equiv_pos_as_xyz
  1  'x, y, z'
loop_
 _atom_site_type_symbol
 _atom_site_label
 _atom_site_symmetry_multiplicity
 _atom_site_fract_x
 _atom_site_fract_y
 _atom_site_fract_z
 _atom_site_occupancy
  Sb  Sb0  1  0.95270800  0.31859400  0.75000000  1
  Sb  Sb1  1  0.36588600  0.04729200  0.75000000  1
  Sb  Sb2  1  0.31859400  0.36588600  0.25000000  1
  Sb  Sb3  1  0.68140600  0.63411400  0.75000000  1
  Sb  Sb4  1  0.63411400  0.95270800  0.25000000  1
  Sb  Sb5  1  0.04729200  0.68140600  0.25000000  1
  C  C6  1  0.75591700  0.45919600  0.75000000  1
  C  C7  1  0.45919600  0.70327900  0.25000000  1
  C  C8  1  0.24408300  0.54080400  0.25000000  1
  C  C9  1  0.70327900  0.24408300  0.75000000  1
  C  C10  1  0.54080400  0.29672100  0.75000000  1
  C  C11  1  0.29672100  0.75591700  0.25000000  1
  N  N12  1  0.57778500  0.20610800  0.75000000  1
  N  N13  1  0.37167700  0.57778500  0.25000000  1
  N  N14  1  0.20610800  0.62832300  0.25000000  1
  N  N15  1  0.62832300  0.42221500  0.75000000  1
  N  N16  1  0.79389200  0.37167700  0.75000000  1
  N  N17  1  0.42221500  0.79389200  0.25000000  1
  Cl  Cl18  1  0.85591200  0.04102600  0.25000000  1
  Cl  Cl19  1  0.81488600  0.85591200  0.75000000  1
  Cl  Cl20  1  0.62001700  0.93277700  0.02706500  1
  Cl  Cl21  1  0.04102600  0.18511400  0.75000000  1
  Cl  Cl22  1  0.93277700  0.31276000  0.97293500  1
  Cl  Cl23  1  0.06722300  0.68724000  0.47293500  1
  Cl  Cl24  1  0.86939200  0.47423300  0.25000000  1
  Cl  Cl25  1  0.37998300  0.06722300  0.97293500  1
  Cl  Cl26  1  0.68724000  0.62001700  0.52706500  1
  Cl  Cl27  1  0.31276000  0.37998300  0.02706500  1
  Cl  Cl28  1  0.52576700  0.39515900  0.25000000  1
  Cl  Cl29  1  0.13060800  0.52576700  0.75000000  1
  Cl  Cl30  1  0.93277700  0.31276000  0.52706500  1
  Cl  Cl31  1  0.31276000  0.37998300  0.47293500  1
  Cl  Cl32  1  0.68724000  0.62001700  0.97293500  1
  Cl  Cl33  1  0.06722300  0.68724000  0.02706500  1
  Cl  Cl34  1  0.47423300  0.60484100  0.75000000  1
  Cl  Cl35  1  0.14408800  0.95897400  0.75000000  1
  Cl  Cl36  1  0.95897400  0.81488600  0.25000000  1
  Cl  Cl37  1  0.62001700  0.93277700  0.47293500  1
  Cl  Cl38  1  0.37998300  0.06722300  0.52706500  1
  Cl  Cl39  1  0.60484100  0.13060800  0.25000000  1
  Cl  Cl40  1  0.18511400  0.14408800  0.25000000  1
  Cl  Cl41  1  0.39515900  0.86939200  0.75000000  1
  O  O42  1  0.83160500  0.58064000  0.75000000  1
  O  O43  1  0.41936000  0.25096500  0.75000000  1
  O  O44  1  0.25096500  0.83160500  0.25000000  1
  O  O45  1  0.74903500  0.16839500  0.75000000  1
  O  O46  1  0.16839500  0.41936000  0.25000000  1
  O  O47  1  0.58064000  0.74903500  0.25000000  1
