# generated using pymatgen
data_Nb4Te9I4O
_symmetry_space_group_name_H-M   'P 1'
_cell_length_a   23.11869800
_cell_length_b   6.30845600
_cell_length_c   20.89001205
_cell_angle_alpha   90.00000000
_cell_angle_beta   122.50091612
_cell_angle_gamma   90.00000000
_symmetry_Int_Tables_number   1
_chemical_formula_structural   Nb4Te9I4O
_chemical_formula_sum   'Nb16 Te36 I16 O4'
_cell_volume   2569.50761198
_cell_formula_units_Z   4
loop_
 _symmetry_equiv_pos_site_id
 _symmetry_equiv_pos_as_xyz
  1  'x, y, z'
loop_
 _atom_site_type_symbol
 _atom_site_label
 _atom_site_symmetry_multiplicity
 _atom_site_fract_x
 _atom_site_fract_y
 _atom_site_fract_z
 _atom_site_occupancy
  Nb  Nb0  1  0.56074000  0.44392000  0.35368300  1
  Nb  Nb1  1  0.43926000  0.44392000  0.14631700  1
  Nb  Nb2  1  0.56074000  0.55608000  0.85368300  1
  Nb  Nb3  1  0.57779000  0.20264800  0.23622800  1
  Nb  Nb4  1  0.57779000  0.79735200  0.73622800  1
  Nb  Nb5  1  0.42221000  0.79735200  0.76377200  1
  Nb  Nb6  1  0.42221000  0.20264800  0.26377200  1
  Nb  Nb7  1  0.43926000  0.55608000  0.64631700  1
  Nb  Nb8  1  0.06074000  0.94392000  0.35368300  1
  Nb  Nb9  1  0.93926000  0.94392000  0.14631700  1
  Nb  Nb10  1  0.06074000  0.05608000  0.85368300  1
  Nb  Nb11  1  0.07779000  0.70264800  0.23622800  1
  Nb  Nb12  1  0.07779000  0.29735200  0.73622800  1
  Nb  Nb13  1  0.92221000  0.29735200  0.76377200  1
  Nb  Nb14  1  0.92221000  0.70264800  0.26377200  1
  Nb  Nb15  1  0.93926000  0.05608000  0.64631700  1
  Te  Te16  1  0.55440650  0.50616850  0.12699400  1
  Te  Te17  1  0.52397350  0.85445150  0.92696400  1
  Te  Te18  1  0.66760900  0.85570200  0.90119400  1
  Te  Te19  1  0.44559350  0.49383150  0.87300600  1
  Te  Te20  1  0.52397350  0.14554850  0.42696400  1
  Te  Te21  1  0.47602650  0.14554850  0.07303600  1
  Te  Te22  1  0.50000000  0.19574800  0.75000000  1
  Te  Te23  1  0.33239100  0.14429800  0.09880600  1
  Te  Te24  1  0.50000000  0.80425200  0.25000000  1
  Te  Te25  1  0.55440650  0.49383150  0.62699400  1
  Te  Te26  1  0.17472100  0.00555900  0.33268400  1
  Te  Te27  1  0.32527900  0.50555900  0.16731600  1
  Te  Te28  1  0.47602650  0.85445150  0.57303600  1
  Te  Te29  1  0.66760900  0.14429800  0.40119400  1
  Te  Te30  1  0.82527900  0.99444100  0.66731600  1
  Te  Te31  1  0.67472100  0.49444100  0.83268400  1
  Te  Te32  1  0.33239100  0.85570200  0.59880600  1
  Te  Te33  1  0.44559350  0.50616850  0.37300600  1
  Te  Te34  1  0.05440650  0.00616850  0.12699400  1
  Te  Te35  1  0.02397350  0.35445150  0.92696400  1
  Te  Te36  1  0.16760900  0.35570200  0.90119400  1
  Te  Te37  1  0.94559350  0.99383150  0.87300600  1
  Te  Te38  1  0.02397350  0.64554850  0.42696400  1
  Te  Te39  1  0.97602650  0.64554850  0.07303600  1
  Te  Te40  1  0.00000000  0.69574800  0.75000000  1
  Te  Te41  1  0.83239100  0.64429800  0.09880600  1
  Te  Te42  1  0.00000000  0.30425200  0.25000000  1
  Te  Te43  1  0.05440650  0.99383150  0.62699400  1
  Te  Te44  1  0.67472100  0.50555900  0.33268400  1
  Te  Te45  1  0.82527900  0.00555900  0.16731600  1
  Te  Te46  1  0.97602650  0.35445150  0.57303600  1
  Te  Te47  1  0.16760900  0.64429800  0.40119400  1
  Te  Te48  1  0.32527900  0.49444100  0.66731600  1
  Te  Te49  1  0.17472100  0.99444100  0.83268400  1
  Te  Te50  1  0.83239100  0.35570200  0.59880600  1
  Te  Te51  1  0.94559350  0.00616850  0.37300600  1
  I  I52  1  0.63722200  0.69806800  0.48630200  1
  I  I53  1  0.36277800  0.69806800  0.01369800  1
  I  I54  1  0.83187150  0.56029750  0.78026900  1
  I  I55  1  0.63722200  0.30193200  0.98630200  1
  I  I56  1  0.36277800  0.30193200  0.51369800  1
  I  I57  1  0.33187150  0.93970250  0.28026900  1
  I  I58  1  0.16812850  0.43970250  0.21973100  1
  I  I59  1  0.66812850  0.06029750  0.71973100  1
  I  I60  1  0.13722200  0.19806800  0.48630200  1
  I  I61  1  0.86277800  0.19806800  0.01369800  1
  I  I62  1  0.33187150  0.06029750  0.78026900  1
  I  I63  1  0.13722200  0.80193200  0.98630200  1
  I  I64  1  0.86277800  0.80193200  0.51369800  1
  I  I65  1  0.83187150  0.43970250  0.28026900  1
  I  I66  1  0.66812850  0.93970250  0.21973100  1
  I  I67  1  0.16812850  0.56029750  0.71973100  1
  O  O68  1  0.50000000  0.25964800  0.25000000  1
  O  O69  1  0.50000000  0.74035200  0.75000000  1
  O  O70  1  0.00000000  0.75964800  0.25000000  1
  O  O71  1  0.00000000  0.24035200  0.75000000  1
