# generated using pymatgen
data_TlBr
_symmetry_space_group_name_H-M   'P 1'
_cell_length_a   4.47338200
_cell_length_b   12.66748600
_cell_length_c   5.06230700
_cell_angle_alpha   90.00000000
_cell_angle_beta   90.00000000
_cell_angle_gamma   90.00000000
_symmetry_Int_Tables_number   1
_chemical_formula_structural   TlBr
_chemical_formula_sum   'Tl4 Br4'
_cell_volume   286.86323914
_cell_formula_units_Z   4
loop_
 _symmetry_equiv_pos_site_id
 _symmetry_equiv_pos_as_xyz
  1  'x, y, z'
loop_
 _atom_site_type_symbol
 _atom_site_label
 _atom_site_symmetry_multiplicity
 _atom_site_fract_x
 _atom_site_fract_y
 _atom_site_fract_z
 _atom_site_occupancy
  Tl  Tl0  1  0.00000000  0.61429600  0.75000000  1
  Tl  Tl1  1  0.50000000  0.88570400  0.25000000  1
  Tl  Tl2  1  0.50000000  0.11429600  0.75000000  1
  Tl  Tl3  1  0.00000000  0.38570400  0.25000000  1
  Br  Br4  1  0.50000000  0.63239800  0.25000000  1
  Br  Br5  1  0.00000000  0.86760200  0.75000000  1
  Br  Br6  1  0.00000000  0.13239800  0.25000000  1
  Br  Br7  1  0.50000000  0.36760200  0.75000000  1
