# generated using pymatgen
data_Hg2SeO3
_symmetry_space_group_name_H-M   'P 1'
_cell_length_a   11.35639000
_cell_length_b   17.07089200
_cell_length_c   5.26754500
_cell_angle_alpha   90.00000000
_cell_angle_beta   90.00000000
_cell_angle_gamma   90.00000000
_symmetry_Int_Tables_number   1
_chemical_formula_structural   Hg2SeO3
_chemical_formula_sum   'Hg16 Se8 O24'
_cell_volume   1021.18580154
_cell_formula_units_Z   8
loop_
 _symmetry_equiv_pos_site_id
 _symmetry_equiv_pos_as_xyz
  1  'x, y, z'
loop_
 _atom_site_type_symbol
 _atom_site_label
 _atom_site_symmetry_multiplicity
 _atom_site_fract_x
 _atom_site_fract_y
 _atom_site_fract_z
 _atom_site_occupancy
  Hg  Hg0  1  0.38509050  0.74467950  0.45665700  1
  Hg  Hg1  1  0.61490950  0.25532050  0.95665700  1
  Hg  Hg2  1  0.88499800  0.08172400  0.97458500  1
  Hg  Hg3  1  0.61490950  0.74467950  0.45665700  1
  Hg  Hg4  1  0.11500200  0.08172400  0.97458500  1
  Hg  Hg5  1  0.88499800  0.91827600  0.47458500  1
  Hg  Hg6  1  0.11500200  0.91827600  0.47458500  1
  Hg  Hg7  1  0.38509050  0.25532050  0.95665700  1
  Hg  Hg8  1  0.88509050  0.24467950  0.45665700  1
  Hg  Hg9  1  0.11490950  0.75532050  0.95665700  1
  Hg  Hg10  1  0.38499800  0.58172400  0.97458500  1
  Hg  Hg11  1  0.11490950  0.24467950  0.45665700  1
  Hg  Hg12  1  0.61500200  0.58172400  0.97458500  1
  Hg  Hg13  1  0.38499800  0.41827600  0.47458500  1
  Hg  Hg14  1  0.61500200  0.41827600  0.47458500  1
  Hg  Hg15  1  0.88509050  0.75532050  0.95665700  1
  Se  Se16  1  0.32123300  0.10670200  0.41250200  1
  Se  Se17  1  0.67876700  0.89329800  0.91250200  1
  Se  Se18  1  0.67876700  0.10670200  0.41250200  1
  Se  Se19  1  0.32123300  0.89329800  0.91250200  1
  Se  Se20  1  0.82123300  0.60670200  0.41250200  1
  Se  Se21  1  0.17876700  0.39329800  0.91250200  1
  Se  Se22  1  0.17876700  0.60670200  0.41250200  1
  Se  Se23  1  0.82123300  0.39329800  0.91250200  1
  O  O24  1  0.69599150  0.20683950  0.48355600  1
  O  O25  1  0.30465000  0.10672200  0.08272100  1
  O  O26  1  0.30400850  0.20683950  0.48355600  1
  O  O27  1  0.81059850  0.93092050  0.00847900  1
  O  O28  1  0.69599150  0.79316050  0.98355600  1
  O  O29  1  0.30400850  0.79316050  0.98355600  1
  O  O30  1  0.81059850  0.06907950  0.50847900  1
  O  O31  1  0.18940150  0.93092050  0.00847900  1
  O  O32  1  0.69535000  0.89327800  0.58272100  1
  O  O33  1  0.30465000  0.89327800  0.58272100  1
  O  O34  1  0.69535000  0.10672200  0.08272100  1
  O  O35  1  0.18940150  0.06907950  0.50847900  1
  O  O36  1  0.19599150  0.70683950  0.48355600  1
  O  O37  1  0.80465000  0.60672200  0.08272100  1
  O  O38  1  0.80400850  0.70683950  0.48355600  1
  O  O39  1  0.31059850  0.43092050  0.00847900  1
  O  O40  1  0.19599150  0.29316050  0.98355600  1
  O  O41  1  0.80400850  0.29316050  0.98355600  1
  O  O42  1  0.31059850  0.56907950  0.50847900  1
  O  O43  1  0.68940150  0.43092050  0.00847900  1
  O  O44  1  0.19535000  0.39327800  0.58272100  1
  O  O45  1  0.80465000  0.39327800  0.58272100  1
  O  O46  1  0.19535000  0.60672200  0.08272100  1
  O  O47  1  0.68940150  0.56907950  0.50847900  1
