# generated using pymatgen
data_CaSb10(S3O5)2
_symmetry_space_group_name_H-M   'P 1'
_cell_length_a   25.91139200
_cell_length_b   5.76545600
_cell_length_c   17.24906491
_cell_angle_alpha   90.00000000
_cell_angle_beta   117.73033386
_cell_angle_gamma   90.00000000
_symmetry_Int_Tables_number   1
_chemical_formula_structural   CaSb10(S3O5)2
_chemical_formula_sum   'Ca4 Sb40 S24 O40'
_cell_volume   2280.89641388
_cell_formula_units_Z   4
loop_
 _symmetry_equiv_pos_site_id
 _symmetry_equiv_pos_as_xyz
  1  'x, y, z'
loop_
 _atom_site_type_symbol
 _atom_site_label
 _atom_site_symmetry_multiplicity
 _atom_site_fract_x
 _atom_site_fract_y
 _atom_site_fract_z
 _atom_site_occupancy
  Ca  Ca0  1  0.00000000  0.45024200  0.75000000  1
  Ca  Ca1  1  0.00000000  0.54975800  0.25000000  1
  Ca  Ca2  1  0.50000000  0.95024200  0.75000000  1
  Ca  Ca3  1  0.50000000  0.04975800  0.25000000  1
  Sb  Sb4  1  0.04781500  0.99498100  0.91075800  1
  Sb  Sb5  1  0.95218500  0.99498100  0.58924200  1
  Sb  Sb6  1  0.95218500  0.00501900  0.08924200  1
  Sb  Sb7  1  0.04781500  0.00501900  0.41075800  1
  Sb  Sb8  1  0.44002700  0.94238000  0.91533500  1
  Sb  Sb9  1  0.05997300  0.44238000  0.58466500  1
  Sb  Sb10  1  0.55997300  0.05762000  0.08466500  1
  Sb  Sb11  1  0.94002700  0.55762000  0.41533500  1
  Sb  Sb12  1  0.09762650  0.88872750  0.75209200  1
  Sb  Sb13  1  0.90237350  0.88872750  0.74790800  1
  Sb  Sb14  1  0.90237350  0.11127250  0.24790800  1
  Sb  Sb15  1  0.09762650  0.11127250  0.25209200  1
  Sb  Sb16  1  0.83503300  0.38376400  0.54790300  1
  Sb  Sb17  1  0.16496700  0.38376400  0.95209700  1
  Sb  Sb18  1  0.16496700  0.61623600  0.45209700  1
  Sb  Sb19  1  0.83503300  0.61623600  0.04790300  1
  Sb  Sb20  1  0.27258950  0.59344650  0.86616400  1
  Sb  Sb21  1  0.22741050  0.09344650  0.63383600  1
  Sb  Sb22  1  0.72741050  0.40655350  0.13383600  1
  Sb  Sb23  1  0.77258950  0.90655350  0.36616400  1
  Sb  Sb24  1  0.54781500  0.49498100  0.91075800  1
  Sb  Sb25  1  0.45218500  0.49498100  0.58924200  1
  Sb  Sb26  1  0.45218500  0.50501900  0.08924200  1
  Sb  Sb27  1  0.54781500  0.50501900  0.41075800  1
  Sb  Sb28  1  0.94002700  0.44238000  0.91533500  1
  Sb  Sb29  1  0.55997300  0.94238000  0.58466500  1
  Sb  Sb30  1  0.05997300  0.55762000  0.08466500  1
  Sb  Sb31  1  0.44002700  0.05762000  0.41533500  1
  Sb  Sb32  1  0.59762650  0.38872750  0.75209200  1
  Sb  Sb33  1  0.40237350  0.38872750  0.74790800  1
  Sb  Sb34  1  0.40237350  0.61127250  0.24790800  1
  Sb  Sb35  1  0.59762650  0.61127250  0.25209200  1
  Sb  Sb36  1  0.33503300  0.88376400  0.54790300  1
  Sb  Sb37  1  0.66496700  0.88376400  0.95209700  1
  Sb  Sb38  1  0.66496700  0.11623600  0.45209700  1
  Sb  Sb39  1  0.33503300  0.11623600  0.04790300  1
  Sb  Sb40  1  0.77258950  0.09344650  0.86616400  1
  Sb  Sb41  1  0.72741050  0.59344650  0.63383600  1
  Sb  Sb42  1  0.22741050  0.90655350  0.13383600  1
  Sb  Sb43  1  0.27258950  0.40655350  0.36616400  1
  S  S44  1  0.20561750  0.98028350  0.97469800  1
  S  S45  1  0.79438250  0.98028350  0.52530200  1
  S  S46  1  0.79438250  0.01971650  0.02530200  1
  S  S47  1  0.20561750  0.01971650  0.47469800  1
  S  S48  1  0.32834500  0.92869600  0.68834100  1
  S  S49  1  0.17165500  0.42869600  0.81165900  1
  S  S50  1  0.67165500  0.07130400  0.31165900  1
  S  S51  1  0.82834500  0.57130400  0.18834100  1
  S  S52  1  0.17583150  0.75803950  0.64360100  1
  S  S53  1  0.32416850  0.25803950  0.85639900  1
  S  S54  1  0.82416850  0.24196050  0.35639900  1
  S  S55  1  0.67583150  0.74196050  0.14360100  1
  S  S56  1  0.70561750  0.48028350  0.97469800  1
  S  S57  1  0.29438250  0.48028350  0.52530200  1
  S  S58  1  0.29438250  0.51971650  0.02530200  1
  S  S59  1  0.70561750  0.51971650  0.47469800  1
  S  S60  1  0.82834500  0.42869600  0.68834100  1
  S  S61  1  0.67165500  0.92869600  0.81165900  1
  S  S62  1  0.17165500  0.57130400  0.31165900  1
  S  S63  1  0.32834500  0.07130400  0.18834100  1
  S  S64  1  0.67583150  0.25803950  0.64360100  1
  S  S65  1  0.82416850  0.75803950  0.85639900  1
  S  S66  1  0.32416850  0.74196050  0.35639900  1
  S  S67  1  0.17583150  0.24196050  0.14360100  1
  O  O68  1  0.97584400  0.32740500  0.51765300  1
  O  O69  1  0.02415600  0.32740500  0.98234700  1
  O  O70  1  0.02415600  0.67259500  0.48234700  1
  O  O71  1  0.97584400  0.67259500  0.01765300  1
  O  O72  1  0.91719500  0.25407300  0.62771900  1
  O  O73  1  0.08280500  0.25407300  0.87228100  1
  O  O74  1  0.08280500  0.74592700  0.37228100  1
  O  O75  1  0.91719500  0.74592700  0.12771900  1
  O  O76  1  0.04359800  0.64454600  0.66471000  1
  O  O77  1  0.95640200  0.64454600  0.83529000  1
  O  O78  1  0.95640200  0.35545400  0.33529000  1
  O  O79  1  0.04359800  0.35545400  0.16471000  1
  O  O80  1  0.06175950  0.77944650  0.82682400  1
  O  O81  1  0.93824050  0.77944650  0.67317600  1
  O  O82  1  0.93824050  0.22055350  0.17317600  1
  O  O83  1  0.06175950  0.22055350  0.32682400  1
  O  O84  1  0.96918400  0.11968900  0.82104800  1
  O  O85  1  0.03081600  0.11968900  0.67895200  1
  O  O86  1  0.03081600  0.88031100  0.17895200  1
  O  O87  1  0.96918400  0.88031100  0.32104800  1
  O  O88  1  0.47584400  0.82740500  0.51765300  1
  O  O89  1  0.52415600  0.82740500  0.98234700  1
  O  O90  1  0.52415600  0.17259500  0.48234700  1
  O  O91  1  0.47584400  0.17259500  0.01765300  1
  O  O92  1  0.41719500  0.75407300  0.62771900  1
  O  O93  1  0.58280500  0.75407300  0.87228100  1
  O  O94  1  0.58280500  0.24592700  0.37228100  1
  O  O95  1  0.41719500  0.24592700  0.12771900  1
  O  O96  1  0.54359800  0.14454600  0.66471000  1
  O  O97  1  0.45640200  0.14454600  0.83529000  1
  O  O98  1  0.45640200  0.85545400  0.33529000  1
  O  O99  1  0.54359800  0.85545400  0.16471000  1
  O  O100  1  0.56175950  0.27944650  0.82682400  1
  O  O101  1  0.43824050  0.27944650  0.67317600  1
  O  O102  1  0.43824050  0.72055350  0.17317600  1
  O  O103  1  0.56175950  0.72055350  0.32682400  1
  O  O104  1  0.46918400  0.61968900  0.82104800  1
  O  O105  1  0.53081600  0.61968900  0.67895200  1
  O  O106  1  0.53081600  0.38031100  0.17895200  1
  O  O107  1  0.46918400  0.38031100  0.32104800  1
