# generated using pymatgen
data_BaB2F8
_symmetry_space_group_name_H-M   'P 1'
_cell_length_a   12.76276800
_cell_length_b   5.11025600
_cell_length_c   4.85647057
_cell_angle_alpha   90.00000000
_cell_angle_beta   112.02345427
_cell_angle_gamma   90.00000000
_symmetry_Int_Tables_number   1
_chemical_formula_structural   BaB2F8
_chemical_formula_sum   'Ba2 B4 F16'
_cell_volume   293.63125611
_cell_formula_units_Z   2
loop_
 _symmetry_equiv_pos_site_id
 _symmetry_equiv_pos_as_xyz
  1  'x, y, z'
loop_
 _atom_site_type_symbol
 _atom_site_label
 _atom_site_symmetry_multiplicity
 _atom_site_fract_x
 _atom_site_fract_y
 _atom_site_fract_z
 _atom_site_occupancy
  Ba  Ba0  1  0.00000000  0.00000000  0.00000000  1
  Ba  Ba1  1  0.50000000  0.50000000  0.00000000  1
  B  B2  1  0.15233800  0.50000000  0.70864400  1
  B  B3  1  0.34766200  0.00000000  0.29135600  1
  B  B4  1  0.65233800  0.00000000  0.70864400  1
  B  B5  1  0.84766200  0.50000000  0.29135600  1
  F  F6  1  0.11561700  0.27215300  0.53255500  1
  F  F7  1  0.22953600  0.00000000  0.14910200  1
  F  F8  1  0.11561700  0.72784700  0.53255500  1
  F  F9  1  0.10081700  0.50000000  0.92622100  1
  F  F10  1  0.38438300  0.77215300  0.46744500  1
  F  F11  1  0.38438300  0.22784700  0.46744500  1
  F  F12  1  0.27046400  0.50000000  0.85089800  1
  F  F13  1  0.39918300  0.00000000  0.07377900  1
  F  F14  1  0.61561700  0.77215300  0.53255500  1
  F  F15  1  0.72953600  0.50000000  0.14910200  1
  F  F16  1  0.61561700  0.22784700  0.53255500  1
  F  F17  1  0.60081700  0.00000000  0.92622100  1
  F  F18  1  0.88438300  0.27215300  0.46744500  1
  F  F19  1  0.88438300  0.72784700  0.46744500  1
  F  F20  1  0.77046400  0.00000000  0.85089800  1
  F  F21  1  0.89918300  0.50000000  0.07377900  1
