# generated using pymatgen
data_Ti(PO3)4
_symmetry_space_group_name_H-M   'P 1'
_cell_length_a   12.43231000
_cell_length_b   8.21802400
_cell_length_c   9.89214112
_cell_angle_alpha   90.00000000
_cell_angle_beta   115.98539020
_cell_angle_gamma   90.00000000
_symmetry_Int_Tables_number   1
_chemical_formula_structural   Ti(PO3)4
_chemical_formula_sum   'Ti4 P16 O48'
_cell_volume   908.49746664
_cell_formula_units_Z   4
loop_
 _symmetry_equiv_pos_site_id
 _symmetry_equiv_pos_as_xyz
  1  'x, y, z'
loop_
 _atom_site_type_symbol
 _atom_site_label
 _atom_site_symmetry_multiplicity
 _atom_site_fract_x
 _atom_site_fract_y
 _atom_site_fract_z
 _atom_site_occupancy
  Ti  Ti0  1  0.25000000  0.75000000  0.00000000  1
  Ti  Ti1  1  0.75000000  0.75000000  0.50000000  1
  Ti  Ti2  1  0.75000000  0.25000000  0.00000000  1
  Ti  Ti3  1  0.25000000  0.25000000  0.50000000  1
  P  P4  1  0.00530300  0.25361500  0.53347100  1
  P  P5  1  0.99469700  0.25361500  0.96652900  1
  P  P6  1  0.17523250  0.48277250  0.18568400  1
  P  P7  1  0.00530300  0.74638500  0.03347100  1
  P  P8  1  0.99469700  0.74638500  0.46652900  1
  P  P9  1  0.82476750  0.48277250  0.31431600  1
  P  P10  1  0.17523250  0.51722750  0.68568400  1
  P  P11  1  0.82476750  0.51722750  0.81431600  1
  P  P12  1  0.50530300  0.75361500  0.53347100  1
  P  P13  1  0.49469700  0.75361500  0.96652900  1
  P  P14  1  0.67523250  0.98277250  0.18568400  1
  P  P15  1  0.50530300  0.24638500  0.03347100  1
  P  P16  1  0.49469700  0.24638500  0.46652900  1
  P  P17  1  0.32476750  0.98277250  0.31431600  1
  P  P18  1  0.67523250  0.01722750  0.68568400  1
  P  P19  1  0.32476750  0.01722750  0.81431600  1
  O  O20  1  0.06345900  0.40422200  0.65607200  1
  O  O21  1  0.77406550  0.58104650  0.65519200  1
  O  O22  1  0.22593450  0.41895350  0.34480800  1
  O  O23  1  0.07991500  0.25443000  0.44292800  1
  O  O24  1  0.07991500  0.74557000  0.94292800  1
  O  O25  1  0.06345900  0.59577800  0.15607200  1
  O  O26  1  0.73644950  0.42542350  0.85438200  1
  O  O27  1  0.87611050  0.66775150  0.92466400  1
  O  O28  1  0.87611050  0.33224850  0.42466400  1
  O  O29  1  0.98844200  0.89219100  0.10522300  1
  O  O30  1  0.93654100  0.59577800  0.34392800  1
  O  O31  1  0.77406550  0.41895350  0.15519200  1
  O  O32  1  0.26355050  0.42542350  0.64561800  1
  O  O33  1  0.01155800  0.89219100  0.39477700  1
  O  O34  1  0.98844200  0.10780900  0.60522300  1
  O  O35  1  0.92008500  0.25443000  0.05707200  1
  O  O36  1  0.22593450  0.58104650  0.84480800  1
  O  O37  1  0.92008500  0.74557000  0.55707200  1
  O  O38  1  0.01155800  0.10780900  0.89477700  1
  O  O39  1  0.12388950  0.66775150  0.57533600  1
  O  O40  1  0.12388950  0.33224850  0.07533600  1
  O  O41  1  0.26355050  0.57457650  0.14561800  1
  O  O42  1  0.93654100  0.40422200  0.84392800  1
  O  O43  1  0.73644950  0.57457650  0.35438200  1
  O  O44  1  0.56345900  0.90422200  0.65607200  1
  O  O45  1  0.27406550  0.08104650  0.65519200  1
  O  O46  1  0.72593450  0.91895350  0.34480800  1
  O  O47  1  0.57991500  0.75443000  0.44292800  1
  O  O48  1  0.57991500  0.24557000  0.94292800  1
  O  O49  1  0.56345900  0.09577800  0.15607200  1
  O  O50  1  0.23644950  0.92542350  0.85438200  1
  O  O51  1  0.37611050  0.16775150  0.92466400  1
  O  O52  1  0.37611050  0.83224850  0.42466400  1
  O  O53  1  0.48844200  0.39219100  0.10522300  1
  O  O54  1  0.43654100  0.09577800  0.34392800  1
  O  O55  1  0.27406550  0.91895350  0.15519200  1
  O  O56  1  0.76355050  0.92542350  0.64561800  1
  O  O57  1  0.51155800  0.39219100  0.39477700  1
  O  O58  1  0.48844200  0.60780900  0.60522300  1
  O  O59  1  0.42008500  0.75443000  0.05707200  1
  O  O60  1  0.72593450  0.08104650  0.84480800  1
  O  O61  1  0.42008500  0.24557000  0.55707200  1
  O  O62  1  0.51155800  0.60780900  0.89477700  1
  O  O63  1  0.62388950  0.16775150  0.57533600  1
  O  O64  1  0.62388950  0.83224850  0.07533600  1
  O  O65  1  0.76355050  0.07457650  0.14561800  1
  O  O66  1  0.43654100  0.90422200  0.84392800  1
  O  O67  1  0.23644950  0.07457650  0.35438200  1
