# generated using pymatgen
data_LiMo2(PO4)3
_symmetry_space_group_name_H-M   'P 1'
_cell_length_a   15.21726800
_cell_length_b   8.87257400
_cell_length_c   8.81275601
_cell_angle_alpha   90.00000000
_cell_angle_beta   124.48804939
_cell_angle_gamma   90.00000000
_symmetry_Int_Tables_number   1
_chemical_formula_structural   LiMo2(PO4)3
_chemical_formula_sum   'Li4 Mo8 P12 O48'
_cell_volume   980.74030544
_cell_formula_units_Z   4
loop_
 _symmetry_equiv_pos_site_id
 _symmetry_equiv_pos_as_xyz
  1  'x, y, z'
loop_
 _atom_site_type_symbol
 _atom_site_label
 _atom_site_symmetry_multiplicity
 _atom_site_fract_x
 _atom_site_fract_y
 _atom_site_fract_z
 _atom_site_occupancy
  Li  Li0  1  0.24104200  0.17318400  0.23755300  1
  Li  Li1  1  0.75895800  0.17318400  0.76244700  1
  Li  Li2  1  0.74104200  0.67318400  0.23755300  1
  Li  Li3  1  0.25895800  0.67318400  0.76244700  1
  Mo  Mo4  1  0.39111300  0.75163800  0.17506200  1
  Mo  Mo5  1  0.60888700  0.75163800  0.82493800  1
  Mo  Mo6  1  0.39139300  0.24980500  0.67374900  1
  Mo  Mo7  1  0.60860700  0.24980500  0.32625100  1
  Mo  Mo8  1  0.89111300  0.25163800  0.17506200  1
  Mo  Mo9  1  0.10888700  0.25163800  0.82493800  1
  Mo  Mo10  1  0.89139300  0.74980500  0.67374900  1
  Mo  Mo11  1  0.10860700  0.74980500  0.32625100  1
  P  P12  1  0.35606750  0.10386150  0.00451700  1
  P  P13  1  0.35261650  0.89334350  0.49839100  1
  P  P14  1  0.50000000  0.46197300  0.50000000  1
  P  P15  1  0.50000000  0.54006000  0.00000000  1
  P  P16  1  0.64393250  0.10386150  0.99548300  1
  P  P17  1  0.64738350  0.89334350  0.50160900  1
  P  P18  1  0.85606750  0.60386150  0.00451700  1
  P  P19  1  0.85261650  0.39334350  0.49839100  1
  P  P20  1  0.00000000  0.96197300  0.50000000  1
  P  P21  1  0.00000000  0.04006000  0.00000000  1
  P  P22  1  0.14393250  0.60386150  0.99548300  1
  P  P23  1  0.14738350  0.39334350  0.50160900  1
  O  O24  1  0.06511300  0.05892000  0.67515800  1
  O  O25  1  0.65908050  0.84807150  0.68197500  1
  O  O26  1  0.34687000  0.92960200  0.00357200  1
  O  O27  1  0.46289600  0.15672800  0.17832500  1
  O  O28  1  0.58063350  0.35753450  0.49760100  1
  O  O29  1  0.45765050  0.84284250  0.67032200  1
  O  O30  1  0.34091950  0.84807150  0.31802500  1
  O  O31  1  0.26670950  0.17281350  0.01627300  1
  O  O32  1  0.26261000  0.81614800  0.50365200  1
  O  O33  1  0.33690550  0.06666250  0.48463000  1
  O  O34  1  0.93488700  0.05892000  0.32484200  1
  O  O35  1  0.41936650  0.35753450  0.50239900  1
  O  O36  1  0.58543800  0.64315400  0.00649500  1
  O  O37  1  0.06213000  0.94739900  0.17637800  1
  O  O38  1  0.73329050  0.17281350  0.98372700  1
  O  O39  1  0.65313000  0.92960200  0.99642800  1
  O  O40  1  0.73739000  0.81614800  0.49634800  1
  O  O41  1  0.65273400  0.14563700  0.17272100  1
  O  O42  1  0.53710400  0.15672800  0.82167500  1
  O  O43  1  0.41456200  0.64315400  0.99350500  1
  O  O44  1  0.54234950  0.84284250  0.32967800  1
  O  O45  1  0.66309450  0.06666250  0.51537000  1
  O  O46  1  0.34726600  0.14563700  0.82727900  1
  O  O47  1  0.93787000  0.94739900  0.82362200  1
  O  O48  1  0.56511300  0.55892000  0.67515800  1
  O  O49  1  0.15908050  0.34807150  0.68197500  1
  O  O50  1  0.84687000  0.42960200  0.00357200  1
  O  O51  1  0.96289600  0.65672800  0.17832500  1
  O  O52  1  0.08063350  0.85753450  0.49760100  1
  O  O53  1  0.95765050  0.34284250  0.67032200  1
  O  O54  1  0.84091950  0.34807150  0.31802500  1
  O  O55  1  0.76670950  0.67281350  0.01627300  1
  O  O56  1  0.76261000  0.31614800  0.50365200  1
  O  O57  1  0.83690550  0.56666250  0.48463000  1
  O  O58  1  0.43488700  0.55892000  0.32484200  1
  O  O59  1  0.91936650  0.85753450  0.50239900  1
  O  O60  1  0.08543800  0.14315400  0.00649500  1
  O  O61  1  0.56213000  0.44739900  0.17637800  1
  O  O62  1  0.23329050  0.67281350  0.98372700  1
  O  O63  1  0.15313000  0.42960200  0.99642800  1
  O  O64  1  0.23739000  0.31614800  0.49634800  1
  O  O65  1  0.15273400  0.64563700  0.17272100  1
  O  O66  1  0.03710400  0.65672800  0.82167500  1
  O  O67  1  0.91456200  0.14315400  0.99350500  1
  O  O68  1  0.04234950  0.34284250  0.32967800  1
  O  O69  1  0.16309450  0.56666250  0.51537000  1
  O  O70  1  0.84726600  0.64563700  0.82727900  1
  O  O71  1  0.43787000  0.44739900  0.82362200  1
