# generated using pymatgen
data_Li2Ta2(OF2)3
_symmetry_space_group_name_H-M   'P 1'
_cell_length_a   5.67194075
_cell_length_b   5.67194075
_cell_length_c   21.27847600
_cell_angle_alpha   90.00000000
_cell_angle_beta   90.00000000
_cell_angle_gamma   120.00000000
_symmetry_Int_Tables_number   1
_chemical_formula_structural   Li2Ta2(OF2)3
_chemical_formula_sum   'Li6 Ta6 O9 F18'
_cell_volume   592.83593841
_cell_formula_units_Z   3
loop_
 _symmetry_equiv_pos_site_id
 _symmetry_equiv_pos_as_xyz
  1  'x, y, z'
loop_
 _atom_site_type_symbol
 _atom_site_label
 _atom_site_symmetry_multiplicity
 _atom_site_fract_x
 _atom_site_fract_y
 _atom_site_fract_z
 _atom_site_occupancy
  Li  Li0  1  0.44700333  0.45286767  0.14199300  1
  Li  Li1  1  0.99413567  0.54713233  0.52467367  1
  Li  Li2  1  0.45286767  0.44700333  0.85800700  1
  Li  Li3  1  0.54713233  0.99413567  0.47532633  1
  Li  Li4  1  0.55299667  0.00586433  0.19134033  1
  Li  Li5  1  0.00586433  0.55299667  0.80865967  1
  Ta  Ta6  1  0.78006433  0.11204967  0.04558800  1
  Ta  Ta7  1  0.66801467  0.88795033  0.62107867  1
  Ta  Ta8  1  0.21993567  0.33198533  0.28774533  1
  Ta  Ta9  1  0.88795033  0.66801467  0.37892133  1
  Ta  Ta10  1  0.33198533  0.21993567  0.71225467  1
  Ta  Ta11  1  0.11204967  0.78006433  0.95441200  1
  O  O12  1  0.09795250  0.00000000  0.33333333  1
  O  O13  1  0.90204750  0.90204750  0.00000000  1
  O  O14  1  0.50628433  0.58074667  0.67512900  1
  O  O15  1  0.58074667  0.50628433  0.32487100  1
  O  O16  1  0.41925333  0.92553767  0.00846233  1
  O  O17  1  0.00000000  0.09795250  0.66666667  1
  O  O18  1  0.92553767  0.41925333  0.99153767  1
  O  O19  1  0.07446233  0.49371567  0.34179567  1
  O  O20  1  0.49371567  0.07446233  0.65820433  1
  F  F21  1  0.36304133  0.70614767  0.55799400  1
  F  F22  1  0.15852433  0.87926067  0.76179300  1
  F  F23  1  0.27926367  0.12073933  0.90487367  1
  F  F24  1  0.83248233  0.63499567  0.88321500  1
  F  F25  1  0.65689367  0.29385233  0.10867267  1
  F  F26  1  0.63499567  0.83248233  0.11678500  1
  F  F27  1  0.19748667  0.36500433  0.78345167  1
  F  F28  1  0.16751767  0.80251333  0.45011833  1
  F  F29  1  0.63695867  0.34310633  0.77533933  1
  F  F30  1  0.72073633  0.84147567  0.42845967  1
  F  F31  1  0.36500433  0.19748667  0.21654833  1
  F  F32  1  0.12073933  0.27926367  0.09512633  1
  F  F33  1  0.87926067  0.15852433  0.23820700  1
  F  F34  1  0.34310633  0.63695867  0.22466067  1
  F  F35  1  0.29385233  0.65689367  0.89132733  1
  F  F36  1  0.70614767  0.36304133  0.44200600  1
  F  F37  1  0.80251333  0.16751767  0.54988167  1
  F  F38  1  0.84147567  0.72073633  0.57154033  1
