# generated using pymatgen
data_ZnS
_symmetry_space_group_name_H-M   'P 1'
_cell_length_a   3.85725603
_cell_length_b   3.85725603
_cell_length_c   56.64383467
_cell_angle_alpha   90.00000000
_cell_angle_beta   90.00000000
_cell_angle_gamma   120.00000000
_symmetry_Int_Tables_number   1
_chemical_formula_structural   ZnS
_chemical_formula_sum   'Zn18 S18'
_cell_volume   729.86109201
_cell_formula_units_Z   18
loop_
 _symmetry_equiv_pos_site_id
 _symmetry_equiv_pos_as_xyz
  1  'x, y, z'
loop_
 _atom_site_type_symbol
 _atom_site_label
 _atom_site_symmetry_multiplicity
 _atom_site_fract_x
 _atom_site_fract_y
 _atom_site_fract_z
 _atom_site_occupancy
  Zn  Zn0  1  0.33333333  0.66666667  0.11109967  1
  Zn  Zn1  1  0.66666667  0.33333333  0.16665233  1
  Zn  Zn2  1  0.33333333  0.66666667  0.27772867  1
  Zn  Zn3  1  0.66666667  0.33333333  0.05553133  1
  Zn  Zn4  1  0.66666667  0.33333333  0.33331733  1
  Zn  Zn5  1  0.00000000  0.00000000  0.22219300  1
  Zn  Zn6  1  0.00000000  0.00000000  0.44443300  1
  Zn  Zn7  1  0.33333333  0.66666667  0.49998567  1
  Zn  Zn8  1  0.00000000  0.00000000  0.61106200  1
  Zn  Zn9  1  0.33333333  0.66666667  0.38886467  1
  Zn  Zn10  1  0.33333333  0.66666667  0.66665067  1
  Zn  Zn11  1  0.66666667  0.33333333  0.55552633  1
  Zn  Zn12  1  0.66666667  0.33333333  0.77776633  1
  Zn  Zn13  1  0.00000000  0.00000000  0.83331900  1
  Zn  Zn14  1  0.66666667  0.33333333  0.94439533  1
  Zn  Zn15  1  0.00000000  0.00000000  0.72219800  1
  Zn  Zn16  1  0.00000000  0.00000000  0.99998400  1
  Zn  Zn17  1  0.33333333  0.66666667  0.88885967  1
  S  S18  1  0.33333333  0.66666667  0.06943567  1
  S  S19  1  0.66666667  0.33333333  0.29164933  1
  S  S20  1  0.33333333  0.66666667  0.23610667  1
  S  S21  1  0.66666667  0.33333333  0.12504833  1
  S  S22  1  0.66666667  0.33333333  0.01393833  1
  S  S23  1  0.00000000  0.00000000  0.18056900  1
  S  S24  1  0.00000000  0.00000000  0.40276900  1
  S  S25  1  0.33333333  0.66666667  0.62498267  1
  S  S26  1  0.00000000  0.00000000  0.56944000  1
  S  S27  1  0.33333333  0.66666667  0.45838167  1
  S  S28  1  0.33333333  0.66666667  0.34727167  1
  S  S29  1  0.66666667  0.33333333  0.51390233  1
  S  S30  1  0.66666667  0.33333333  0.73610233  1
  S  S31  1  0.00000000  0.00000000  0.95831600  1
  S  S32  1  0.66666667  0.33333333  0.90277333  1
  S  S33  1  0.00000000  0.00000000  0.79171500  1
  S  S34  1  0.00000000  0.00000000  0.68060500  1
  S  S35  1  0.33333333  0.66666667  0.84723567  1
