# generated using pymatgen
data_Li3BN2
_symmetry_space_group_name_H-M   'P 1'
_cell_length_a   6.63231200
_cell_length_b   6.63231200
_cell_length_c   10.36940600
_cell_angle_alpha   90.00000000
_cell_angle_beta   90.00000000
_cell_angle_gamma   90.00000000
_symmetry_Int_Tables_number   1
_chemical_formula_structural   Li3BN2
_chemical_formula_sum   'Li24 B8 N16'
_cell_volume   456.12489415
_cell_formula_units_Z   8
loop_
 _symmetry_equiv_pos_site_id
 _symmetry_equiv_pos_as_xyz
  1  'x, y, z'
loop_
 _atom_site_type_symbol
 _atom_site_label
 _atom_site_symmetry_multiplicity
 _atom_site_fract_x
 _atom_site_fract_y
 _atom_site_fract_z
 _atom_site_occupancy
  Li  Li0  1  0.50000000  0.50000000  0.12616600  1
  Li  Li1  1  0.50000000  0.00000000  0.37616600  1
  Li  Li2  1  0.50000000  0.00000000  0.12383400  1
  Li  Li3  1  0.00000000  0.00000000  0.37383400  1
  Li  Li4  1  0.77581400  0.77581400  0.00000000  1
  Li  Li5  1  0.22418600  0.27581400  0.25000000  1
  Li  Li6  1  0.77581400  0.72418600  0.25000000  1
  Li  Li7  1  0.22418600  0.22418600  0.00000000  1
  Li  Li8  1  0.22418600  0.72418600  0.25000000  1
  Li  Li9  1  0.77581400  0.22418600  0.00000000  1
  Li  Li10  1  0.22418600  0.77581400  0.00000000  1
  Li  Li11  1  0.77581400  0.27581400  0.25000000  1
  Li  Li12  1  0.00000000  0.00000000  0.62616600  1
  Li  Li13  1  0.00000000  0.50000000  0.87616600  1
  Li  Li14  1  0.00000000  0.50000000  0.62383400  1
  Li  Li15  1  0.50000000  0.50000000  0.87383400  1
  Li  Li16  1  0.27581400  0.27581400  0.50000000  1
  Li  Li17  1  0.72418600  0.77581400  0.75000000  1
  Li  Li18  1  0.27581400  0.22418600  0.75000000  1
  Li  Li19  1  0.72418600  0.72418600  0.50000000  1
  Li  Li20  1  0.72418600  0.22418600  0.75000000  1
  Li  Li21  1  0.27581400  0.72418600  0.50000000  1
  Li  Li22  1  0.72418600  0.27581400  0.50000000  1
  Li  Li23  1  0.27581400  0.77581400  0.75000000  1
  B  B24  1  0.50000000  0.50000000  0.35298400  1
  B  B25  1  0.00000000  0.50000000  0.10298400  1
  B  B26  1  0.00000000  0.50000000  0.39701600  1
  B  B27  1  0.00000000  0.00000000  0.14701600  1
  B  B28  1  0.00000000  0.00000000  0.85298400  1
  B  B29  1  0.50000000  0.00000000  0.60298400  1
  B  B30  1  0.50000000  0.00000000  0.89701600  1
  B  B31  1  0.50000000  0.50000000  0.64701600  1
  N  N32  1  0.50000000  0.70303500  0.34837100  1
  N  N33  1  0.79696500  0.50000000  0.09837100  1
  N  N34  1  0.20303500  0.50000000  0.09837100  1
  N  N35  1  0.00000000  0.29696500  0.40162900  1
  N  N36  1  0.00000000  0.70303500  0.40162900  1
  N  N37  1  0.20303500  0.00000000  0.15162900  1
  N  N38  1  0.79696500  0.00000000  0.15162900  1
  N  N39  1  0.50000000  0.29696500  0.34837100  1
  N  N40  1  0.00000000  0.20303500  0.84837100  1
  N  N41  1  0.29696500  0.00000000  0.59837100  1
  N  N42  1  0.70303500  0.00000000  0.59837100  1
  N  N43  1  0.50000000  0.79696500  0.90162900  1
  N  N44  1  0.50000000  0.20303500  0.90162900  1
  N  N45  1  0.70303500  0.50000000  0.65162900  1
  N  N46  1  0.29696500  0.50000000  0.65162900  1
  N  N47  1  0.00000000  0.79696500  0.84837100  1
