# generated using pymatgen
data_Ca3(PO4)2
_symmetry_space_group_name_H-M   'P 1'
_cell_length_a   10.54923444
_cell_length_b   10.54923444
_cell_length_c   37.67767373
_cell_angle_alpha   90.00000000
_cell_angle_beta   90.00000000
_cell_angle_gamma   120.00000000
_symmetry_Int_Tables_number   1
_chemical_formula_structural   Ca3(PO4)2
_chemical_formula_sum   'Ca63 P42 O168'
_cell_volume   3631.25376709
_cell_formula_units_Z   21
loop_
 _symmetry_equiv_pos_site_id
 _symmetry_equiv_pos_as_xyz
  1  'x, y, z'
loop_
 _atom_site_type_symbol
 _atom_site_label
 _atom_site_symmetry_multiplicity
 _atom_site_fract_x
 _atom_site_fract_y
 _atom_site_fract_z
 _atom_site_occupancy
  Ca  Ca0  1  0.66666667  0.33333333  0.09832233  1
  Ca  Ca1  1  0.78905167  0.61220633  0.03170733  1
  Ca  Ca2  1  0.38779367  0.17684533  0.03170733  1
  Ca  Ca3  1  0.82315467  0.21094833  0.03170733  1
  Ca  Ca4  1  0.94714000  0.48992800  0.27025500  1
  Ca  Ca5  1  0.54278800  0.05286000  0.27025500  1
  Ca  Ca6  1  0.12864767  0.84283533  0.20033933  1
  Ca  Ca7  1  0.51007200  0.45721200  0.27025500  1
  Ca  Ca8  1  0.94280333  0.47411167  0.16637067  1
  Ca  Ca9  1  0.53130833  0.05719667  0.16637067  1
  Ca  Ca10  1  0.71418767  0.87135233  0.20033933  1
  Ca  Ca11  1  0.15716467  0.28581233  0.20033933  1
  Ca  Ca12  1  0.21472433  0.80662267  0.10708967  1
  Ca  Ca13  1  0.52588833  0.46869167  0.16637067  1
  Ca  Ca14  1  0.19337733  0.40810167  0.10708967  1
  Ca  Ca15  1  0.59189833  0.78527567  0.10708967  1
  Ca  Ca16  1  0.20132467  0.80873033  0.00012133  1
  Ca  Ca17  1  0.19126967  0.39259433  0.00012133  1
  Ca  Ca18  1  0.60740567  0.79867533  0.00012133  1
  Ca  Ca19  1  0.00000000  0.00000000  0.26526300  1
  Ca  Ca20  1  0.00000000  0.00000000  0.07714900  1
  Ca  Ca21  1  0.33333333  0.66666667  0.43165567  1
  Ca  Ca22  1  0.45571833  0.94553967  0.36504067  1
  Ca  Ca23  1  0.05446033  0.51017867  0.36504067  1
  Ca  Ca24  1  0.48982133  0.54428167  0.36504067  1
  Ca  Ca25  1  0.61380667  0.82326133  0.60358833  1
  Ca  Ca26  1  0.20945467  0.38619333  0.60358833  1
  Ca  Ca27  1  0.79531433  0.17616867  0.53367267  1
  Ca  Ca28  1  0.17673867  0.79054533  0.60358833  1
  Ca  Ca29  1  0.60947000  0.80744500  0.49970400  1
  Ca  Ca30  1  0.19797500  0.39053000  0.49970400  1
  Ca  Ca31  1  0.38085433  0.20468567  0.53367267  1
  Ca  Ca32  1  0.82383133  0.61914567  0.53367267  1
  Ca  Ca33  1  0.88139100  0.13995600  0.44042300  1
  Ca  Ca34  1  0.19255500  0.80202500  0.49970400  1
  Ca  Ca35  1  0.86004400  0.74143500  0.44042300  1
  Ca  Ca36  1  0.25856500  0.11860900  0.44042300  1
  Ca  Ca37  1  0.86799133  0.14206367  0.33345467  1
  Ca  Ca38  1  0.85793633  0.72592767  0.33345467  1
  Ca  Ca39  1  0.27407233  0.13200867  0.33345467  1
  Ca  Ca40  1  0.66666667  0.33333333  0.59859633  1
  Ca  Ca41  1  0.66666667  0.33333333  0.41048233  1
  Ca  Ca42  1  0.00000000  0.00000000  0.76498900  1
  Ca  Ca43  1  0.12238500  0.27887300  0.69837400  1
  Ca  Ca44  1  0.72112700  0.84351200  0.69837400  1
  Ca  Ca45  1  0.15648800  0.87761500  0.69837400  1
  Ca  Ca46  1  0.28047333  0.15659467  0.93692167  1
  Ca  Ca47  1  0.87612133  0.71952667  0.93692167  1
  Ca  Ca48  1  0.46198100  0.50950200  0.86700600  1
  Ca  Ca49  1  0.84340533  0.12387867  0.93692167  1
  Ca  Ca50  1  0.27613667  0.14077833  0.83303733  1
  Ca  Ca51  1  0.86464167  0.72386333  0.83303733  1
  Ca  Ca52  1  0.04752100  0.53801900  0.86700600  1
  Ca  Ca53  1  0.49049800  0.95247900  0.86700600  1
  Ca  Ca54  1  0.54805767  0.47328933  0.77375633  1
  Ca  Ca55  1  0.85922167  0.13535833  0.83303733  1
  Ca  Ca56  1  0.52671067  0.07476833  0.77375633  1
  Ca  Ca57  1  0.92523167  0.45194233  0.77375633  1
  Ca  Ca58  1  0.53465800  0.47539700  0.66678800  1
  Ca  Ca59  1  0.52460300  0.05926100  0.66678800  1
  Ca  Ca60  1  0.94073900  0.46534200  0.66678800  1
  Ca  Ca61  1  0.33333333  0.66666667  0.93192967  1
  Ca  Ca62  1  0.33333333  0.66666667  0.74381567  1
  P  P63  1  0.00000000  0.00000000  0.00042300  1
  P  P64  1  0.82864167  0.69849433  0.13128533  1
  P  P65  1  0.30150567  0.13014733  0.13128533  1
  P  P66  1  0.86985267  0.17135833  0.13128533  1
  P  P67  1  0.15766667  0.80504633  0.29830633  1
  P  P68  1  0.64737967  0.84233333  0.29830633  1
  P  P69  1  0.19495367  0.35262033  0.29830633  1
  P  P70  1  0.33333333  0.66666667  0.16466267  1
  P  P71  1  0.01383867  0.52797333  0.06637033  1
  P  P72  1  0.51413467  0.98616133  0.06637033  1
  P  P73  1  0.47202667  0.48586533  0.06637033  1
  P  P74  1  0.84574600  0.19372900  0.23280400  1
  P  P75  1  0.80627100  0.65201700  0.23280400  1
  P  P76  1  0.34798300  0.15425400  0.23280400  1
  P  P77  1  0.66666667  0.33333333  0.33375633  1
  P  P78  1  0.49530833  0.03182767  0.46461867  1
  P  P79  1  0.96817233  0.46348067  0.46461867  1
  P  P80  1  0.53651933  0.50469167  0.46461867  1
  P  P81  1  0.82433333  0.13837967  0.63163967  1
  P  P82  1  0.31404633  0.17566667  0.63163967  1
  P  P83  1  0.86162033  0.68595367  0.63163967  1
  P  P84  1  0.00000000  0.00000000  0.49799600  1
  P  P85  1  0.68050533  0.86130667  0.39970367  1
  P  P86  1  0.18080133  0.31949467  0.39970367  1
  P  P87  1  0.13869333  0.81919867  0.39970367  1
  P  P88  1  0.51241267  0.52706233  0.56613733  1
  P  P89  1  0.47293767  0.98535033  0.56613733  1
  P  P90  1  0.01464967  0.48758733  0.56613733  1
  P  P91  1  0.33333333  0.66666667  0.66708967  1
  P  P92  1  0.16197500  0.36516100  0.79795200  1
  P  P93  1  0.63483900  0.79681400  0.79795200  1
  P  P94  1  0.20318600  0.83802500  0.79795200  1
  P  P95  1  0.49100000  0.47171300  0.96497300  1
  P  P96  1  0.98071300  0.50900000  0.96497300  1
  P  P97  1  0.52828700  0.01928700  0.96497300  1
  P  P98  1  0.66666667  0.33333333  0.83132933  1
  P  P99  1  0.34717200  0.19464000  0.73303700  1
  P  P100  1  0.84746800  0.65282800  0.73303700  1
  P  P101  1  0.80536000  0.15253200  0.73303700  1
  P  P102  1  0.17907933  0.86039567  0.89947067  1
  P  P103  1  0.13960433  0.31868367  0.89947067  1
  P  P104  1  0.68131633  0.82092067  0.89947067  1
  O  O105  1  0.66666667  0.33333333  0.29325833  1
  O  O106  1  0.47089767  0.23562333  0.13502533  1
  O  O107  1  0.76472567  0.52910233  0.13502533  1
  O  O108  1  0.82885000  0.75109300  0.09207100  1
  O  O109  1  0.76437667  0.23527433  0.13502533  1
  O  O110  1  0.24890700  0.07775700  0.09207100  1
  O  O111  1  0.56422767  0.41252133  0.05633133  1
  O  O112  1  0.84829367  0.43577233  0.05633133  1
  O  O113  1  0.92224300  0.17115000  0.09207100  1
  O  O114  1  0.58747867  0.15170633  0.05633133  1
  O  O115  1  0.05568167  0.65963833  0.31897133  1
  O  O116  1  0.31810967  0.89067333  0.31133033  1
  O  O117  1  0.60395667  0.94431833  0.31897133  1
  O  O118  1  0.10932667  0.42743633  0.31133033  1
  O  O119  1  0.14475500  0.76283200  0.25879200  1
  O  O120  1  0.57256367  0.68189033  0.31133033  1
  O  O121  1  0.34036167  0.39604333  0.31897133  1
  O  O122  1  0.40373833  0.05037467  0.22027067  1
  O  O123  1  0.87998600  0.57343400  0.21462700  1
  O  O124  1  0.61807700  0.85524500  0.25879200  1
  O  O125  1  0.23716800  0.38192300  0.25879200  1
  O  O126  1  0.94962533  0.35336367  0.22027067  1
  O  O127  1  0.69344800  0.12001400  0.21462700  1
  O  O128  1  0.98737367  0.77707033  0.14485333  1
  O  O129  1  0.27380267  0.99037233  0.15195133  1
  O  O130  1  0.19485000  0.67218900  0.17656000  1
  O  O131  1  0.47733900  0.80515000  0.17656000  1
  O  O132  1  0.64663633  0.59626167  0.22027067  1
  O  O133  1  0.42656600  0.30655200  0.21462700  1
  O  O134  1  0.32781100  0.52266100  0.17656000  1
  O  O135  1  0.00962767  0.28343033  0.15195133  1
  O  O136  1  0.78969667  0.01262633  0.14485333  1
  O  O137  1  0.03758167  0.53004533  0.10706933  1
  O  O138  1  0.33333333  0.66666667  0.12291567  1
  O  O139  1  0.49246367  0.96241833  0.10706933  1
  O  O140  1  0.71656967  0.72619733  0.15195133  1
  O  O141  1  0.22292967  0.21030333  0.14485333  1
  O  O142  1  0.06945367  0.68841533  0.05464733  1
  O  O143  1  0.36092367  0.90722133  0.04907333  1
  O  O144  1  0.13707267  0.99938233  0.01654133  1
  O  O145  1  0.46995467  0.50753633  0.10706933  1
  O  O146  1  0.61896167  0.93054633  0.05464733  1
  O  O147  1  0.09277867  0.45370233  0.04907333  1
  O  O148  1  0.31158467  0.38103833  0.05464733  1
  O  O149  1  0.54629767  0.63907633  0.04907333  1
  O  O150  1  0.00061767  0.13769033  0.01654133  1
  O  O151  1  0.82255600  0.19716000  0.27336800  1
  O  O152  1  0.09521433  0.18451167  0.30643767  1
  O  O153  1  0.81548833  0.91070267  0.30643767  1
  O  O154  1  0.86230967  0.86292733  0.01654133  1
  O  O155  1  0.08929733  0.90478567  0.30643767  1
  O  O156  1  0.80284000  0.62539600  0.27336800  1
  O  O157  1  0.37460400  0.17744400  0.27336800  1
  O  O158  1  0.91997267  0.10228833  0.22326533  1
  O  O159  1  0.89771167  0.81768433  0.22326533  1
  O  O160  1  0.18231567  0.08002733  0.22326533  1
  O  O161  1  0.33333333  0.66666667  0.62659167  1
  O  O162  1  0.13756433  0.56895667  0.46835867  1
  O  O163  1  0.43139233  0.86243567  0.46835867  1
  O  O164  1  0.49551667  0.08442633  0.42540433  1
  O  O165  1  0.43104333  0.56860767  0.46835867  1
  O  O166  1  0.91557367  0.41109033  0.42540433  1
  O  O167  1  0.23089433  0.74585467  0.38966467  1
  O  O168  1  0.51496033  0.76910567  0.38966467  1
  O  O169  1  0.58890967  0.50448333  0.42540433  1
  O  O170  1  0.25414533  0.48503967  0.38966467  1
  O  O171  1  0.72234833  0.99297167  0.65230467  1
  O  O172  1  0.98477633  0.22400667  0.64466367  1
  O  O173  1  0.27062333  0.27765167  0.65230467  1
  O  O174  1  0.77599333  0.76076967  0.64466367  1
  O  O175  1  0.81142167  0.09616533  0.59212533  1
  O  O176  1  0.23923033  0.01522367  0.64466367  1
  O  O177  1  0.00702833  0.72937667  0.65230467  1
  O  O178  1  0.07040500  0.38370800  0.55360400  1
  O  O179  1  0.54665267  0.90676733  0.54796033  1
  O  O180  1  0.28474367  0.18857833  0.59212533  1
  O  O181  1  0.90383467  0.71525633  0.59212533  1
  O  O182  1  0.61629200  0.68669700  0.55360400  1
  O  O183  1  0.36011467  0.45334733  0.54796033  1
  O  O184  1  0.65404033  0.11040367  0.47818667  1
  O  O185  1  0.94046933  0.32370567  0.48528467  1
  O  O186  1  0.86151667  0.00552233  0.50989333  1
  O  O187  1  0.14400567  0.13848333  0.50989333  1
  O  O188  1  0.31330300  0.92959500  0.55360400  1
  O  O189  1  0.09323267  0.63988533  0.54796033  1
  O  O190  1  0.99447767  0.85599433  0.50989333  1
  O  O191  1  0.67629433  0.61676367  0.48528467  1
  O  O192  1  0.45636333  0.34595967  0.47818667  1
  O  O193  1  0.70424833  0.86337867  0.44040267  1
  O  O194  1  0.00000000  0.00000000  0.45624900  1
  O  O195  1  0.15913033  0.29575167  0.44040267  1
  O  O196  1  0.38323633  0.05953067  0.48528467  1
  O  O197  1  0.88959633  0.54363667  0.47818667  1
  O  O198  1  0.73612033  0.02174867  0.38798067  1
  O  O199  1  0.02759033  0.24055467  0.38240667  1
  O  O200  1  0.80373933  0.33271567  0.34987467  1
  O  O201  1  0.13662133  0.84086967  0.44040267  1
  O  O202  1  0.28562833  0.26387967  0.38798067  1
  O  O203  1  0.75944533  0.78703567  0.38240667  1
  O  O204  1  0.97825133  0.71437167  0.38798067  1
  O  O205  1  0.21296433  0.97240967  0.38240667  1
  O  O206  1  0.66728433  0.47102367  0.34987467  1
  O  O207  1  0.48922267  0.53049333  0.60670133  1
  O  O208  1  0.76188100  0.51784500  0.63977100  1
  O  O209  1  0.48215500  0.24403600  0.63977100  1
  O  O210  1  0.52897633  0.19626067  0.34987467  1
  O  O211  1  0.75596400  0.23811900  0.63977100  1
  O  O212  1  0.46950667  0.95872933  0.60670133  1
  O  O213  1  0.04127067  0.51077733  0.60670133  1
  O  O214  1  0.58663933  0.43562167  0.55659867  1
  O  O215  1  0.56437833  0.15101767  0.55659867  1
  O  O216  1  0.84898233  0.41336067  0.55659867  1
  O  O217  1  0.00000000  0.00000000  0.95992500  1
  O  O218  1  0.80423100  0.90229000  0.80169200  1
  O  O219  1  0.09805900  0.19576900  0.80169200  1
  O  O220  1  0.16218333  0.41775967  0.75873767  1
  O  O221  1  0.09771000  0.90194100  0.80169200  1
  O  O222  1  0.58224033  0.74442367  0.75873767  1
  O  O223  1  0.89756100  0.07918800  0.72299800  1
  O  O224  1  0.18162700  0.10243900  0.72299800  1
  O  O225  1  0.25557633  0.83781667  0.75873767  1
  O  O226  1  0.92081200  0.81837300  0.72299800  1
  O  O227  1  0.38901500  0.32630500  0.98563800  1
  O  O228  1  0.65144300  0.55734000  0.97799700  1
  O  O229  1  0.93729000  0.61098500  0.98563800  1
  O  O230  1  0.44266000  0.09410300  0.97799700  1
  O  O231  1  0.47808833  0.42949867  0.92545867  1
  O  O232  1  0.90589700  0.34855700  0.97799700  1
  O  O233  1  0.67369500  0.06271000  0.98563800  1
  O  O234  1  0.73707167  0.71704133  0.88693733  1
  O  O235  1  0.21331933  0.24010067  0.88129367  1
  O  O236  1  0.95141033  0.52191167  0.92545867  1
  O  O237  1  0.57050133  0.04858967  0.92545867  1
  O  O238  1  0.28295867  0.02003033  0.88693733  1
  O  O239  1  0.02678133  0.78668067  0.88129367  1
  O  O240  1  0.32070700  0.44373700  0.81152000  1
  O  O241  1  0.60713600  0.65703900  0.81861800  1
  O  O242  1  0.52818333  0.33885567  0.84322667  1
  O  O243  1  0.81067233  0.47181667  0.84322667  1
  O  O244  1  0.97996967  0.26292833  0.88693733  1
  O  O245  1  0.75989933  0.97321867  0.88129367  1
  O  O246  1  0.66114433  0.18932767  0.84322667  1
  O  O247  1  0.34296100  0.95009700  0.81861800  1
  O  O248  1  0.12303000  0.67929300  0.81152000  1
  O  O249  1  0.37091500  0.19671200  0.77373600  1
  O  O250  1  0.66666667  0.33333333  0.78958233  1
  O  O251  1  0.82579700  0.62908500  0.77373600  1
  O  O252  1  0.04990300  0.39286400  0.81861800  1
  O  O253  1  0.55626300  0.87697000  0.81152000  1
  O  O254  1  0.40278700  0.35508200  0.72131400  1
  O  O255  1  0.69425700  0.57388800  0.71574000  1
  O  O256  1  0.47040600  0.66604900  0.68320800  1
  O  O257  1  0.80328800  0.17420300  0.77373600  1
  O  O258  1  0.95229500  0.59721300  0.72131400  1
  O  O259  1  0.42611200  0.12036900  0.71574000  1
  O  O260  1  0.64491800  0.04770500  0.72131400  1
  O  O261  1  0.87963100  0.30574300  0.71574000  1
  O  O262  1  0.33395100  0.80435700  0.68320800  1
  O  O263  1  0.15588933  0.86382667  0.94003467  1
  O  O264  1  0.42854767  0.85117833  0.97310433  1
  O  O265  1  0.14882167  0.57736933  0.97310433  1
  O  O266  1  0.19564300  0.52959400  0.68320800  1
  O  O267  1  0.42263067  0.57145233  0.97310433  1
  O  O268  1  0.13617333  0.29206267  0.94003467  1
  O  O269  1  0.70793733  0.84411067  0.94003467  1
  O  O270  1  0.25330600  0.76895500  0.88993200  1
  O  O271  1  0.23104500  0.48435100  0.88993200  1
  O  O272  1  0.51564900  0.74669400  0.88993200  1
