# generated using pymatgen
data_CsNaB4H12O13
_symmetry_space_group_name_H-M   'P 1'
_cell_length_a   8.25072200
_cell_length_b   11.54508900
_cell_length_c   13.25605485
_cell_angle_alpha   90.00000000
_cell_angle_beta   92.41553935
_cell_angle_gamma   90.00000000
_symmetry_Int_Tables_number   1
_chemical_formula_structural   CsNaB4H12O13
_chemical_formula_sum   'Cs4 Na4 B16 H48 O52'
_cell_volume   1261.58774596
_cell_formula_units_Z   4
loop_
 _symmetry_equiv_pos_site_id
 _symmetry_equiv_pos_as_xyz
  1  'x, y, z'
loop_
 _atom_site_type_symbol
 _atom_site_label
 _atom_site_symmetry_multiplicity
 _atom_site_fract_x
 _atom_site_fract_y
 _atom_site_fract_z
 _atom_site_occupancy
  Cs  Cs0  1  0.04176100  0.61050200  0.63171100  1
  Cs  Cs1  1  0.95823900  0.11050200  0.86828900  1
  Cs  Cs2  1  0.95823900  0.38949800  0.36828900  1
  Cs  Cs3  1  0.04176100  0.88949800  0.13171100  1
  Na  Na4  1  0.13829300  0.91171000  0.46286700  1
  Na  Na5  1  0.86170700  0.41171000  0.03713300  1
  Na  Na6  1  0.86170700  0.08829000  0.53713300  1
  Na  Na7  1  0.13829300  0.58829000  0.96286700  1
  B  B8  1  0.36454800  0.40182900  0.59041700  1
  B  B9  1  0.63545200  0.90182900  0.90958300  1
  B  B10  1  0.63545200  0.59817100  0.40958300  1
  B  B11  1  0.36454800  0.09817100  0.09041700  1
  B  B12  1  0.35640000  0.29661100  0.75113300  1
  B  B13  1  0.64360000  0.79661100  0.74886700  1
  B  B14  1  0.64360000  0.70338900  0.24886700  1
  B  B15  1  0.35640000  0.20338900  0.25113300  1
  B  B16  1  0.59659400  0.17606000  0.70260000  1
  B  B17  1  0.40340600  0.67606000  0.79740000  1
  B  B18  1  0.40340600  0.82394000  0.29740000  1
  B  B19  1  0.59659400  0.32394000  0.20260000  1
  B  B20  1  0.61290600  0.38769600  0.71013500  1
  B  B21  1  0.38709400  0.88769600  0.78986500  1
  B  B22  1  0.38709400  0.61230400  0.28986500  1
  B  B23  1  0.61290600  0.11230400  0.21013500  1
  H  H24  1  0.35659700  0.49166400  0.46090500  1
  H  H25  1  0.64340300  0.99166400  0.03909500  1
  H  H26  1  0.64340300  0.50833600  0.53909500  1
  H  H27  1  0.35659700  0.00833600  0.96090500  1
  H  H28  1  0.28304700  0.29029700  0.89385700  1
  H  H29  1  0.71695300  0.79029700  0.60614300  1
  H  H30  1  0.71695300  0.70970300  0.10614300  1
  H  H31  1  0.28304700  0.20970300  0.39385700  1
  H  H32  1  0.60674300  0.00029400  0.69162600  1
  H  H33  1  0.39325700  0.50029400  0.80837400  1
  H  H34  1  0.39325700  0.99970600  0.30837400  1
  H  H35  1  0.60674300  0.49970600  0.19162600  1
  H  H36  1  0.68400500  0.54922500  0.74578900  1
  H  H37  1  0.31599500  0.04922500  0.75421100  1
  H  H38  1  0.31599500  0.45077500  0.25421100  1
  H  H39  1  0.68400500  0.95077500  0.24578900  1
  H  H40  1  0.40871800  0.81071400  0.60470900  1
  H  H41  1  0.59128200  0.31071400  0.89529100  1
  H  H42  1  0.59128200  0.18928600  0.39529100  1
  H  H43  1  0.40871800  0.68928600  0.10470900  1
  H  H44  1  0.39313400  0.72878400  0.50826000  1
  H  H45  1  0.60686600  0.22878400  0.99174000  1
  H  H46  1  0.60686600  0.27121600  0.49174000  1
  H  H47  1  0.39313400  0.77121600  0.00826000  1
  H  H48  1  0.11503000  0.71533400  0.36328600  1
  H  H49  1  0.88497000  0.21533400  0.13671400  1
  H  H50  1  0.88497000  0.28466600  0.63671400  1
  H  H51  1  0.11503000  0.78466600  0.86328600  1
  H  H52  1  0.92317000  0.70526500  0.37872900  1
  H  H53  1  0.07683000  0.20526500  0.12127100  1
  H  H54  1  0.07683000  0.29473500  0.62127100  1
  H  H55  1  0.92317000  0.79473500  0.87872900  1
  H  H56  1  0.10496300  0.94583400  0.67528400  1
  H  H57  1  0.89503700  0.44583400  0.82471600  1
  H  H58  1  0.89503700  0.05416600  0.32471600  1
  H  H59  1  0.10496300  0.55416600  0.17528400  1
  H  H60  1  0.93006900  0.88761800  0.65247200  1
  H  H61  1  0.06993100  0.38761800  0.84752800  1
  H  H62  1  0.06993100  0.11238200  0.34752800  1
  H  H63  1  0.93006900  0.61238200  0.15247200  1
  H  H64  1  0.32564600  0.12284200  0.59178000  1
  H  H65  1  0.67435400  0.62284200  0.90822000  1
  H  H66  1  0.67435400  0.87715800  0.40822000  1
  H  H67  1  0.32564600  0.37715800  0.09178000  1
  H  H68  1  0.39770700  0.01383600  0.54665700  1
  H  H69  1  0.60229300  0.51383600  0.95334300  1
  H  H70  1  0.60229300  0.98616400  0.45334300  1
  H  H71  1  0.39770700  0.48616400  0.04665700  1
  O  O72  1  0.27291900  0.34117500  0.65706500  1
  O  O73  1  0.72708100  0.84117500  0.84293500  1
  O  O74  1  0.72708100  0.65882500  0.34293500  1
  O  O75  1  0.27291900  0.15882500  0.15706500  1
  O  O76  1  0.43425800  0.18119700  0.72473800  1
  O  O77  1  0.56574200  0.68119700  0.77526200  1
  O  O78  1  0.56574200  0.81880300  0.27526200  1
  O  O79  1  0.43425800  0.31880300  0.22473800  1
  O  O80  1  0.69270800  0.27380700  0.69886300  1
  O  O81  1  0.30729200  0.77380700  0.80113700  1
  O  O82  1  0.30729200  0.72619300  0.30113700  1
  O  O83  1  0.69270800  0.22619300  0.19886300  1
  O  O84  1  0.52890800  0.41938400  0.60884500  1
  O  O85  1  0.47109200  0.91938400  0.89115500  1
  O  O86  1  0.47109200  0.58061600  0.39115500  1
  O  O87  1  0.52890800  0.08061600  0.10884500  1
  O  O88  1  0.48635400  0.37673500  0.78622900  1
  O  O89  1  0.51364600  0.87673500  0.71377100  1
  O  O90  1  0.51364600  0.62326500  0.21377100  1
  O  O91  1  0.48635400  0.12326500  0.28622900  1
  O  O92  1  0.28551800  0.44477300  0.50469900  1
  O  O93  1  0.71448200  0.94477300  0.99530100  1
  O  O94  1  0.71448200  0.55522700  0.49530100  1
  O  O95  1  0.28551800  0.05522700  0.00469900  1
  O  O96  1  0.23381400  0.28190700  0.82611700  1
  O  O97  1  0.76618600  0.78190700  0.67388300  1
  O  O98  1  0.76618600  0.71809300  0.17388300  1
  O  O99  1  0.23381400  0.21809300  0.32611700  1
  O  O100  1  0.67234900  0.07286500  0.68156100  1
  O  O101  1  0.32765100  0.57286500  0.81843900  1
  O  O102  1  0.32765100  0.92713500  0.31843900  1
  O  O103  1  0.67234900  0.42713500  0.18156100  1
  O  O104  1  0.73587000  0.47304400  0.73669400  1
  O  O105  1  0.26413000  0.97304400  0.76330600  1
  O  O106  1  0.26413000  0.52695600  0.26330600  1
  O  O107  1  0.73587000  0.02695600  0.23669400  1
  O  O108  1  0.33371400  0.78333200  0.54903800  1
  O  O109  1  0.66628600  0.28333200  0.95096200  1
  O  O110  1  0.66628600  0.21666800  0.45096200  1
  O  O111  1  0.33371400  0.71666800  0.04903800  1
  O  O112  1  0.02810500  0.73072400  0.41058700  1
  O  O113  1  0.97189500  0.23072400  0.08941300  1
  O  O114  1  0.97189500  0.26927600  0.58941300  1
  O  O115  1  0.02810500  0.76927600  0.91058700  1
  O  O116  1  0.01362600  0.93814000  0.62384900  1
  O  O117  1  0.98637400  0.43814000  0.87615100  1
  O  O118  1  0.98637400  0.06186000  0.37615100  1
  O  O119  1  0.01362600  0.56186000  0.12384900  1
  O  O120  1  0.32188200  0.07639300  0.52953100  1
  O  O121  1  0.67811800  0.57639300  0.97046900  1
  O  O122  1  0.67811800  0.92360700  0.47046900  1
  O  O123  1  0.32188200  0.42360700  0.02953100  1
