# generated using pymatgen
data_Ag2H3IO6
_symmetry_space_group_name_H-M   'P 1'
_cell_length_a   6.01004381
_cell_length_b   6.01004381
_cell_length_c   12.53075770
_cell_angle_alpha   90.00000000
_cell_angle_beta   90.00000000
_cell_angle_gamma   120.00000000
_symmetry_Int_Tables_number   1
_chemical_formula_structural   Ag2H3IO6
_chemical_formula_sum   'Ag6 H9 I3 O18'
_cell_volume   391.97939692
_cell_formula_units_Z   3
loop_
 _symmetry_equiv_pos_site_id
 _symmetry_equiv_pos_as_xyz
  1  'x, y, z'
loop_
 _atom_site_type_symbol
 _atom_site_label
 _atom_site_symmetry_multiplicity
 _atom_site_fract_x
 _atom_site_fract_y
 _atom_site_fract_z
 _atom_site_occupancy
  Ag  Ag0  1  0.33333333  0.66666667  0.28302567  1
  Ag  Ag1  1  0.33333333  0.66666667  0.05030767  1
  Ag  Ag2  1  0.00000000  0.00000000  0.61635900  1
  Ag  Ag3  1  0.00000000  0.00000000  0.38364100  1
  Ag  Ag4  1  0.66666667  0.33333333  0.94969233  1
  Ag  Ag5  1  0.66666667  0.33333333  0.71697433  1
  H  H6  1  0.16666667  0.33333333  0.83333333  1
  H  H7  1  0.83333333  0.16666667  0.16666667  1
  H  H8  1  0.33333333  0.16666667  0.16666667  1
  H  H9  1  0.83333333  0.66666667  0.16666667  1
  H  H10  1  0.50000000  0.50000000  0.50000000  1
  H  H11  1  0.00000000  0.50000000  0.50000000  1
  H  H12  1  0.50000000  0.00000000  0.50000000  1
  H  H13  1  0.16666667  0.83333333  0.83333333  1
  H  H14  1  0.66666667  0.83333333  0.83333333  1
  I  I15  1  0.00000000  0.00000000  0.00000000  1
  I  I16  1  0.66666667  0.33333333  0.33333333  1
  I  I17  1  0.33333333  0.66666667  0.66666667  1
  O  O18  1  0.75585067  0.03850633  0.08547633  1
  O  O19  1  0.96149367  0.71734433  0.08547633  1
  O  O20  1  0.91081600  0.29482700  0.24785700  1
  O  O21  1  0.70517300  0.61598900  0.24785700  1
  O  O22  1  0.38401100  0.08918400  0.24785700  1
  O  O23  1  0.28265567  0.24414933  0.08547633  1
  O  O24  1  0.42251733  0.37183967  0.41880967  1
  O  O25  1  0.62816033  0.05067767  0.41880967  1
  O  O26  1  0.57748267  0.62816033  0.58119033  1
  O  O27  1  0.37183967  0.94932233  0.58119033  1
  O  O28  1  0.05067767  0.42251733  0.58119033  1
  O  O29  1  0.94932233  0.57748267  0.41880967  1
  O  O30  1  0.08918400  0.70517300  0.75214300  1
  O  O31  1  0.29482700  0.38401100  0.75214300  1
  O  O32  1  0.24414933  0.96149367  0.91452367  1
  O  O33  1  0.03850633  0.28265567  0.91452367  1
  O  O34  1  0.71734433  0.75585067  0.91452367  1
  O  O35  1  0.61598900  0.91081600  0.75214300  1
