# generated using pymatgen
data_Ba2Zn2ClF7
_symmetry_space_group_name_H-M   'P 1'
_cell_length_a   7.83134500
_cell_length_b   5.89018000
_cell_length_c   9.05903040
_cell_angle_alpha   90.00000000
_cell_angle_beta   106.81011620
_cell_angle_gamma   90.00000000
_symmetry_Int_Tables_number   1
_chemical_formula_structural   Ba2Zn2ClF7
_chemical_formula_sum   'Ba4 Zn4 Cl2 F14'
_cell_volume   400.01878510
_cell_formula_units_Z   2
loop_
 _symmetry_equiv_pos_site_id
 _symmetry_equiv_pos_as_xyz
  1  'x, y, z'
loop_
 _atom_site_type_symbol
 _atom_site_label
 _atom_site_symmetry_multiplicity
 _atom_site_fract_x
 _atom_site_fract_y
 _atom_site_fract_z
 _atom_site_occupancy
  Ba  Ba0  1  0.66752700  0.25000000  0.41262600  1
  Ba  Ba1  1  0.30379100  0.75000000  0.07438000  1
  Ba  Ba2  1  0.69620900  0.25000000  0.92562000  1
  Ba  Ba3  1  0.33247300  0.75000000  0.58737400  1
  Zn  Zn4  1  0.81764900  0.75000000  0.17458200  1
  Zn  Zn5  1  0.17271100  0.25000000  0.26609500  1
  Zn  Zn6  1  0.18235100  0.25000000  0.82541800  1
  Zn  Zn7  1  0.82728900  0.75000000  0.73390500  1
  Cl  Cl8  1  0.88208100  0.75000000  0.47027000  1
  Cl  Cl9  1  0.11791900  0.25000000  0.52973000  1
  F  F10  1  0.99493100  0.00138000  0.17169700  1
  F  F11  1  0.63841600  0.50207300  0.65450900  1
  F  F12  1  0.74605800  0.75000000  0.93374200  1
  F  F13  1  0.99493100  0.49862000  0.17169700  1
  F  F14  1  0.25394200  0.25000000  0.06625800  1
  F  F15  1  0.00506900  0.99862000  0.82830300  1
  F  F16  1  0.63841600  0.99792700  0.65450900  1
  F  F17  1  0.62949700  0.50677900  0.16074800  1
  F  F18  1  0.36158400  0.49792700  0.34549100  1
  F  F19  1  0.36158400  0.00207300  0.34549100  1
  F  F20  1  0.37050300  0.49322100  0.83925200  1
  F  F21  1  0.62949700  0.99322100  0.16074800  1
  F  F22  1  0.37050300  0.00677900  0.83925200  1
  F  F23  1  0.00506900  0.50138000  0.82830300  1
