# generated using pymatgen
data_NaMo6Cl13
_symmetry_space_group_name_H-M   'P 1'
_cell_length_a   9.18017000
_cell_length_b   9.27973248
_cell_length_c   14.26222306
_cell_angle_alpha   97.18358305
_cell_angle_beta   101.82914719
_cell_angle_gamma   114.56376777
_symmetry_Int_Tables_number   1
_chemical_formula_structural   NaMo6Cl13
_chemical_formula_sum   'Na2 Mo12 Cl26'
_cell_volume   1050.96195486
_cell_formula_units_Z   2
loop_
 _symmetry_equiv_pos_site_id
 _symmetry_equiv_pos_as_xyz
  1  'x, y, z'
loop_
 _atom_site_type_symbol
 _atom_site_label
 _atom_site_symmetry_multiplicity
 _atom_site_fract_x
 _atom_site_fract_y
 _atom_site_fract_z
 _atom_site_occupancy
  Na  Na0  1  0.49742400  0.75481300  0.72779300  1
  Na  Na1  1  0.50257600  0.24518700  0.27220700  1
  Mo  Mo2  1  0.94799400  0.01334000  0.61950600  1
  Mo  Mo3  1  0.05200600  0.98666000  0.38049400  1
  Mo  Mo4  1  0.20040300  0.00366800  0.56324000  1
  Mo  Mo5  1  0.79959700  0.99633200  0.43676000  1
  Mo  Mo6  1  0.10476000  0.22615200  0.52522100  1
  Mo  Mo7  1  0.89524000  0.77384800  0.47477900  1
  Mo  Mo8  1  0.13425300  0.45605200  0.09663100  1
  Mo  Mo9  1  0.86574700  0.54394800  0.90336900  1
  Mo  Mo10  1  0.18508300  0.61802900  0.95837700  1
  Mo  Mo11  1  0.81491700  0.38197100  0.04162300  1
  Mo  Mo12  1  0.04354900  0.68868800  0.08805800  1
  Mo  Mo13  1  0.95645100  0.31131200  0.91194200  1
  Cl  Cl14  1  0.14272200  0.78204000  0.42496700  1
  Cl  Cl15  1  0.85727800  0.21796000  0.57503300  1
  Cl  Cl16  1  0.76053400  0.77120100  0.30316000  1
  Cl  Cl17  1  0.23946600  0.22879900  0.69684000  1
  Cl  Cl18  1  0.33756900  0.20694600  0.47024800  1
  Cl  Cl19  1  0.66243100  0.79305400  0.52975200  1
  Cl  Cl20  1  0.95982400  0.19763900  0.35062500  1
  Cl  Cl21  1  0.04017600  0.80236100  0.64937500  1
  Cl  Cl22  1  0.34207400  0.74867300  0.13310400  1
  Cl  Cl23  1  0.65792600  0.25132700  0.86689600  1
  Cl  Cl24  1  0.99033000  0.52380600  0.21285700  1
  Cl  Cl25  1  0.00967000  0.47619400  0.78714300  1
  Cl  Cl26  1  0.25983600  0.38942200  0.96870900  1
  Cl  Cl27  1  0.74016400  0.61057800  0.03129100  1
  Cl  Cl28  1  0.91077700  0.16734300  0.04713100  1
  Cl  Cl29  1  0.08922300  0.83265700  0.95286900  1
  Cl  Cl30  1  0.46131700  0.00250200  0.64347900  1
  Cl  Cl31  1  0.53868300  0.99749800  0.35652100  1
  Cl  Cl32  1  0.24378800  0.52390100  0.56343500  1
  Cl  Cl33  1  0.75621200  0.47609900  0.43656500  1
  Cl  Cl34  1  0.31321000  0.41112300  0.23012800  1
  Cl  Cl35  1  0.68679000  0.58887700  0.76987200  1
  Cl  Cl36  1  0.43002800  0.77561600  0.90548300  1
  Cl  Cl37  1  0.56997200  0.22438400  0.09451700  1
  Cl  Cl38  1  0.11423100  0.95571000  0.21142900  1
  Cl  Cl39  1  0.88576900  0.04429000  0.78857100  1
