# generated using pymatgen
data_Na4Zr2(SiO4)3
_symmetry_space_group_name_H-M   'P 1'
_cell_length_a   9.31999377
_cell_length_b   9.31999377
_cell_length_c   22.44971657
_cell_angle_alpha   90.00000000
_cell_angle_beta   90.00000000
_cell_angle_gamma   120.00000000
_symmetry_Int_Tables_number   1
_chemical_formula_structural   Na4Zr2(SiO4)3
_chemical_formula_sum   'Na24 Zr12 Si18 O72'
_cell_volume   1688.77868418
_cell_formula_units_Z   6
loop_
 _symmetry_equiv_pos_site_id
 _symmetry_equiv_pos_as_xyz
  1  'x, y, z'
loop_
 _atom_site_type_symbol
 _atom_site_label
 _atom_site_symmetry_multiplicity
 _atom_site_fract_x
 _atom_site_fract_y
 _atom_site_fract_z
 _atom_site_occupancy
  Na  Na0  1  0.66349933  0.96642467  0.08556567  1
  Na  Na1  1  0.99683267  0.36374133  0.25223233  1
  Na  Na2  1  0.30292533  0.33650067  0.08556567  1
  Na  Na3  1  0.36690867  0.00316733  0.25223233  1
  Na  Na4  1  0.03357533  0.69707467  0.08556567  1
  Na  Na5  1  0.33333333  0.66666667  0.16540467  1
  Na  Na6  1  0.63625867  0.63309133  0.25223233  1
  Na  Na7  1  0.33333333  0.66666667  0.66540467  1
  Na  Na8  1  0.33016600  0.29975800  0.41889900  1
  Na  Na9  1  0.66349933  0.69707467  0.58556567  1
  Na  Na10  1  0.96959200  0.66983400  0.41889900  1
  Na  Na11  1  0.03357533  0.33650067  0.58556567  1
  Na  Na12  1  0.70024200  0.03040800  0.41889900  1
  Na  Na13  1  0.00000000  0.00000000  0.49873800  1
  Na  Na14  1  0.30292533  0.96642467  0.58556567  1
  Na  Na15  1  0.00000000  0.00000000  0.99873800  1
  Na  Na16  1  0.99683267  0.63309133  0.75223233  1
  Na  Na17  1  0.33016600  0.03040800  0.91889900  1
  Na  Na18  1  0.63625867  0.00316733  0.75223233  1
  Na  Na19  1  0.70024200  0.66983400  0.91889900  1
  Na  Na20  1  0.36690867  0.36374133  0.75223233  1
  Na  Na21  1  0.66666667  0.33333333  0.83207133  1
  Na  Na22  1  0.96959200  0.29975800  0.91889900  1
  Na  Na23  1  0.66666667  0.33333333  0.33207133  1
  Zr  Zr24  1  0.33333333  0.66666667  0.31121667  1
  Zr  Zr25  1  0.33333333  0.66666667  0.51783667  1
  Zr  Zr26  1  0.33333333  0.66666667  0.81121667  1
  Zr  Zr27  1  0.33333333  0.66666667  0.01783667  1
  Zr  Zr28  1  0.00000000  0.00000000  0.64455000  1
  Zr  Zr29  1  0.00000000  0.00000000  0.85117000  1
  Zr  Zr30  1  0.00000000  0.00000000  0.14455000  1
  Zr  Zr31  1  0.00000000  0.00000000  0.35117000  1
  Zr  Zr32  1  0.66666667  0.33333333  0.97788333  1
  Zr  Zr33  1  0.66666667  0.33333333  0.18450333  1
  Zr  Zr34  1  0.66666667  0.33333333  0.47788333  1
  Zr  Zr35  1  0.66666667  0.33333333  0.68450333  1
  Si  Si36  1  0.70260200  0.99924900  0.24762300  1
  Si  Si37  1  0.36926867  0.03668633  0.08095633  1
  Si  Si38  1  0.66741767  0.63073133  0.08095633  1
  Si  Si39  1  0.96331367  0.33258233  0.08095633  1
  Si  Si40  1  0.29664700  0.29739800  0.24762300  1
  Si  Si41  1  0.00075100  0.70335300  0.24762300  1
  Si  Si42  1  0.36926867  0.33258233  0.58095633  1
  Si  Si43  1  0.03593533  0.37001967  0.41428967  1
  Si  Si44  1  0.33408433  0.96406467  0.41428967  1
  Si  Si45  1  0.62998033  0.66591567  0.41428967  1
  Si  Si46  1  0.96331367  0.63073133  0.58095633  1
  Si  Si47  1  0.66741767  0.03668633  0.58095633  1
  Si  Si48  1  0.03593533  0.66591567  0.91428967  1
  Si  Si49  1  0.70260200  0.70335300  0.74762300  1
  Si  Si50  1  0.00075100  0.29739800  0.74762300  1
  Si  Si51  1  0.29664700  0.99924900  0.74762300  1
  Si  Si52  1  0.62998033  0.96406467  0.91428967  1
  Si  Si53  1  0.33408433  0.37001967  0.91428967  1
  O  O54  1  0.18539533  0.01976567  0.08207267  1
  O  O55  1  0.35129867  0.85209233  0.08034333  1
  O  O56  1  0.86677433  0.34870367  0.13959367  1
  O  O57  1  0.51872867  0.83229633  0.24873933  1
  O  O58  1  0.98023433  0.16562967  0.08207267  1
  O  O59  1  0.16770367  0.68643233  0.24873933  1
  O  O60  1  0.01612467  0.81349233  0.18821633  1
  O  O61  1  0.34945800  0.86929900  0.35488300  1
  O  O62  1  0.48192933  0.13322567  0.13959367  1
  O  O63  1  0.31356767  0.48127133  0.24873933  1
  O  O64  1  0.79736767  0.98387533  0.18821633  1
  O  O65  1  0.68463200  0.16587300  0.24701000  1
  O  O66  1  0.31796300  0.46655900  0.97292700  1
  O  O67  1  0.48124100  0.31536800  0.24701000  1
  O  O68  1  0.51984100  0.65054200  0.35488300  1
  O  O69  1  0.14859600  0.68203700  0.97292700  1
  O  O70  1  0.83412700  0.51875900  0.24701000  1
  O  O71  1  0.13070100  0.48015900  0.35488300  1
  O  O72  1  0.18650767  0.20263233  0.18821633  1
  O  O73  1  0.50079367  0.64870133  0.08034333  1
  O  O74  1  0.53344100  0.85140400  0.97292700  1
  O  O75  1  0.14790767  0.49920633  0.08034333  1
  O  O76  1  0.83437033  0.81460467  0.08207267  1
  O  O77  1  0.65129633  0.51807067  0.13959367  1
  O  O78  1  0.85206200  0.35309900  0.41540600  1
  O  O79  1  0.01796533  0.18542567  0.41367667  1
  O  O80  1  0.53344100  0.68203700  0.47292700  1
  O  O81  1  0.18539533  0.16562967  0.58207267  1
  O  O82  1  0.64690100  0.49896300  0.41540600  1
  O  O83  1  0.83437033  0.01976567  0.58207267  1
  O  O84  1  0.68279133  0.14682567  0.52154967  1
  O  O85  1  0.01612467  0.20263233  0.68821633  1
  O  O86  1  0.14859600  0.46655900  0.47292700  1
  O  O87  1  0.98023433  0.81460467  0.58207267  1
  O  O88  1  0.46403433  0.31720867  0.52154967  1
  O  O89  1  0.35129867  0.49920633  0.58034333  1
  O  O90  1  0.98462967  0.79989233  0.30626033  1
  O  O91  1  0.14790767  0.64870133  0.58034333  1
  O  O92  1  0.18650767  0.98387533  0.68821633  1
  O  O93  1  0.81526267  0.01537033  0.30626033  1
  O  O94  1  0.50079367  0.85209233  0.58034333  1
  O  O95  1  0.79736767  0.81349233  0.68821633  1
  O  O96  1  0.85317433  0.53596567  0.52154967  1
  O  O97  1  0.16746033  0.98203467  0.41367667  1
  O  O98  1  0.20010767  0.18473733  0.30626033  1
  O  O99  1  0.81457433  0.83253967  0.41367667  1
  O  O100  1  0.50103700  0.14793800  0.41540600  1
  O  O101  1  0.31796300  0.85140400  0.47292700  1
  O  O102  1  0.51872867  0.68643233  0.74873933  1
  O  O103  1  0.68463200  0.51875900  0.74701000  1
  O  O104  1  0.20010767  0.01537033  0.80626033  1
  O  O105  1  0.85206200  0.49896300  0.91540600  1
  O  O106  1  0.31356767  0.83229633  0.74873933  1
  O  O107  1  0.50103700  0.35309900  0.91540600  1
  O  O108  1  0.34945800  0.48015900  0.85488300  1
  O  O109  1  0.68279133  0.53596567  0.02154967  1
  O  O110  1  0.81526267  0.79989233  0.80626033  1
  O  O111  1  0.64690100  0.14793800  0.91540600  1
  O  O112  1  0.13070100  0.65054200  0.85488300  1
  O  O113  1  0.01796533  0.83253967  0.91367667  1
  O  O114  1  0.65129633  0.13322567  0.63959367  1
  O  O115  1  0.81457433  0.98203467  0.91367667  1
  O  O116  1  0.85317433  0.31720867  0.02154967  1
  O  O117  1  0.48192933  0.34870367  0.63959367  1
  O  O118  1  0.16746033  0.18542567  0.91367667  1
  O  O119  1  0.46403433  0.14682567  0.02154967  1
  O  O120  1  0.51984100  0.86929900  0.85488300  1
  O  O121  1  0.83412700  0.31536800  0.74701000  1
  O  O122  1  0.86677433  0.51807067  0.63959367  1
  O  O123  1  0.48124100  0.16587300  0.74701000  1
  O  O124  1  0.16770367  0.48127133  0.74873933  1
  O  O125  1  0.98462967  0.18473733  0.80626033  1
