# generated using pymatgen
data_NbI4
_symmetry_space_group_name_H-M   'P 1'
_cell_length_a   7.82451400
_cell_length_b   14.09818800
_cell_length_c   14.89742900
_cell_angle_alpha   90.00000000
_cell_angle_beta   90.00000000
_cell_angle_gamma   90.00000000
_symmetry_Int_Tables_number   1
_chemical_formula_structural   NbI4
_chemical_formula_sum   'Nb8 I32'
_cell_volume   1643.35728298
_cell_formula_units_Z   8
loop_
 _symmetry_equiv_pos_site_id
 _symmetry_equiv_pos_as_xyz
  1  'x, y, z'
loop_
 _atom_site_type_symbol
 _atom_site_label
 _atom_site_symmetry_multiplicity
 _atom_site_fract_x
 _atom_site_fract_y
 _atom_site_fract_z
 _atom_site_occupancy
  Nb  Nb0  1  0.78632000  0.12338800  0.37667700  1
  Nb  Nb1  1  0.71368000  0.37661200  0.87667700  1
  Nb  Nb2  1  0.21368000  0.12338800  0.37667700  1
  Nb  Nb3  1  0.28632000  0.37661200  0.87667700  1
  Nb  Nb4  1  0.28632000  0.62338800  0.37667700  1
  Nb  Nb5  1  0.21368000  0.87661200  0.87667700  1
  Nb  Nb6  1  0.71368000  0.62338800  0.37667700  1
  Nb  Nb7  1  0.78632000  0.87661200  0.87667700  1
  I  I8  1  0.74351000  0.48408100  0.02796200  1
  I  I9  1  0.50000000  0.23448400  0.44822700  1
  I  I10  1  0.25649000  0.48408100  0.02796200  1
  I  I11  1  0.00000000  0.48770500  0.80494900  1
  I  I12  1  0.00000000  0.25386600  0.46042900  1
  I  I13  1  0.75649000  0.01591900  0.52796200  1
  I  I14  1  0.25779600  0.26757300  0.72636900  1
  I  I15  1  0.00000000  0.00721500  0.79307900  1
  I  I16  1  0.50000000  0.24613400  0.96042900  1
  I  I17  1  0.74220400  0.26757300  0.72636900  1
  I  I18  1  0.24220400  0.23242700  0.22636900  1
  I  I19  1  0.75779600  0.23242700  0.22636900  1
  I  I20  1  0.50000000  0.01229500  0.30494900  1
  I  I21  1  0.50000000  0.49278500  0.29307900  1
  I  I22  1  0.24351000  0.01591900  0.52796200  1
  I  I23  1  0.00000000  0.26551600  0.94822700  1
  I  I24  1  0.24351000  0.98408100  0.02796200  1
  I  I25  1  0.00000000  0.73448400  0.44822700  1
  I  I26  1  0.75649000  0.98408100  0.02796200  1
  I  I27  1  0.50000000  0.98770500  0.80494900  1
  I  I28  1  0.50000000  0.75386600  0.46042900  1
  I  I29  1  0.25649000  0.51591900  0.52796200  1
  I  I30  1  0.75779600  0.76757300  0.72636900  1
  I  I31  1  0.50000000  0.50721500  0.79307900  1
  I  I32  1  0.00000000  0.74613400  0.96042900  1
  I  I33  1  0.24220400  0.76757300  0.72636900  1
  I  I34  1  0.74220400  0.73242700  0.22636900  1
  I  I35  1  0.25779600  0.73242700  0.22636900  1
  I  I36  1  0.00000000  0.51229500  0.30494900  1
  I  I37  1  0.00000000  0.99278500  0.29307900  1
  I  I38  1  0.74351000  0.51591900  0.52796200  1
  I  I39  1  0.50000000  0.76551600  0.94822700  1
