# generated using pymatgen
data_GdZnPO
_symmetry_space_group_name_H-M   'P 1'
_cell_length_a   3.93548807
_cell_length_b   3.93548807
_cell_length_c   30.65251854
_cell_angle_alpha   90.00000000
_cell_angle_beta   90.00000000
_cell_angle_gamma   120.00000000
_symmetry_Int_Tables_number   1
_chemical_formula_structural   GdZnPO
_chemical_formula_sum   'Gd6 Zn6 P6 O6'
_cell_volume   411.14403640
_cell_formula_units_Z   6
loop_
 _symmetry_equiv_pos_site_id
 _symmetry_equiv_pos_as_xyz
  1  'x, y, z'
loop_
 _atom_site_type_symbol
 _atom_site_label
 _atom_site_symmetry_multiplicity
 _atom_site_fract_x
 _atom_site_fract_y
 _atom_site_fract_z
 _atom_site_occupancy
  Gd  Gd0  1  0.33333333  0.66666667  0.04704867  1
  Gd  Gd1  1  0.33333333  0.66666667  0.28628467  1
  Gd  Gd2  1  0.00000000  0.00000000  0.38038200  1
  Gd  Gd3  1  0.00000000  0.00000000  0.61961800  1
  Gd  Gd4  1  0.66666667  0.33333333  0.71371533  1
  Gd  Gd5  1  0.66666667  0.33333333  0.95295133  1
  Zn  Zn6  1  0.66666667  0.33333333  0.13705533  1
  Zn  Zn7  1  0.00000000  0.00000000  0.19627800  1
  Zn  Zn8  1  0.33333333  0.66666667  0.47038867  1
  Zn  Zn9  1  0.66666667  0.33333333  0.52961133  1
  Zn  Zn10  1  0.00000000  0.00000000  0.80372200  1
  Zn  Zn11  1  0.33333333  0.66666667  0.86294467  1
  P  P12  1  0.00000000  0.00000000  0.11248400  1
  P  P13  1  0.66666667  0.33333333  0.22084933  1
  P  P14  1  0.66666667  0.33333333  0.44581733  1
  P  P15  1  0.33333333  0.66666667  0.55418267  1
  P  P16  1  0.33333333  0.66666667  0.77915067  1
  P  P17  1  0.00000000  0.00000000  0.88751600  1
  O  O18  1  0.66666667  0.33333333  0.02804133  1
  O  O19  1  0.00000000  0.00000000  0.30529200  1
  O  O20  1  0.33333333  0.66666667  0.36137467  1
  O  O21  1  0.66666667  0.33333333  0.63862533  1
  O  O22  1  0.00000000  0.00000000  0.69470800  1
  O  O23  1  0.33333333  0.66666667  0.97195867  1
