# generated using pymatgen
data_PaBr3O
_symmetry_space_group_name_H-M   'P 1'
_cell_length_a   18.11523600
_cell_length_b   4.03652600
_cell_length_c   10.04220893
_cell_angle_alpha   90.00000000
_cell_angle_beta   115.85902265
_cell_angle_gamma   90.00000000
_symmetry_Int_Tables_number   1
_chemical_formula_structural   PaBr3O
_chemical_formula_sum   'Pa4 Br12 O4'
_cell_volume   660.78587398
_cell_formula_units_Z   4
loop_
 _symmetry_equiv_pos_site_id
 _symmetry_equiv_pos_as_xyz
  1  'x, y, z'
loop_
 _atom_site_type_symbol
 _atom_site_label
 _atom_site_symmetry_multiplicity
 _atom_site_fract_x
 _atom_site_fract_y
 _atom_site_fract_z
 _atom_site_occupancy
  Pa  Pa0  1  0.30360800  0.50000000  0.67647100  1
  Pa  Pa1  1  0.19639200  0.00000000  0.32352900  1
  Pa  Pa2  1  0.80360800  0.00000000  0.67647100  1
  Pa  Pa3  1  0.69639200  0.50000000  0.32352900  1
  Br  Br4  1  0.44542700  0.50000000  0.65411400  1
  Br  Br5  1  0.05457300  0.00000000  0.34588600  1
  Br  Br6  1  0.17428800  0.50000000  0.73842500  1
  Br  Br7  1  0.32571200  0.00000000  0.26157500  1
  Br  Br8  1  0.37920000  0.00000000  0.91415300  1
  Br  Br9  1  0.12080000  0.50000000  0.08584700  1
  Br  Br10  1  0.94542700  0.00000000  0.65411400  1
  Br  Br11  1  0.55457300  0.50000000  0.34588600  1
  Br  Br12  1  0.67428800  0.00000000  0.73842500  1
  Br  Br13  1  0.82571200  0.50000000  0.26157500  1
  Br  Br14  1  0.87920000  0.50000000  0.91415300  1
  Br  Br15  1  0.62080000  0.00000000  0.08584700  1
  O  O16  1  0.27142100  0.00000000  0.58101000  1
  O  O17  1  0.22857900  0.50000000  0.41899000  1
  O  O18  1  0.77142100  0.50000000  0.58101000  1
  O  O19  1  0.72857900  0.00000000  0.41899000  1
