# generated using pymatgen
data_Nd7(S2Cl3)3
_symmetry_space_group_name_H-M   'P 1'
_cell_length_a   7.01849600
_cell_length_b   6.74277300
_cell_length_c   24.57485891
_cell_angle_alpha   90.00000000
_cell_angle_beta   97.75773527
_cell_angle_gamma   90.00000000
_symmetry_Int_Tables_number   1
_chemical_formula_structural   Nd7(S2Cl3)3
_chemical_formula_sum   'Nd14 S12 Cl18'
_cell_volume   1152.33970697
_cell_formula_units_Z   2
loop_
 _symmetry_equiv_pos_site_id
 _symmetry_equiv_pos_as_xyz
  1  'x, y, z'
loop_
 _atom_site_type_symbol
 _atom_site_label
 _atom_site_symmetry_multiplicity
 _atom_site_fract_x
 _atom_site_fract_y
 _atom_site_fract_z
 _atom_site_occupancy
  Nd  Nd0  1  0.25000000  0.71121000  0.00000000  1
  Nd  Nd1  1  0.12367500  0.30430600  0.85730400  1
  Nd  Nd2  1  0.49329300  0.71723200  0.57911000  1
  Nd  Nd3  1  0.75000000  0.28879000  0.00000000  1
  Nd  Nd4  1  0.62367500  0.69569400  0.85730400  1
  Nd  Nd5  1  0.36320500  0.69546400  0.28356600  1
  Nd  Nd6  1  0.99329300  0.28276800  0.57911000  1
  Nd  Nd7  1  0.63679500  0.30453600  0.71643400  1
  Nd  Nd8  1  0.13679500  0.69546400  0.71643400  1
  Nd  Nd9  1  0.86320500  0.30453600  0.28356600  1
  Nd  Nd10  1  0.00670700  0.71723200  0.42089000  1
  Nd  Nd11  1  0.87632500  0.69569400  0.14269600  1
  Nd  Nd12  1  0.50670700  0.28276800  0.42089000  1
  Nd  Nd13  1  0.37632500  0.30430600  0.14269600  1
  S  S14  1  0.38243800  0.44806700  0.78347500  1
  S  S15  1  0.07384700  0.46485300  0.07141400  1
  S  S16  1  0.61756200  0.55193300  0.21652500  1
  S  S17  1  0.42615300  0.46485300  0.92858600  1
  S  S18  1  0.57384700  0.53514700  0.07141400  1
  S  S19  1  0.18834000  0.44770700  0.35940000  1
  S  S20  1  0.81166000  0.55229300  0.64060000  1
  S  S21  1  0.92615300  0.53514700  0.92858600  1
  S  S22  1  0.68834000  0.55229300  0.35940000  1
  S  S23  1  0.88243800  0.55193300  0.78347500  1
  S  S24  1  0.31166000  0.44770700  0.64060000  1
  S  S25  1  0.11756200  0.44806700  0.21652500  1
  Cl  Cl26  1  0.26778200  0.93226800  0.81107000  1
  Cl  Cl27  1  0.73221800  0.06773200  0.18893000  1
  Cl  Cl28  1  0.37748800  0.89459100  0.44222500  1
  Cl  Cl29  1  0.96855700  0.08374300  0.68078300  1
  Cl  Cl30  1  0.53144300  0.08374300  0.31921700  1
  Cl  Cl31  1  0.56274000  0.95628500  0.94041300  1
  Cl  Cl32  1  0.75000000  0.55159800  0.50000000  1
  Cl  Cl33  1  0.62251200  0.10540900  0.55777500  1
  Cl  Cl34  1  0.43726000  0.04371500  0.05958700  1
  Cl  Cl35  1  0.12251200  0.89459100  0.55777500  1
  Cl  Cl36  1  0.46855700  0.91625700  0.68078300  1
  Cl  Cl37  1  0.25000000  0.44840200  0.50000000  1
  Cl  Cl38  1  0.87748800  0.10540900  0.44222500  1
  Cl  Cl39  1  0.03144300  0.91625700  0.31921700  1
  Cl  Cl40  1  0.93726000  0.95628500  0.05958700  1
  Cl  Cl41  1  0.23221800  0.93226800  0.18893000  1
  Cl  Cl42  1  0.06274000  0.04371500  0.94041300  1
  Cl  Cl43  1  0.76778200  0.06773200  0.81107000  1
