# generated using pymatgen
data_Na2B2Se7
_symmetry_space_group_name_H-M   'P 1'
_cell_length_a   15.07423800
_cell_length_b   6.87023400
_cell_length_c   12.07042151
_cell_angle_alpha   90.00000000
_cell_angle_beta   119.20168725
_cell_angle_gamma   90.00000000
_symmetry_Int_Tables_number   1
_chemical_formula_structural   Na2B2Se7
_chemical_formula_sum   'Na8 B8 Se28'
_cell_volume   1091.18318019
_cell_formula_units_Z   4
loop_
 _symmetry_equiv_pos_site_id
 _symmetry_equiv_pos_as_xyz
  1  'x, y, z'
loop_
 _atom_site_type_symbol
 _atom_site_label
 _atom_site_symmetry_multiplicity
 _atom_site_fract_x
 _atom_site_fract_y
 _atom_site_fract_z
 _atom_site_occupancy
  Na  Na0  1  0.38997950  0.71665950  0.95703300  1
  Na  Na1  1  0.11002050  0.21665950  0.54296700  1
  Na  Na2  1  0.61002050  0.28334050  0.04296700  1
  Na  Na3  1  0.88997950  0.78334050  0.45703300  1
  Na  Na4  1  0.88997950  0.21665950  0.95703300  1
  Na  Na5  1  0.61002050  0.71665950  0.54296700  1
  Na  Na6  1  0.11002050  0.78334050  0.04296700  1
  Na  Na7  1  0.38997950  0.28334050  0.45703300  1
  B  B8  1  0.11759000  0.28024300  0.84963800  1
  B  B9  1  0.88241000  0.28024300  0.65036200  1
  B  B10  1  0.88241000  0.71975700  0.15036200  1
  B  B11  1  0.11759000  0.71975700  0.34963800  1
  B  B12  1  0.61759000  0.78024300  0.84963800  1
  B  B13  1  0.38241000  0.78024300  0.65036200  1
  B  B14  1  0.38241000  0.21975700  0.15036200  1
  B  B15  1  0.61759000  0.21975700  0.34963800  1
  Se  Se16  1  0.00000000  0.47537500  0.75000000  1
  Se  Se17  1  0.00000000  0.52462500  0.25000000  1
  Se  Se18  1  0.37864900  0.17967500  0.98024100  1
  Se  Se19  1  0.12135100  0.67967500  0.51975900  1
  Se  Se20  1  0.62135100  0.82032500  0.01975900  1
  Se  Se21  1  0.87864900  0.32032500  0.48024100  1
  Se  Se22  1  0.23821550  0.38302650  0.83166700  1
  Se  Se23  1  0.26178450  0.88302650  0.66833300  1
  Se  Se24  1  0.76178450  0.61697350  0.16833300  1
  Se  Se25  1  0.73821550  0.11697350  0.33166700  1
  Se  Se26  1  0.08732100  0.00347900  0.77606200  1
  Se  Se27  1  0.91267900  0.00347900  0.72393800  1
  Se  Se28  1  0.91267900  0.99652100  0.22393800  1
  Se  Se29  1  0.08732100  0.99652100  0.27606200  1
  Se  Se30  1  0.50000000  0.97537500  0.75000000  1
  Se  Se31  1  0.50000000  0.02462500  0.25000000  1
  Se  Se32  1  0.87864900  0.67967500  0.98024100  1
  Se  Se33  1  0.62135100  0.17967500  0.51975900  1
  Se  Se34  1  0.12135100  0.32032500  0.01975900  1
  Se  Se35  1  0.37864900  0.82032500  0.48024100  1
  Se  Se36  1  0.73821550  0.88302650  0.83166700  1
  Se  Se37  1  0.76178450  0.38302650  0.66833300  1
  Se  Se38  1  0.26178450  0.11697350  0.16833300  1
  Se  Se39  1  0.23821550  0.61697350  0.33166700  1
  Se  Se40  1  0.58732100  0.50347900  0.77606200  1
  Se  Se41  1  0.41267900  0.50347900  0.72393800  1
  Se  Se42  1  0.41267900  0.49652100  0.22393800  1
  Se  Se43  1  0.58732100  0.49652100  0.27606200  1
