# generated using pymatgen
data_MoSBr
_symmetry_space_group_name_H-M   'P 1'
_cell_length_a   10.08166000
_cell_length_b   10.08166000
_cell_length_c   10.08166000
_cell_angle_alpha   90.00000000
_cell_angle_beta   90.00000000
_cell_angle_gamma   90.00000000
_symmetry_Int_Tables_number   1
_chemical_formula_structural   MoSBr
_chemical_formula_sum   'Mo16 S16 Br16'
_cell_volume   1024.69859521
_cell_formula_units_Z   16
loop_
 _symmetry_equiv_pos_site_id
 _symmetry_equiv_pos_as_xyz
  1  'x, y, z'
loop_
 _atom_site_type_symbol
 _atom_site_label
 _atom_site_symmetry_multiplicity
 _atom_site_fract_x
 _atom_site_fract_y
 _atom_site_fract_z
 _atom_site_occupancy
  Mo  Mo0  1  0.15192400  0.15192400  0.84807600  1
  Mo  Mo1  1  0.34807600  0.15192400  0.65192400  1
  Mo  Mo2  1  0.15192400  0.34807600  0.65192400  1
  Mo  Mo3  1  0.34807600  0.34807600  0.84807600  1
  Mo  Mo4  1  0.15192400  0.65192400  0.34807600  1
  Mo  Mo5  1  0.34807600  0.65192400  0.15192400  1
  Mo  Mo6  1  0.15192400  0.84807600  0.15192400  1
  Mo  Mo7  1  0.34807600  0.84807600  0.34807600  1
  Mo  Mo8  1  0.65192400  0.15192400  0.34807600  1
  Mo  Mo9  1  0.84807600  0.15192400  0.15192400  1
  Mo  Mo10  1  0.65192400  0.34807600  0.15192400  1
  Mo  Mo11  1  0.84807600  0.34807600  0.34807600  1
  Mo  Mo12  1  0.65192400  0.65192400  0.84807600  1
  Mo  Mo13  1  0.84807600  0.65192400  0.65192400  1
  Mo  Mo14  1  0.65192400  0.84807600  0.65192400  1
  Mo  Mo15  1  0.84807600  0.84807600  0.84807600  1
  S  S16  1  0.38089200  0.11910800  0.88089200  1
  S  S17  1  0.88089200  0.38089200  0.11910800  1
  S  S18  1  0.61910800  0.11910800  0.11910800  1
  S  S19  1  0.11910800  0.38089200  0.88089200  1
  S  S20  1  0.38089200  0.61910800  0.38089200  1
  S  S21  1  0.88089200  0.88089200  0.61910800  1
  S  S22  1  0.61910800  0.61910800  0.61910800  1
  S  S23  1  0.11910800  0.88089200  0.38089200  1
  S  S24  1  0.88089200  0.11910800  0.38089200  1
  S  S25  1  0.38089200  0.38089200  0.61910800  1
  S  S26  1  0.11910800  0.11910800  0.61910800  1
  S  S27  1  0.61910800  0.38089200  0.38089200  1
  S  S28  1  0.88089200  0.61910800  0.88089200  1
  S  S29  1  0.38089200  0.88089200  0.11910800  1
  S  S30  1  0.11910800  0.61910800  0.11910800  1
  S  S31  1  0.61910800  0.88089200  0.88089200  1
  Br  Br32  1  0.37860067  0.37860067  0.12139933  1
  Br  Br33  1  0.37860067  0.12139933  0.37860067  1
  Br  Br34  1  0.12139933  0.37860067  0.37860067  1
  Br  Br35  1  0.12139933  0.12139933  0.12139933  1
  Br  Br36  1  0.37860067  0.87860067  0.62139933  1
  Br  Br37  1  0.37860067  0.62139933  0.87860067  1
  Br  Br38  1  0.12139933  0.87860067  0.87860067  1
  Br  Br39  1  0.12139933  0.62139933  0.62139933  1
  Br  Br40  1  0.87860067  0.37860067  0.62139933  1
  Br  Br41  1  0.87860067  0.12139933  0.87860067  1
  Br  Br42  1  0.62139933  0.37860067  0.87860067  1
  Br  Br43  1  0.62139933  0.12139933  0.62139933  1
  Br  Br44  1  0.87860067  0.87860067  0.12139933  1
  Br  Br45  1  0.87860067  0.62139933  0.37860067  1
  Br  Br46  1  0.62139933  0.87860067  0.37860067  1
  Br  Br47  1  0.62139933  0.62139933  0.12139933  1
