# generated using pymatgen
data_P4PtF12
_symmetry_space_group_name_H-M   'P 1'
_cell_length_a   8.43548000
_cell_length_b   8.43548000
_cell_length_c   8.43548000
_cell_angle_alpha   90.00000000
_cell_angle_beta   90.00000000
_cell_angle_gamma   90.00000000
_symmetry_Int_Tables_number   1
_chemical_formula_structural   P4PtF12
_chemical_formula_sum   'P8 Pt2 F24'
_cell_volume   600.24617359
_cell_formula_units_Z   2
loop_
 _symmetry_equiv_pos_site_id
 _symmetry_equiv_pos_as_xyz
  1  'x, y, z'
loop_
 _atom_site_type_symbol
 _atom_site_label
 _atom_site_symmetry_multiplicity
 _atom_site_fract_x
 _atom_site_fract_y
 _atom_site_fract_z
 _atom_site_occupancy
  P  P0  1  0.34554350  0.34554350  0.34554350  1
  P  P1  1  0.15445650  0.84554350  0.15445650  1
  P  P2  1  0.84554350  0.15445650  0.15445650  1
  P  P3  1  0.15445650  0.15445650  0.84554350  1
  P  P4  1  0.84554350  0.84554350  0.84554350  1
  P  P5  1  0.65445650  0.34554350  0.65445650  1
  P  P6  1  0.34554350  0.65445650  0.65445650  1
  P  P7  1  0.65445650  0.65445650  0.34554350  1
  Pt  Pt8  1  0.00000000  0.00000000  0.00000000  1
  Pt  Pt9  1  0.50000000  0.50000000  0.50000000  1
  F  F10  1  0.14095450  0.14095450  0.65897350  1
  F  F11  1  0.35904550  0.15897350  0.35904550  1
  F  F12  1  0.34102650  0.85904550  0.14095450  1
  F  F13  1  0.14095450  0.34102650  0.85904550  1
  F  F14  1  0.85904550  0.34102650  0.14095450  1
  F  F15  1  0.35904550  0.35904550  0.15897350  1
  F  F16  1  0.14095450  0.65897350  0.14095450  1
  F  F17  1  0.85904550  0.14095450  0.34102650  1
  F  F18  1  0.14095450  0.85904550  0.34102650  1
  F  F19  1  0.34102650  0.14095450  0.85904550  1
  F  F20  1  0.15897350  0.35904550  0.35904550  1
  F  F21  1  0.65897350  0.14095450  0.14095450  1
  F  F22  1  0.64095450  0.64095450  0.15897350  1
  F  F23  1  0.85904550  0.65897350  0.85904550  1
  F  F24  1  0.84102650  0.35904550  0.64095450  1
  F  F25  1  0.64095450  0.84102650  0.35904550  1
  F  F26  1  0.35904550  0.84102650  0.64095450  1
  F  F27  1  0.85904550  0.85904550  0.65897350  1
  F  F28  1  0.64095450  0.15897350  0.64095450  1
  F  F29  1  0.35904550  0.64095450  0.84102650  1
  F  F30  1  0.64095450  0.35904550  0.84102650  1
  F  F31  1  0.84102650  0.64095450  0.35904550  1
  F  F32  1  0.65897350  0.85904550  0.85904550  1
  F  F33  1  0.15897350  0.64095450  0.64095450  1
