# generated using pymatgen
data_Ag5P(S2Cl)2
_symmetry_space_group_name_H-M   'P 1'
_cell_length_a   6.33350800
_cell_length_b   11.24397800
_cell_length_c   7.48753600
_cell_angle_alpha   90.00000000
_cell_angle_beta   90.00000000
_cell_angle_gamma   90.00000000
_symmetry_Int_Tables_number   1
_chemical_formula_structural   Ag5P(S2Cl)2
_chemical_formula_sum   'Ag10 P2 S8 Cl4'
_cell_volume   533.21607550
_cell_formula_units_Z   2
loop_
 _symmetry_equiv_pos_site_id
 _symmetry_equiv_pos_as_xyz
  1  'x, y, z'
loop_
 _atom_site_type_symbol
 _atom_site_label
 _atom_site_symmetry_multiplicity
 _atom_site_fract_x
 _atom_site_fract_y
 _atom_site_fract_z
 _atom_site_occupancy
  Ag  Ag0  1  0.37086100  0.30902700  0.78127500  1
  Ag  Ag1  1  0.40468000  0.00000000  0.50000000  1
  Ag  Ag2  1  0.37086100  0.30902700  0.21872500  1
  Ag  Ag3  1  0.87086100  0.19097300  0.21872500  1
  Ag  Ag4  1  0.87086100  0.19097300  0.78127500  1
  Ag  Ag5  1  0.87086100  0.80902700  0.78127500  1
  Ag  Ag6  1  0.90468000  0.50000000  0.50000000  1
  Ag  Ag7  1  0.87086100  0.80902700  0.21872500  1
  Ag  Ag8  1  0.37086100  0.69097300  0.21872500  1
  Ag  Ag9  1  0.37086100  0.69097300  0.78127500  1
  P  P10  1  0.46111700  0.00000000  0.00000000  1
  P  P11  1  0.96111700  0.50000000  0.00000000  1
  S  S12  1  0.65002200  0.00000000  0.77218900  1
  S  S13  1  0.65002200  0.00000000  0.22781100  1
  S  S14  1  0.76271450  0.35201950  0.00000000  1
  S  S15  1  0.26271450  0.14798050  0.00000000  1
  S  S16  1  0.15002200  0.50000000  0.77218900  1
  S  S17  1  0.15002200  0.50000000  0.22781100  1
  S  S18  1  0.26271450  0.85201950  0.00000000  1
  S  S19  1  0.76271450  0.64798050  0.00000000  1
  Cl  Cl20  1  0.11573750  0.17225650  0.50000000  1
  Cl  Cl21  1  0.61573750  0.32774350  0.50000000  1
  Cl  Cl22  1  0.61573750  0.67225650  0.50000000  1
  Cl  Cl23  1  0.11573750  0.82774350  0.50000000  1
