# generated using pymatgen
data_Sr2CuF6
_symmetry_space_group_name_H-M   'P 1'
_cell_length_a   5.80618200
_cell_length_b   16.58778800
_cell_length_c   5.80493000
_cell_angle_alpha   90.00000000
_cell_angle_beta   90.00000000
_cell_angle_gamma   90.00000000
_symmetry_Int_Tables_number   1
_chemical_formula_structural   Sr2CuF6
_chemical_formula_sum   'Sr8 Cu4 F24'
_cell_volume   559.08277017
_cell_formula_units_Z   4
loop_
 _symmetry_equiv_pos_site_id
 _symmetry_equiv_pos_as_xyz
  1  'x, y, z'
loop_
 _atom_site_type_symbol
 _atom_site_label
 _atom_site_symmetry_multiplicity
 _atom_site_fract_x
 _atom_site_fract_y
 _atom_site_fract_z
 _atom_site_occupancy
  Sr  Sr0  1  0.00000000  0.33826800  0.50000000  1
  Sr  Sr1  1  0.50000000  0.33826800  0.00000000  1
  Sr  Sr2  1  0.00000000  0.16173200  0.00000000  1
  Sr  Sr3  1  0.50000000  0.16173200  0.50000000  1
  Sr  Sr4  1  0.50000000  0.83826800  0.50000000  1
  Sr  Sr5  1  0.00000000  0.83826800  0.00000000  1
  Sr  Sr6  1  0.50000000  0.66173200  0.00000000  1
  Sr  Sr7  1  0.00000000  0.66173200  0.50000000  1
  Cu  Cu8  1  0.00000000  0.00000000  0.50000000  1
  Cu  Cu9  1  0.50000000  0.00000000  0.00000000  1
  Cu  Cu10  1  0.50000000  0.50000000  0.50000000  1
  Cu  Cu11  1  0.00000000  0.50000000  0.00000000  1
  F  F12  1  0.83401650  0.08090850  0.33297600  1
  F  F13  1  0.24500300  0.25000000  0.25000000  1
  F  F14  1  0.75499700  0.25000000  0.75000000  1
  F  F15  1  0.66598350  0.41909150  0.66702400  1
  F  F16  1  0.25499700  0.25000000  0.75000000  1
  F  F17  1  0.16598350  0.08090850  0.66702400  1
  F  F18  1  0.16598350  0.41909150  0.83297600  1
  F  F19  1  0.66598350  0.08090850  0.83297600  1
  F  F20  1  0.74500300  0.25000000  0.25000000  1
  F  F21  1  0.83401650  0.41909150  0.16702400  1
  F  F22  1  0.33401650  0.08090850  0.16702400  1
  F  F23  1  0.33401650  0.41909150  0.33297600  1
  F  F24  1  0.33401650  0.58090850  0.33297600  1
  F  F25  1  0.74500300  0.75000000  0.25000000  1
  F  F26  1  0.25499700  0.75000000  0.75000000  1
  F  F27  1  0.16598350  0.91909150  0.66702400  1
  F  F28  1  0.75499700  0.75000000  0.75000000  1
  F  F29  1  0.66598350  0.58090850  0.66702400  1
  F  F30  1  0.66598350  0.91909150  0.83297600  1
  F  F31  1  0.16598350  0.58090850  0.83297600  1
  F  F32  1  0.24500300  0.75000000  0.25000000  1
  F  F33  1  0.33401650  0.91909150  0.16702400  1
  F  F34  1  0.83401650  0.58090850  0.16702400  1
  F  F35  1  0.83401650  0.91909150  0.33297600  1
