# generated using pymatgen
data_SnH4C2NO4F
_symmetry_space_group_name_H-M   'P 1'
_cell_length_a   7.80460100
_cell_length_b   9.84124300
_cell_length_c   8.65014197
_cell_angle_alpha   90.00000000
_cell_angle_beta   110.03207662
_cell_angle_gamma   90.00000000
_symmetry_Int_Tables_number   1
_chemical_formula_structural   SnH4C2NO4F
_chemical_formula_sum   'Sn4 H16 C8 N4 O16 F4'
_cell_volume   624.19622982
_cell_formula_units_Z   4
loop_
 _symmetry_equiv_pos_site_id
 _symmetry_equiv_pos_as_xyz
  1  'x, y, z'
loop_
 _atom_site_type_symbol
 _atom_site_label
 _atom_site_symmetry_multiplicity
 _atom_site_fract_x
 _atom_site_fract_y
 _atom_site_fract_z
 _atom_site_occupancy
  Sn  Sn0  1  0.99444900  0.81315900  0.62312800  1
  Sn  Sn1  1  0.50555100  0.31315900  0.37687200  1
  Sn  Sn2  1  0.00555100  0.18684100  0.37687200  1
  Sn  Sn3  1  0.49444900  0.68684100  0.62312800  1
  H  H4  1  0.27881600  0.75175600  0.99979300  1
  H  H5  1  0.22118400  0.25175600  0.00020700  1
  H  H6  1  0.97171600  0.73696900  0.16258400  1
  H  H7  1  0.45786900  0.64975800  0.01208200  1
  H  H8  1  0.16829500  0.12591600  0.86028900  1
  H  H9  1  0.72118400  0.24824400  0.00020700  1
  H  H10  1  0.33170500  0.62591600  0.13971100  1
  H  H11  1  0.52828400  0.23696900  0.83741600  1
  H  H12  1  0.83170500  0.87408400  0.13971100  1
  H  H13  1  0.02828400  0.26303100  0.83741600  1
  H  H14  1  0.47171600  0.76303100  0.16258400  1
  H  H15  1  0.04213100  0.14975800  0.98791800  1
  H  H16  1  0.77881600  0.74824400  0.99979300  1
  H  H17  1  0.95786900  0.85024200  0.01208200  1
  H  H18  1  0.66829500  0.37408400  0.86028900  1
  H  H19  1  0.54213100  0.35024200  0.98791800  1
  C  C20  1  0.37793300  0.01042300  0.29949000  1
  C  C21  1  0.06946500  0.48395600  0.27891400  1
  C  C22  1  0.12206700  0.51042300  0.70051000  1
  C  C23  1  0.56946500  0.01604400  0.27891400  1
  C  C24  1  0.62206700  0.98957700  0.70051000  1
  C  C25  1  0.93053500  0.51604400  0.72108600  1
  C  C26  1  0.43053500  0.98395600  0.72108600  1
  C  C27  1  0.87793300  0.48957700  0.29949000  1
  N  N28  1  0.61429100  0.30493700  0.92097400  1
  N  N29  1  0.88570900  0.80493700  0.07902600  1
  N  N30  1  0.38570900  0.69506300  0.07902600  1
  N  N31  1  0.11429100  0.19506300  0.92097400  1
  O  O32  1  0.79766500  0.59937500  0.28828500  1
  O  O33  1  0.84712500  0.63150000  0.68675000  1
  O  O34  1  0.36979900  0.08751500  0.76747400  1
  O  O35  1  0.65287500  0.13150000  0.31325000  1
  O  O36  1  0.29766500  0.90062500  0.28828500  1
  O  O37  1  0.15287500  0.36850000  0.31325000  1
  O  O38  1  0.86979900  0.41248500  0.76747400  1
  O  O39  1  0.18243300  0.62794500  0.67177700  1
  O  O40  1  0.70233500  0.09937500  0.71171500  1
  O  O41  1  0.13020100  0.58751500  0.23252600  1
  O  O42  1  0.63020100  0.91248500  0.23252600  1
  O  O43  1  0.81756700  0.37205500  0.32822300  1
  O  O44  1  0.34712500  0.86850000  0.68675000  1
  O  O45  1  0.31756700  0.12794500  0.32822300  1
  O  O46  1  0.68243300  0.87205500  0.67177700  1
  O  O47  1  0.20233500  0.40062500  0.71171500  1
  F  F48  1  0.59265000  0.64797700  0.87803600  1
  F  F49  1  0.90735000  0.14797700  0.12196400  1
  F  F50  1  0.09265000  0.85202300  0.87803600  1
  F  F51  1  0.40735000  0.35202300  0.12196400  1
