# generated using pymatgen
data_Tb2TiO5
_symmetry_space_group_name_H-M   'P 1'
_cell_length_a   7.27676700
_cell_length_b   7.38028716
_cell_length_c   18.25830895
_cell_angle_alpha   87.91525733
_cell_angle_beta   88.12314165
_cell_angle_gamma   62.50304892
_symmetry_Int_Tables_number   1
_chemical_formula_structural   Tb2TiO5
_chemical_formula_sum   'Tb16 Ti8 O40'
_cell_volume   869.07112625
_cell_formula_units_Z   8
loop_
 _symmetry_equiv_pos_site_id
 _symmetry_equiv_pos_as_xyz
  1  'x, y, z'
loop_
 _atom_site_type_symbol
 _atom_site_label
 _atom_site_symmetry_multiplicity
 _atom_site_fract_x
 _atom_site_fract_y
 _atom_site_fract_z
 _atom_site_occupancy
  Tb  Tb0  1  0.02279100  0.44959300  0.99606200  1
  Tb  Tb1  1  0.49867500  0.97681500  0.01265700  1
  Tb  Tb2  1  0.29801400  0.29323100  0.17565300  1
  Tb  Tb3  1  0.66510200  0.16085900  0.33040600  1
  Tb  Tb4  1  0.99553100  0.50056000  0.47915400  1
  Tb  Tb5  1  0.53702600  0.44875700  0.00064000  1
  Tb  Tb6  1  0.19663300  0.70505900  0.32408600  1
  Tb  Tb7  1  0.48960000  0.51404400  0.49020900  1
  Tb  Tb8  1  0.81300600  0.80053300  0.17782900  1
  Tb  Tb9  1  0.02525100  0.96429900  0.49700900  1
  Tb  Tb10  1  0.34111400  0.85595700  0.66251200  1
  Tb  Tb11  1  0.65041000  0.17033200  0.83560500  1
  Tb  Tb12  1  0.84441500  0.33558500  0.66371900  1
  Tb  Tb13  1  0.15062100  0.16294800  0.82580200  1
  Tb  Tb14  1  0.66784700  0.63735200  0.83663200  1
  Tb  Tb15  1  0.17543100  0.65344200  0.81460500  1
  Ti  Ti16  1  0.95318700  0.99394900  0.99054900  1
  Ti  Ti17  1  0.33851900  0.76810500  0.13692900  1
  Ti  Ti18  1  0.55862900  0.95531800  0.51564600  1
  Ti  Ti19  1  0.82498700  0.34777400  0.17980500  1
  Ti  Ti20  1  0.66162900  0.66779200  0.33944600  1
  Ti  Ti21  1  0.16393000  0.17302700  0.34905400  1
  Ti  Ti22  1  0.31100700  0.33099400  0.65785300  1
  Ti  Ti23  1  0.86363400  0.81881900  0.66556400  1
  O  O24  1  0.25042500  0.82904500  0.04288800  1
  O  O25  1  0.70334300  0.56822000  0.23983100  1
  O  O26  1  0.46352000  0.94531500  0.14238600  1
  O  O27  1  0.06528500  0.18550200  0.22845100  1
  O  O28  1  0.87255200  0.83426200  0.04986300  1
  O  O29  1  0.32211000  0.29890200  0.30283600  1
  O  O30  1  0.93463600  0.42637600  0.36430900  1
  O  O31  1  0.96390700  0.47838500  0.12806500  1
  O  O32  1  0.08611900  0.39587100  0.59114200  1
  O  O33  1  0.69070600  0.16609400  0.20272200  1
  O  O34  1  0.33199700  0.32802300  0.05437400  1
  O  O35  1  0.81378100  0.81619200  0.30645400  1
  O  O36  1  0.54968300  0.52537300  0.11979700  1
  O  O37  1  0.17586300  0.65137500  0.44928800  1
  O  O38  1  0.83348200  0.80023500  0.54597800  1
  O  O39  1  0.52961100  0.49100300  0.36388400  1
  O  O40  1  0.16757600  0.69781100  0.19952600  1
  O  O41  1  0.94790000  0.01897800  0.62142100  1
  O  O42  1  0.81396400  0.32486400  0.78598700  1
  O  O43  1  0.62759100  0.14583600  0.46559000  1
  O  O44  1  0.02036700  0.94466100  0.89010900  1
  O  O45  1  0.39012500  0.88155600  0.32373300  1
  O  O46  1  0.88463500  0.24501100  0.03230300  1
  O  O47  1  0.99852000  0.02333600  0.37052900  1
  O  O48  1  0.35320800  0.82856000  0.53951000  1
  O  O49  1  0.22098800  0.15995900  0.44947800  1
  O  O50  1  0.51104800  0.41428000  0.61246200  1
  O  O51  1  0.46458700  0.49455700  0.88063300  1
  O  O52  1  0.16849600  0.17145400  0.70143600  1
  O  O53  1  0.66612000  0.66724100  0.95994800  1
  O  O54  1  0.35837100  0.83282300  0.78620000  1
  O  O55  1  0.00705300  0.50393700  0.86860600  1
  O  O56  1  0.14016100  0.64348000  0.68660800  1
  O  O57  1  0.65820700  0.69990200  0.44861300  1
  O  O58  1  0.70296400  0.67456800  0.67521000  1
  O  O59  1  0.80439500  0.89251400  0.76359200  1
  O  O60  1  0.25729500  0.14585800  0.93688500  1
  O  O61  1  0.48893900  0.05911800  0.61073400  1
  O  O62  1  0.66784000  0.12836400  0.95586000  1
  O  O63  1  0.37897900  0.30934400  0.76200400  1
