# generated using pymatgen
data_LiAlSiO4
_symmetry_space_group_name_H-M   'P 1'
_cell_length_a   8.18486800
_cell_length_b   5.14489200
_cell_length_c   8.29718521
_cell_angle_alpha   90.00000000
_cell_angle_beta   106.14268992
_cell_angle_gamma   90.00000000
_symmetry_Int_Tables_number   1
_chemical_formula_structural   LiAlSiO4
_chemical_formula_sum   'Li4 Al4 Si4 O16'
_cell_volume   335.62072437
_cell_formula_units_Z   4
loop_
 _symmetry_equiv_pos_site_id
 _symmetry_equiv_pos_as_xyz
  1  'x, y, z'
loop_
 _atom_site_type_symbol
 _atom_site_label
 _atom_site_symmetry_multiplicity
 _atom_site_fract_x
 _atom_site_fract_y
 _atom_site_fract_z
 _atom_site_occupancy
  Li  Li0  1  0.49765500  0.66973300  0.72331200  1
  Li  Li1  1  0.02710400  0.84408400  0.41818700  1
  Li  Li2  1  0.02710400  0.15591600  0.91818700  1
  Li  Li3  1  0.49765500  0.33026700  0.22331200  1
  Al  Al4  1  0.63305000  0.82109600  0.12607600  1
  Al  Al5  1  0.13305100  0.33009400  0.28332900  1
  Al  Al6  1  0.13305100  0.66990600  0.78332900  1
  Al  Al7  1  0.63305000  0.17890400  0.62607600  1
  Si  Si8  1  0.25936700  0.17219800  0.66253500  1
  Si  Si9  1  0.75373300  0.32528400  0.99959200  1
  Si  Si10  1  0.25936700  0.82780200  0.16253500  1
  Si  Si11  1  0.75373300  0.67471600  0.49959200  1
  O  O12  1  0.67720100  0.62183700  0.97104400  1
  O  O13  1  0.28428300  0.13812000  0.21555100  1
  O  O14  1  0.94555800  0.28953700  0.12360200  1
  O  O15  1  0.61936800  0.15183900  0.07134700  1
  O  O16  1  0.44136800  0.29810300  0.65810100  1
  O  O17  1  0.78237100  0.77882700  0.32219600  1
  O  O18  1  0.18385600  0.66507600  0.29750500  1
  O  O19  1  0.67720100  0.37816300  0.47104400  1
  O  O20  1  0.18385600  0.33492400  0.79750500  1
  O  O21  1  0.12303500  0.19261700  0.47462400  1
  O  O22  1  0.94555800  0.71046300  0.62360200  1
  O  O23  1  0.12303500  0.80738300  0.97462400  1
  O  O24  1  0.44136800  0.70189700  0.15810100  1
  O  O25  1  0.61936800  0.84816100  0.57134700  1
  O  O26  1  0.28428300  0.86188000  0.71555100  1
  O  O27  1  0.78237100  0.22117300  0.82219600  1
