# generated using pymatgen
data_CsTiCu3Se4
_symmetry_space_group_name_H-M   'P 1'
_cell_length_a   5.82540700
_cell_length_b   7.85482000
_cell_length_c   10.39247089
_cell_angle_alpha   90.00000000
_cell_angle_beta   106.24756007
_cell_angle_gamma   90.00000000
_symmetry_Int_Tables_number   1
_chemical_formula_structural   CsTiCu3Se4
_chemical_formula_sum   'Cs2 Ti2 Cu6 Se8'
_cell_volume   456.54175469
_cell_formula_units_Z   2
loop_
 _symmetry_equiv_pos_site_id
 _symmetry_equiv_pos_as_xyz
  1  'x, y, z'
loop_
 _atom_site_type_symbol
 _atom_site_label
 _atom_site_symmetry_multiplicity
 _atom_site_fract_x
 _atom_site_fract_y
 _atom_site_fract_z
 _atom_site_occupancy
  Cs  Cs0  1  0.19959100  0.25000000  0.37801000  1
  Cs  Cs1  1  0.80040900  0.75000000  0.62199000  1
  Ti  Ti2  1  0.85335900  0.75000000  0.20531700  1
  Ti  Ti3  1  0.14664100  0.25000000  0.79468300  1
  Cu  Cu4  1  0.28002900  0.50577800  0.00213300  1
  Cu  Cu5  1  0.34956300  0.75000000  0.19966100  1
  Cu  Cu6  1  0.65043700  0.25000000  0.80033900  1
  Cu  Cu7  1  0.71997100  0.49422200  0.99786700  1
  Cu  Cu8  1  0.71997100  0.00577800  0.99786700  1
  Cu  Cu9  1  0.28002900  0.99422200  0.00213300  1
  Se  Se10  1  0.61307000  0.49688200  0.21078100  1
  Se  Se11  1  0.38693000  0.99688200  0.78921900  1
  Se  Se12  1  0.61307000  0.00311800  0.21078100  1
  Se  Se13  1  0.38693000  0.50311800  0.78921900  1
  Se  Se14  1  0.02099500  0.25000000  0.00308400  1
  Se  Se15  1  0.97900500  0.75000000  0.99691600  1
  Se  Se16  1  0.80795900  0.25000000  0.60618600  1
  Se  Se17  1  0.19204100  0.75000000  0.39381400  1
