# generated using pymatgen
data_K2Ge3(BO5)2
_symmetry_space_group_name_H-M   'P 1'
_cell_length_a   16.12833800
_cell_length_b   6.26426800
_cell_length_c   12.05869072
_cell_angle_alpha   90.00000000
_cell_angle_beta   131.38448125
_cell_angle_gamma   90.00000000
_symmetry_Int_Tables_number   1
_chemical_formula_structural   K2Ge3(BO5)2
_chemical_formula_sum   'K8 Ge12 B8 O40'
_cell_volume   914.09083319
_cell_formula_units_Z   4
loop_
 _symmetry_equiv_pos_site_id
 _symmetry_equiv_pos_as_xyz
  1  'x, y, z'
loop_
 _atom_site_type_symbol
 _atom_site_label
 _atom_site_symmetry_multiplicity
 _atom_site_fract_x
 _atom_site_fract_y
 _atom_site_fract_z
 _atom_site_occupancy
  K  K0  1  0.26180200  0.05346900  0.11421700  1
  K  K1  1  0.35054800  0.30647800  0.61291200  1
  K  K2  1  0.73819800  0.05346900  0.88578300  1
  K  K3  1  0.64945200  0.30647800  0.38708800  1
  K  K4  1  0.76180200  0.55346900  0.11421700  1
  K  K5  1  0.85054800  0.80647800  0.61291200  1
  K  K6  1  0.23819800  0.55346900  0.88578300  1
  K  K7  1  0.14945200  0.80647800  0.38708800  1
  Ge  Ge8  1  0.00000000  0.89735600  0.00000000  1
  Ge  Ge9  1  0.45811650  0.82138450  0.82415800  1
  Ge  Ge10  1  0.37576750  0.56876950  0.31644500  1
  Ge  Ge11  1  0.50000000  0.14219100  0.50000000  1
  Ge  Ge12  1  0.62423250  0.56876950  0.68355500  1
  Ge  Ge13  1  0.54188350  0.82138450  0.17584200  1
  Ge  Ge14  1  0.50000000  0.39735600  0.00000000  1
  Ge  Ge15  1  0.95811650  0.32138450  0.82415800  1
  Ge  Ge16  1  0.87576750  0.06876950  0.31644500  1
  Ge  Ge17  1  0.00000000  0.64219100  0.50000000  1
  Ge  Ge18  1  0.12423250  0.06876950  0.68355500  1
  Ge  Ge19  1  0.04188350  0.32138450  0.17584200  1
  B  B20  1  0.42195800  0.79828200  0.55867500  1
  B  B21  1  0.85910550  0.54543450  0.92262000  1
  B  B22  1  0.57804200  0.79828200  0.44132500  1
  B  B23  1  0.14089450  0.54543450  0.07738000  1
  B  B24  1  0.92195800  0.29828200  0.55867500  1
  B  B25  1  0.35910550  0.04543450  0.92262000  1
  B  B26  1  0.07804200  0.29828200  0.44132500  1
  B  B27  1  0.64089450  0.04543450  0.07738000  1
  O  O28  1  0.56738200  0.30880900  0.65891600  1
  O  O29  1  0.45656350  0.76859850  0.32385400  1
  O  O30  1  0.86394250  0.35837750  0.85187600  1
  O  O31  1  0.12236100  0.75012500  0.12215500  1
  O  O32  1  0.54343650  0.76859850  0.67614600  1
  O  O33  1  0.62596650  0.81525350  0.37032000  1
  O  O34  1  0.13605750  0.35837750  0.14812400  1
  O  O35  1  0.43261800  0.30880900  0.34108400  1
  O  O36  1  0.48895950  0.55408150  0.11397500  1
  O  O37  1  0.36501950  0.61530050  0.45185800  1
  O  O38  1  0.87763900  0.75012500  0.87784500  1
  O  O39  1  0.39538500  0.00260500  0.47727500  1
  O  O40  1  0.74635000  0.56000600  0.87193600  1
  O  O41  1  0.43744750  0.01983150  0.08718500  1
  O  O42  1  0.56255250  0.01983150  0.91281500  1
  O  O43  1  0.60461500  0.00260500  0.52272500  1
  O  O44  1  0.63498050  0.61530050  0.54814200  1
  O  O45  1  0.25365000  0.56000600  0.12806400  1
  O  O46  1  0.37403350  0.81525350  0.62968000  1
  O  O47  1  0.51104050  0.55408150  0.88602500  1
  O  O48  1  0.06738200  0.80880900  0.65891600  1
  O  O49  1  0.95656350  0.26859850  0.32385400  1
  O  O50  1  0.36394250  0.85837750  0.85187600  1
  O  O51  1  0.62236100  0.25012500  0.12215500  1
  O  O52  1  0.04343650  0.26859850  0.67614600  1
  O  O53  1  0.12596650  0.31525350  0.37032000  1
  O  O54  1  0.63605750  0.85837750  0.14812400  1
  O  O55  1  0.93261800  0.80880900  0.34108400  1
  O  O56  1  0.98895950  0.05408150  0.11397500  1
  O  O57  1  0.86501950  0.11530050  0.45185800  1
  O  O58  1  0.37763900  0.25012500  0.87784500  1
  O  O59  1  0.89538500  0.50260500  0.47727500  1
  O  O60  1  0.24635000  0.06000600  0.87193600  1
  O  O61  1  0.93744750  0.51983150  0.08718500  1
  O  O62  1  0.06255250  0.51983150  0.91281500  1
  O  O63  1  0.10461500  0.50260500  0.52272500  1
  O  O64  1  0.13498050  0.11530050  0.54814200  1
  O  O65  1  0.75365000  0.06000600  0.12806400  1
  O  O66  1  0.87403350  0.31525350  0.62968000  1
  O  O67  1  0.01104050  0.05408150  0.88602500  1
