# generated using pymatgen
data_UCdO4
_symmetry_space_group_name_H-M   'P 1'
_cell_length_a   6.97816400
_cell_length_b   7.22975400
_cell_length_c   3.52678400
_cell_angle_alpha   90.00000000
_cell_angle_beta   90.00000000
_cell_angle_gamma   90.00000000
_symmetry_Int_Tables_number   1
_chemical_formula_structural   UCdO4
_chemical_formula_sum   'U2 Cd2 O8'
_cell_volume   177.92769558
_cell_formula_units_Z   2
loop_
 _symmetry_equiv_pos_site_id
 _symmetry_equiv_pos_as_xyz
  1  'x, y, z'
loop_
 _atom_site_type_symbol
 _atom_site_label
 _atom_site_symmetry_multiplicity
 _atom_site_fract_x
 _atom_site_fract_y
 _atom_site_fract_z
 _atom_site_occupancy
  U  U0  1  0.00000000  0.00000000  0.00000000  1
  U  U1  1  0.50000000  0.50000000  0.00000000  1
  Cd  Cd2  1  0.50000000  0.00000000  0.50000000  1
  Cd  Cd3  1  0.00000000  0.50000000  0.50000000  1
  O  O4  1  0.28291700  0.00000000  0.00000000  1
  O  O5  1  0.50000000  0.32411600  0.50000000  1
  O  O6  1  0.71708300  0.00000000  0.00000000  1
  O  O7  1  0.50000000  0.67588400  0.50000000  1
  O  O8  1  0.78291700  0.50000000  0.00000000  1
  O  O9  1  0.00000000  0.82411600  0.50000000  1
  O  O10  1  0.21708300  0.50000000  0.00000000  1
  O  O11  1  0.00000000  0.17588400  0.50000000  1
