# generated using pymatgen
data_AgSb(S8F3)2
_symmetry_space_group_name_H-M   'P 1'
_cell_length_a   18.46304000
_cell_length_b   8.25422600
_cell_length_c   16.37794267
_cell_angle_alpha   90.00000000
_cell_angle_beta   101.48283730
_cell_angle_gamma   90.00000000
_symmetry_Int_Tables_number   1
_chemical_formula_structural   AgSb(S8F3)2
_chemical_formula_sum   'Ag4 Sb4 S64 F24'
_cell_volume   2446.00908911
_cell_formula_units_Z   4
loop_
 _symmetry_equiv_pos_site_id
 _symmetry_equiv_pos_as_xyz
  1  'x, y, z'
loop_
 _atom_site_type_symbol
 _atom_site_label
 _atom_site_symmetry_multiplicity
 _atom_site_fract_x
 _atom_site_fract_y
 _atom_site_fract_z
 _atom_site_occupancy
  Ag  Ag0  1  0.00000000  0.83313300  0.25000000  1
  Ag  Ag1  1  0.00000000  0.16686700  0.75000000  1
  Ag  Ag2  1  0.50000000  0.33313300  0.25000000  1
  Ag  Ag3  1  0.50000000  0.66686700  0.75000000  1
  Sb  Sb4  1  0.00000000  0.50000000  0.00000000  1
  Sb  Sb5  1  0.00000000  0.50000000  0.50000000  1
  Sb  Sb6  1  0.50000000  0.00000000  0.00000000  1
  Sb  Sb7  1  0.50000000  0.00000000  0.50000000  1
  S  S8  1  0.68139100  0.59441700  0.41707000  1
  S  S9  1  0.85255000  0.86222400  0.06301500  1
  S  S10  1  0.59919500  0.30027200  0.82892900  1
  S  S11  1  0.65923900  0.70054700  0.66715600  1
  S  S12  1  0.90080500  0.80027200  0.67107100  1
  S  S13  1  0.58216350  0.48376750  0.15070100  1
  S  S14  1  0.86960750  0.34597950  0.74162300  1
  S  S15  1  0.91783650  0.01623250  0.84929900  1
  S  S16  1  0.86960750  0.65402050  0.24162300  1
  S  S17  1  0.63039250  0.84597950  0.75837700  1
  S  S18  1  0.59919500  0.69972800  0.32892900  1
  S  S19  1  0.90080500  0.19972800  0.17107100  1
  S  S20  1  0.58216350  0.51623250  0.65070100  1
  S  S21  1  0.81860900  0.90558300  0.58293000  1
  S  S22  1  0.64745000  0.63777600  0.93698500  1
  S  S23  1  0.84076100  0.79945300  0.33284400  1
  S  S24  1  0.85255000  0.13777600  0.56301500  1
  S  S25  1  0.84076100  0.20054700  0.83284400  1
  S  S26  1  0.87364150  0.19189150  0.28646400  1
  S  S27  1  0.91783650  0.98376750  0.34929900  1
  S  S28  1  0.87364150  0.80810850  0.78646400  1
  S  S29  1  0.62635850  0.30810850  0.71353600  1
  S  S30  1  0.64745000  0.36222400  0.43698500  1
  S  S31  1  0.69895300  0.20005500  0.37242700  1
  S  S32  1  0.69895300  0.79994500  0.87242700  1
  S  S33  1  0.81860900  0.09441700  0.08293000  1
  S  S34  1  0.63039250  0.15402050  0.25837700  1
  S  S35  1  0.80104700  0.70005500  0.12757300  1
  S  S36  1  0.80104700  0.29994500  0.62757300  1
  S  S37  1  0.62635850  0.69189150  0.21353600  1
  S  S38  1  0.65923900  0.29945300  0.16715600  1
  S  S39  1  0.68139100  0.40558300  0.91707000  1
  S  S40  1  0.18139100  0.09441700  0.41707000  1
  S  S41  1  0.35255000  0.36222400  0.06301500  1
  S  S42  1  0.09919500  0.80027200  0.82892900  1
  S  S43  1  0.15923900  0.20054700  0.66715600  1
  S  S44  1  0.40080500  0.30027200  0.67107100  1
  S  S45  1  0.08216350  0.98376750  0.15070100  1
  S  S46  1  0.36960750  0.84597950  0.74162300  1
  S  S47  1  0.41783650  0.51623250  0.84929900  1
  S  S48  1  0.36960750  0.15402050  0.24162300  1
  S  S49  1  0.13039250  0.34597950  0.75837700  1
  S  S50  1  0.09919500  0.19972800  0.32892900  1
  S  S51  1  0.40080500  0.69972800  0.17107100  1
  S  S52  1  0.08216350  0.01623250  0.65070100  1
  S  S53  1  0.31860900  0.40558300  0.58293000  1
  S  S54  1  0.14745000  0.13777600  0.93698500  1
  S  S55  1  0.34076100  0.29945300  0.33284400  1
  S  S56  1  0.35255000  0.63777600  0.56301500  1
  S  S57  1  0.34076100  0.70054700  0.83284400  1
  S  S58  1  0.37364150  0.69189150  0.28646400  1
  S  S59  1  0.41783650  0.48376750  0.34929900  1
  S  S60  1  0.37364150  0.30810850  0.78646400  1
  S  S61  1  0.12635850  0.80810850  0.71353600  1
  S  S62  1  0.14745000  0.86222400  0.43698500  1
  S  S63  1  0.19895300  0.70005500  0.37242700  1
  S  S64  1  0.19895300  0.29994500  0.87242700  1
  S  S65  1  0.31860900  0.59441700  0.08293000  1
  S  S66  1  0.13039250  0.65402050  0.25837700  1
  S  S67  1  0.30104700  0.20005500  0.12757300  1
  S  S68  1  0.30104700  0.79994500  0.62757300  1
  S  S69  1  0.12635850  0.19189150  0.21353600  1
  S  S70  1  0.15923900  0.79945300  0.16715600  1
  S  S71  1  0.18139100  0.90558300  0.91707000  1
  F  F72  1  0.98196350  0.72396450  0.52170200  1
  F  F73  1  0.60433000  0.03627900  0.53502000  1
  F  F74  1  0.51803650  0.77603550  0.47829800  1
  F  F75  1  0.50675500  0.94381200  0.88715300  1
  F  F76  1  0.89567000  0.53627900  0.96498000  1
  F  F77  1  0.50675500  0.05618800  0.38715300  1
  F  F78  1  0.99324500  0.55618800  0.11284700  1
  F  F79  1  0.60433000  0.96372100  0.03502000  1
  F  F80  1  0.98196350  0.27603550  0.02170200  1
  F  F81  1  0.99324500  0.44381200  0.61284700  1
  F  F82  1  0.51803650  0.22396450  0.97829800  1
  F  F83  1  0.89567000  0.46372100  0.46498000  1
  F  F84  1  0.48196350  0.22396450  0.52170200  1
  F  F85  1  0.10433000  0.53627900  0.53502000  1
  F  F86  1  0.01803650  0.27603550  0.47829800  1
  F  F87  1  0.00675500  0.44381200  0.88715300  1
  F  F88  1  0.39567000  0.03627900  0.96498000  1
  F  F89  1  0.00675500  0.55618800  0.38715300  1
  F  F90  1  0.49324500  0.05618800  0.11284700  1
  F  F91  1  0.10433000  0.46372100  0.03502000  1
  F  F92  1  0.48196350  0.77603550  0.02170200  1
  F  F93  1  0.49324500  0.94381200  0.61284700  1
  F  F94  1  0.01803650  0.72396450  0.97829800  1
  F  F95  1  0.39567000  0.96372100  0.46498000  1
