# generated using pymatgen
data_CsCeCuS3
_symmetry_space_group_name_H-M   'P 1'
_cell_length_a   4.06968800
_cell_length_b   15.30060800
_cell_length_c   10.47196600
_cell_angle_alpha   90.00000000
_cell_angle_beta   90.00000000
_cell_angle_gamma   90.00000000
_symmetry_Int_Tables_number   1
_chemical_formula_structural   CsCeCuS3
_chemical_formula_sum   'Cs4 Ce4 Cu4 S12'
_cell_volume   652.07571733
_cell_formula_units_Z   4
loop_
 _symmetry_equiv_pos_site_id
 _symmetry_equiv_pos_as_xyz
  1  'x, y, z'
loop_
 _atom_site_type_symbol
 _atom_site_label
 _atom_site_symmetry_multiplicity
 _atom_site_fract_x
 _atom_site_fract_y
 _atom_site_fract_z
 _atom_site_occupancy
  Cs  Cs0  1  0.00000000  0.25975700  0.25000000  1
  Cs  Cs1  1  0.50000000  0.24024300  0.75000000  1
  Cs  Cs2  1  0.50000000  0.75975700  0.25000000  1
  Cs  Cs3  1  0.00000000  0.74024300  0.75000000  1
  Ce  Ce4  1  0.00000000  0.00000000  0.00000000  1
  Ce  Ce5  1  0.00000000  0.00000000  0.50000000  1
  Ce  Ce6  1  0.50000000  0.50000000  0.00000000  1
  Ce  Ce7  1  0.50000000  0.50000000  0.50000000  1
  Cu  Cu8  1  0.00000000  0.46550900  0.75000000  1
  Cu  Cu9  1  0.50000000  0.03449100  0.25000000  1
  Cu  Cu10  1  0.50000000  0.96550900  0.75000000  1
  Cu  Cu11  1  0.00000000  0.53449100  0.25000000  1
  S  S12  1  0.50000000  0.44866900  0.25000000  1
  S  S13  1  0.00000000  0.38710900  0.56190700  1
  S  S14  1  0.00000000  0.05133100  0.75000000  1
  S  S15  1  0.50000000  0.11289100  0.43809300  1
  S  S16  1  0.00000000  0.38710900  0.93809300  1
  S  S17  1  0.50000000  0.11289100  0.06190700  1
  S  S18  1  0.00000000  0.94866900  0.25000000  1
  S  S19  1  0.50000000  0.88710900  0.56190700  1
  S  S20  1  0.50000000  0.55133100  0.75000000  1
  S  S21  1  0.00000000  0.61289100  0.43809300  1
  S  S22  1  0.50000000  0.88710900  0.93809300  1
  S  S23  1  0.00000000  0.61289100  0.06190700  1
