# generated using pymatgen
data_VF3
_symmetry_space_group_name_H-M   'P 1'
_cell_length_a   5.29220239
_cell_length_b   5.29220239
_cell_length_c   13.71191285
_cell_angle_alpha   90.00000000
_cell_angle_beta   90.00000000
_cell_angle_gamma   120.00000000
_symmetry_Int_Tables_number   1
_chemical_formula_structural   VF3
_chemical_formula_sum   'V6 F18'
_cell_volume   332.58416291
_cell_formula_units_Z   6
loop_
 _symmetry_equiv_pos_site_id
 _symmetry_equiv_pos_as_xyz
  1  'x, y, z'
loop_
 _atom_site_type_symbol
 _atom_site_label
 _atom_site_symmetry_multiplicity
 _atom_site_fract_x
 _atom_site_fract_y
 _atom_site_fract_z
 _atom_site_occupancy
  V  V0  1  0.33333333  0.66666667  0.16666667  1
  V  V1  1  0.00000000  0.00000000  0.00000000  1
  V  V2  1  1.00000000  0.00000000  0.50000000  1
  V  V3  1  0.66666667  0.33333333  0.33333333  1
  V  V4  1  0.66666667  0.33333333  0.83333333  1
  V  V5  1  0.33333333  0.66666667  0.66666667  1
  F  F6  1  0.40174100  0.00000000  0.25000000  1
  F  F7  1  0.59825900  0.59825900  0.25000000  1
  F  F8  1  0.66666667  0.93159233  0.08333333  1
  F  F9  1  0.06840767  0.73507433  0.08333333  1
  F  F10  1  0.26492567  0.33333333  0.08333333  1
  F  F11  1  0.00000000  0.40174100  0.25000000  1
  F  F12  1  0.06840767  0.33333333  0.58333333  1
  F  F13  1  0.26492567  0.93159233  0.58333333  1
  F  F14  1  0.33333333  0.26492567  0.41666667  1
  F  F15  1  0.73507433  0.06840767  0.41666667  1
  F  F16  1  0.93159233  0.66666667  0.41666667  1
  F  F17  1  0.66666667  0.73507433  0.58333333  1
  F  F18  1  0.73507433  0.66666667  0.91666667  1
  F  F19  1  0.93159233  0.26492567  0.91666667  1
  F  F20  1  0.00000000  0.59825900  0.75000000  1
  F  F21  1  0.40174100  0.40174100  0.75000000  1
  F  F22  1  0.59825900  0.00000000  0.75000000  1
  F  F23  1  0.33333333  0.06840767  0.91666667  1
