# generated using pymatgen
data_Sr3Pr10Al12Si18(N2O)18
_symmetry_space_group_name_H-M   'P 1'
_cell_length_a   13.52503800
_cell_length_b   19.11922600
_cell_length_c   11.70921533
_cell_angle_alpha   90.00000000
_cell_angle_beta   125.17888769
_cell_angle_gamma   90.00000000
_symmetry_Int_Tables_number   1
_chemical_formula_structural   Sr3Pr10Al12Si18(N2O)18
_chemical_formula_sum   'Sr6 Pr20 Al24 Si36 N72 O36'
_cell_volume   2474.84788680
_cell_formula_units_Z   2
loop_
 _symmetry_equiv_pos_site_id
 _symmetry_equiv_pos_as_xyz
  1  'x, y, z'
loop_
 _atom_site_type_symbol
 _atom_site_label
 _atom_site_symmetry_multiplicity
 _atom_site_fract_x
 _atom_site_fract_y
 _atom_site_fract_z
 _atom_site_occupancy
  Sr  Sr0  1  0.99906900  0.00000000  0.99915000  1
  Sr  Sr1  1  0.28785700  0.28749400  0.32008700  1
  Sr  Sr2  1  0.28785700  0.71250600  0.32008700  1
  Sr  Sr3  1  0.49906900  0.50000000  0.99915000  1
  Sr  Sr4  1  0.78785700  0.78749400  0.32008700  1
  Sr  Sr5  1  0.78785700  0.21250600  0.32008700  1
  Pr  Pr6  1  0.67467500  0.00000000  0.25192300  1
  Pr  Pr7  1  0.44975500  0.87411000  0.00132200  1
  Pr  Pr8  1  0.46261050  0.78692050  0.67032400  1
  Pr  Pr9  1  0.58833400  0.83787000  0.42170500  1
  Pr  Pr10  1  0.66136800  0.33714900  0.57507200  1
  Pr  Pr11  1  0.66136800  0.66285100  0.57507200  1
  Pr  Pr12  1  0.58833400  0.16213000  0.42170500  1
  Pr  Pr13  1  0.44975500  0.12589000  0.00132200  1
  Pr  Pr14  1  0.46261050  0.21307950  0.67032400  1
  Pr  Pr15  1  0.42377300  0.00000000  0.74804300  1
  Pr  Pr16  1  0.17467500  0.50000000  0.25192300  1
  Pr  Pr17  1  0.94975500  0.37411000  0.00132200  1
  Pr  Pr18  1  0.96261050  0.28692050  0.67032400  1
  Pr  Pr19  1  0.08833400  0.33787000  0.42170500  1
  Pr  Pr20  1  0.16136800  0.83714900  0.57507200  1
  Pr  Pr21  1  0.16136800  0.16285100  0.57507200  1
  Pr  Pr22  1  0.08833400  0.66213000  0.42170500  1
  Pr  Pr23  1  0.94975500  0.62589000  0.00132200  1
  Pr  Pr24  1  0.96261050  0.71307950  0.67032400  1
  Pr  Pr25  1  0.92377300  0.50000000  0.74804300  1
  Al  Al26  1  0.16248400  0.00000000  0.40926800  1
  Al  Al27  1  0.75421200  0.00000000  0.59217100  1
  Al  Al28  1  0.28524950  0.87657450  0.16263500  1
  Al  Al29  1  0.91836200  0.91881600  0.24587500  1
  Al  Al30  1  0.67137550  0.91857450  0.75317100  1
  Al  Al31  1  0.12339700  0.87702300  0.83727900  1
  Al  Al32  1  0.54212450  0.70435950  0.00039800  1
  Al  Al33  1  0.28524950  0.12342550  0.16263500  1
  Al  Al34  1  0.12339700  0.12297700  0.83727900  1
  Al  Al35  1  0.54212450  0.29564050  0.00039800  1
  Al  Al36  1  0.67137550  0.08142550  0.75317100  1
  Al  Al37  1  0.91836200  0.08118400  0.24587500  1
  Al  Al38  1  0.66248400  0.50000000  0.40926800  1
  Al  Al39  1  0.25421200  0.50000000  0.59217100  1
  Al  Al40  1  0.78524950  0.37657450  0.16263500  1
  Al  Al41  1  0.41836200  0.41881600  0.24587500  1
  Al  Al42  1  0.17137550  0.41857450  0.75317100  1
  Al  Al43  1  0.62339700  0.37702300  0.83727900  1
  Al  Al44  1  0.04212450  0.20435950  0.00039800  1
  Al  Al45  1  0.78524950  0.62342550  0.16263500  1
  Al  Al46  1  0.62339700  0.62297700  0.83727900  1
  Al  Al47  1  0.04212450  0.79564050  0.00039800  1
  Al  Al48  1  0.17137550  0.58142550  0.75317100  1
  Al  Al49  1  0.41836200  0.58118400  0.24587500  1
  Si  Si50  1  0.30011600  0.00000000  0.00014500  1
  Si  Si51  1  0.16060300  0.00000000  0.69906500  1
  Si  Si52  1  0.46119000  0.00000000  0.30094600  1
  Si  Si53  1  0.69881600  0.00000000  0.99966300  1
  Si  Si54  1  0.38065350  0.91989250  0.46115400  1
  Si  Si55  1  0.91956250  0.91966450  0.53780800  1
  Si  Si56  1  0.42817000  0.72979300  0.15921800  1
  Si  Si57  1  0.68831400  0.84951100  0.99855200  1
  Si  Si58  1  0.64976650  0.65018450  0.30013000  1
  Si  Si59  1  0.64976650  0.34981550  0.30013000  1
  Si  Si60  1  0.35124800  0.35029400  0.70086600  1
  Si  Si61  1  0.42817000  0.27020700  0.15921800  1
  Si  Si62  1  0.26966000  0.26914100  0.83897600  1
  Si  Si63  1  0.26966000  0.73085900  0.83897600  1
  Si  Si64  1  0.38065350  0.08010750  0.46115400  1
  Si  Si65  1  0.35124800  0.64970600  0.70086600  1
  Si  Si66  1  0.68831400  0.15048900  0.99855200  1
  Si  Si67  1  0.91956250  0.08033550  0.53780800  1
  Si  Si68  1  0.80011600  0.50000000  0.00014500  1
  Si  Si69  1  0.66060300  0.50000000  0.69906500  1
  Si  Si70  1  0.96119000  0.50000000  0.30094600  1
  Si  Si71  1  0.19881600  0.50000000  0.99966300  1
  Si  Si72  1  0.88065350  0.41989250  0.46115400  1
  Si  Si73  1  0.41956250  0.41966450  0.53780800  1
  Si  Si74  1  0.92817000  0.22979300  0.15921800  1
  Si  Si75  1  0.18831400  0.34951100  0.99855200  1
  Si  Si76  1  0.14976650  0.15018450  0.30013000  1
  Si  Si77  1  0.14976650  0.84981550  0.30013000  1
  Si  Si78  1  0.85124800  0.85029400  0.70086600  1
  Si  Si79  1  0.92817000  0.77020700  0.15921800  1
  Si  Si80  1  0.76966000  0.76914100  0.83897600  1
  Si  Si81  1  0.76966000  0.23085900  0.83897600  1
  Si  Si82  1  0.88065350  0.58010750  0.46115400  1
  Si  Si83  1  0.85124800  0.14970600  0.70086600  1
  Si  Si84  1  0.18831400  0.65048900  0.99855200  1
  Si  Si85  1  0.41956250  0.58033550  0.53780800  1
  N  N86  1  0.40227100  0.92497500  0.32743700  1
  N  N87  1  0.23415150  0.92305450  0.00000400  1
  N  N88  1  0.62143200  0.92717300  0.99858400  1
  N  N89  1  0.34868450  0.34866550  0.55190400  1
  N  N90  1  0.29701250  0.84868950  0.45021000  1
  N  N91  1  0.07508150  0.92528050  0.67261900  1
  N  N92  1  0.65262200  0.34713400  0.15517200  1
  N  N93  1  0.41100900  0.73889300  0.99945900  1
  N  N94  1  0.57659650  0.72394950  0.30383100  1
  N  N95  1  0.07865750  0.92163250  0.31151400  1
  N  N96  1  0.76901050  0.92173350  0.69187300  1
  N  N97  1  0.68470400  0.83554100  0.84777600  1
  N  N98  1  0.83603250  0.83819150  0.14408000  1
  N  N99  1  0.29701250  0.15131050  0.45021000  1
  N  N100  1  0.65262200  0.65286600  0.15517200  1
  N  N101  1  0.49931850  0.65443950  0.84440000  1
  N  N102  1  0.27877550  0.27462750  0.69765700  1
  N  N103  1  0.57659650  0.27605050  0.30383100  1
  N  N104  1  0.41100900  0.26110700  0.99945900  1
  N  N105  1  0.49931850  0.34556050  0.84440000  1
  N  N106  1  0.27877550  0.72537250  0.69765700  1
  N  N107  1  0.23415150  0.07694550  0.00000400  1
  N  N108  1  0.07508150  0.07471950  0.67261900  1
  N  N109  1  0.40227100  0.07502500  0.32743700  1
  N  N110  1  0.34868450  0.65133450  0.55190400  1
  N  N111  1  0.07865750  0.07836750  0.31151400  1
  N  N112  1  0.76901050  0.07826650  0.69187300  1
  N  N113  1  0.30431500  0.00000000  0.85464400  1
  N  N114  1  0.44851500  0.00000000  0.14512400  1
  N  N115  1  0.68470400  0.16445900  0.84777600  1
  N  N116  1  0.83603250  0.16180850  0.14408000  1
  N  N117  1  0.62143200  0.07282700  0.99858400  1
  N  N118  1  0.85017600  0.00000000  0.52335300  1
  N  N119  1  0.32698700  0.00000000  0.47654900  1
  N  N120  1  0.68740700  0.00000000  0.84541600  1
  N  N121  1  0.84205500  0.00000000  0.15214300  1
  N  N122  1  0.90227100  0.42497500  0.32743700  1
  N  N123  1  0.73415150  0.42305450  0.00000400  1
  N  N124  1  0.12143200  0.42717300  0.99858400  1
  N  N125  1  0.84868450  0.84866550  0.55190400  1
  N  N126  1  0.79701250  0.34868950  0.45021000  1
  N  N127  1  0.57508150  0.42528050  0.67261900  1
  N  N128  1  0.15262200  0.84713400  0.15517200  1
  N  N129  1  0.91100900  0.23889300  0.99945900  1
  N  N130  1  0.07659650  0.22394950  0.30383100  1
  N  N131  1  0.57865750  0.42163250  0.31151400  1
  N  N132  1  0.26901050  0.42173350  0.69187300  1
  N  N133  1  0.18470400  0.33554100  0.84777600  1
  N  N134  1  0.33603250  0.33819150  0.14408000  1
  N  N135  1  0.79701250  0.65131050  0.45021000  1
  N  N136  1  0.15262200  0.15286600  0.15517200  1
  N  N137  1  0.99931850  0.15443950  0.84440000  1
  N  N138  1  0.77877550  0.77462750  0.69765700  1
  N  N139  1  0.07659650  0.77605050  0.30383100  1
  N  N140  1  0.91100900  0.76110700  0.99945900  1
  N  N141  1  0.99931850  0.84556050  0.84440000  1
  N  N142  1  0.77877550  0.22537250  0.69765700  1
  N  N143  1  0.73415150  0.57694550  0.00000400  1
  N  N144  1  0.57508150  0.57471950  0.67261900  1
  N  N145  1  0.90227100  0.57502500  0.32743700  1
  N  N146  1  0.84868450  0.15133450  0.55190400  1
  N  N147  1  0.57865750  0.57836750  0.31151400  1
  N  N148  1  0.26901050  0.57826650  0.69187300  1
  N  N149  1  0.80431500  0.50000000  0.85464400  1
  N  N150  1  0.94851500  0.50000000  0.14512400  1
  N  N151  1  0.18470400  0.66445900  0.84777600  1
  N  N152  1  0.33603250  0.66180850  0.14408000  1
  N  N153  1  0.12143200  0.57282700  0.99858400  1
  N  N154  1  0.35017600  0.50000000  0.52335300  1
  N  N155  1  0.82698700  0.50000000  0.47654900  1
  N  N156  1  0.18740700  0.50000000  0.84541600  1
  N  N157  1  0.34205500  0.50000000  0.15214300  1
  O  O158  1  0.18899700  0.00000000  0.57871800  1
  O  O159  1  0.60967700  0.00000000  0.42380100  1
  O  O160  1  0.38127900  0.80460200  0.18597500  1
  O  O161  1  0.37396000  0.87590700  0.74887000  1
  O  O162  1  0.61424500  0.87964700  0.24504200  1
  O  O163  1  0.40872800  0.40800300  0.39109600  1
  O  O164  1  0.51535800  0.90718700  0.61007400  1
  O  O165  1  0.60055550  0.78890650  0.99942000  1
  O  O166  1  0.19616450  0.80551150  0.81276200  1
  O  O167  1  0.51271500  0.24664900  0.51215900  1
  O  O168  1  0.51271500  0.75335100  0.51215900  1
  O  O169  1  0.19616450  0.19448850  0.81276200  1
  O  O170  1  0.38127900  0.19539800  0.18597500  1
  O  O171  1  0.51535800  0.09281300  0.61007400  1
  O  O172  1  0.60055550  0.21109350  0.99942000  1
  O  O173  1  0.37396000  0.12409300  0.74887000  1
  O  O174  1  0.61424500  0.12035300  0.24504200  1
  O  O175  1  0.40872800  0.59199700  0.39109600  1
  O  O176  1  0.68899700  0.50000000  0.57871800  1
  O  O177  1  0.10967700  0.50000000  0.42380100  1
  O  O178  1  0.88127900  0.30460200  0.18597500  1
  O  O179  1  0.87396000  0.37590700  0.74887000  1
  O  O180  1  0.11424500  0.37964700  0.24504200  1
  O  O181  1  0.90872800  0.90800300  0.39109600  1
  O  O182  1  0.01535800  0.40718700  0.61007400  1
  O  O183  1  0.10055550  0.28890650  0.99942000  1
  O  O184  1  0.69616450  0.30551150  0.81276200  1
  O  O185  1  0.01271500  0.74664900  0.51215900  1
  O  O186  1  0.01271500  0.25335100  0.51215900  1
  O  O187  1  0.69616450  0.69448850  0.81276200  1
  O  O188  1  0.88127900  0.69539800  0.18597500  1
  O  O189  1  0.01535800  0.59281300  0.61007400  1
  O  O190  1  0.10055550  0.71109350  0.99942000  1
  O  O191  1  0.87396000  0.62409300  0.74887000  1
  O  O192  1  0.11424500  0.62035300  0.24504200  1
  O  O193  1  0.90872800  0.09199700  0.39109600  1
