# generated using pymatgen
data_LiFePO4
_symmetry_space_group_name_H-M   'P 1'
_cell_length_a   13.95507895
_cell_length_b   13.95507895
_cell_length_c   9.39160582
_cell_angle_alpha   90.00000000
_cell_angle_beta   90.00000000
_cell_angle_gamma   120.00000000
_symmetry_Int_Tables_number   1
_chemical_formula_structural   LiFePO4
_chemical_formula_sum   'Li18 Fe18 P18 O72'
_cell_volume   1583.92671342
_cell_formula_units_Z   18
loop_
 _symmetry_equiv_pos_site_id
 _symmetry_equiv_pos_as_xyz
  1  'x, y, z'
loop_
 _atom_site_type_symbol
 _atom_site_label
 _atom_site_symmetry_multiplicity
 _atom_site_fract_x
 _atom_site_fract_y
 _atom_site_fract_z
 _atom_site_occupancy
  Li  Li0  1  0.54502000  0.68705500  0.57876800  1
  Li  Li1  1  0.79575167  0.99024433  0.41457733  1
  Li  Li2  1  0.00975567  0.80550733  0.41457733  1
  Li  Li3  1  0.14203500  0.45498000  0.57876800  1
  Li  Li4  1  0.19449267  0.20424833  0.41457733  1
  Li  Li5  1  0.31294500  0.85796500  0.57876800  1
  Li  Li6  1  0.21168667  0.02038833  0.91210133  1
  Li  Li7  1  0.46241833  0.32357767  0.74791067  1
  Li  Li8  1  0.67642233  0.13884067  0.74791067  1
  Li  Li9  1  0.80870167  0.78831333  0.91210133  1
  Li  Li10  1  0.86115933  0.53758167  0.74791067  1
  Li  Li11  1  0.97961167  0.19129833  0.91210133  1
  Li  Li12  1  0.87835333  0.35372167  0.24543467  1
  Li  Li13  1  0.12908500  0.65691100  0.08124400  1
  Li  Li14  1  0.34308900  0.47217400  0.08124400  1
  Li  Li15  1  0.47536833  0.12164667  0.24543467  1
  Li  Li16  1  0.52782600  0.87091500  0.08124400  1
  Li  Li17  1  0.64627833  0.52463167  0.24543467  1
  Fe  Fe18  1  0.80546667  0.78919533  0.24658033  1
  Fe  Fe19  1  0.78736633  0.98113367  0.74936667  1
  Fe  Fe20  1  0.98372867  0.19453333  0.24658033  1
  Fe  Fe21  1  0.01886633  0.80623267  0.74936667  1
  Fe  Fe22  1  0.21080467  0.01627133  0.24658033  1
  Fe  Fe23  1  0.19376733  0.21263367  0.74936667  1
  Fe  Fe24  1  0.47213333  0.12252867  0.57991367  1
  Fe  Fe25  1  0.45403300  0.31446700  0.08270000  1
  Fe  Fe26  1  0.65039533  0.52786667  0.57991367  1
  Fe  Fe27  1  0.68553300  0.13956600  0.08270000  1
  Fe  Fe28  1  0.87747133  0.34960467  0.57991367  1
  Fe  Fe29  1  0.86043400  0.54596700  0.08270000  1
  Fe  Fe30  1  0.13880000  0.45586200  0.91324700  1
  Fe  Fe31  1  0.12069967  0.64780033  0.41603333  1
  Fe  Fe32  1  0.31706200  0.86120000  0.91324700  1
  Fe  Fe33  1  0.35219967  0.47289933  0.41603333  1
  Fe  Fe34  1  0.54413800  0.68293800  0.91324700  1
  Fe  Fe35  1  0.52710067  0.87930033  0.41603333  1
  P  P36  1  0.67918567  0.13691133  0.41785033  1
  P  P37  1  0.80256767  0.79281533  0.58260633  1
  P  P38  1  0.86308867  0.54227433  0.41785033  1
  P  P39  1  0.99024767  0.19743233  0.58260633  1
  P  P40  1  0.20718467  0.00975233  0.58260633  1
  P  P41  1  0.45772567  0.32081433  0.41785033  1
  P  P42  1  0.34585233  0.47024467  0.75118367  1
  P  P43  1  0.46923433  0.12614867  0.91593967  1
  P  P44  1  0.52975533  0.87560767  0.75118367  1
  P  P45  1  0.65691433  0.53076567  0.91593967  1
  P  P46  1  0.87385133  0.34308567  0.91593967  1
  P  P47  1  0.12439233  0.65414767  0.75118367  1
  P  P48  1  0.01251900  0.80357800  0.08451700  1
  P  P49  1  0.13590100  0.45948200  0.24927300  1
  P  P50  1  0.19642200  0.20894100  0.08451700  1
  P  P51  1  0.32358100  0.86409900  0.24927300  1
  P  P52  1  0.54051800  0.67641900  0.24927300  1
  P  P53  1  0.79105900  0.98748100  0.08451700  1
  O  O54  1  0.55060500  0.77561000  0.74402500  1
  O  O55  1  0.67331200  0.02268900  0.42212000  1
  O  O56  1  0.74436233  0.20213267  0.28282267  1
  O  O57  1  0.68640033  0.68706867  0.59117167  1
  O  O58  1  0.80264500  0.93269200  0.22197800  1
  O  O59  1  0.79786733  0.54222967  0.28282267  1
  O  O60  1  0.78562367  0.89488933  0.57614033  1
  O  O61  1  0.86376100  0.79071900  0.44556600  1
  O  O62  1  0.92695800  0.13623900  0.44556600  1
  O  O63  1  0.87171700  0.80131900  0.71723200  1
  O  O64  1  0.97731100  0.65062300  0.42212000  1
  O  O65  1  0.06730800  0.86995300  0.22197800  1
  O  O66  1  0.92960200  0.12828300  0.71723200  1
  O  O67  1  0.00066833  0.31359967  0.59117167  1
  O  O68  1  0.13004700  0.19735500  0.22197800  1
  O  O69  1  0.10926567  0.21437633  0.57614033  1
  O  O70  1  0.10511067  0.89073433  0.57614033  1
  O  O71  1  0.20928100  0.07304200  0.44556600  1
  O  O72  1  0.19868100  0.07039800  0.71723200  1
  O  O73  1  0.22439000  0.77499500  0.74402500  1
  O  O74  1  0.22500500  0.44939500  0.74402500  1
  O  O75  1  0.34937700  0.32668800  0.42212000  1
  O  O76  1  0.31293133  0.99933167  0.59117167  1
  O  O77  1  0.45777033  0.25563767  0.28282267  1
  O  O78  1  0.21727167  0.10894333  0.07735833  1
  O  O79  1  0.33997867  0.35602233  0.75545333  1
  O  O80  1  0.41102900  0.53546600  0.61615600  1
  O  O81  1  0.35306700  0.02040200  0.92450500  1
  O  O82  1  0.46931167  0.26602533  0.55531133  1
  O  O83  1  0.46453400  0.87556300  0.61615600  1
  O  O84  1  0.45229033  0.22822267  0.90947367  1
  O  O85  1  0.53042767  0.12405233  0.77889933  1
  O  O86  1  0.59362467  0.46957233  0.77889933  1
  O  O87  1  0.53838367  0.13465233  0.05056533  1
  O  O88  1  0.64397767  0.98395633  0.75545333  1
  O  O89  1  0.73397467  0.20328633  0.55531133  1
  O  O90  1  0.59626867  0.46161633  0.05056533  1
  O  O91  1  0.66733500  0.64693300  0.92450500  1
  O  O92  1  0.79671367  0.53068833  0.55531133  1
  O  O93  1  0.77593233  0.54770967  0.90947367  1
  O  O94  1  0.77177733  0.22406767  0.90947367  1
  O  O95  1  0.87594767  0.40637533  0.77889933  1
  O  O96  1  0.86534767  0.40373133  0.05056533  1
  O  O97  1  0.89105667  0.10832833  0.07735833  1
  O  O98  1  0.89167167  0.78272833  0.07735833  1
  O  O99  1  0.01604367  0.66002133  0.75545333  1
  O  O100  1  0.97959800  0.33266500  0.92450500  1
  O  O101  1  0.12443700  0.58897100  0.61615600  1
  O  O102  1  0.88393833  0.44227667  0.41069167  1
  O  O103  1  0.00664533  0.68935567  0.08878667  1
  O  O104  1  0.07769567  0.86879933  0.94948933  1
  O  O105  1  0.01973367  0.35373533  0.25783833  1
  O  O106  1  0.13597833  0.59935867  0.88864467  1
  O  O107  1  0.13120067  0.20889633  0.94948933  1
  O  O108  1  0.11895700  0.56155600  0.24280700  1
  O  O109  1  0.19709433  0.45738567  0.11223267  1
  O  O110  1  0.26029133  0.80290567  0.11223267  1
  O  O111  1  0.20505033  0.46798567  0.38389867  1
  O  O112  1  0.31064433  0.31728967  0.08878667  1
  O  O113  1  0.40064133  0.53661967  0.88864467  1
  O  O114  1  0.26293533  0.79494967  0.38389867  1
  O  O115  1  0.33400167  0.98026633  0.25783833  1
  O  O116  1  0.46338033  0.86402167  0.88864467  1
  O  O117  1  0.44259900  0.88104300  0.24280700  1
  O  O118  1  0.43844400  0.55740100  0.24280700  1
  O  O119  1  0.54261433  0.73970867  0.11223267  1
  O  O120  1  0.53201433  0.73706467  0.38389867  1
  O  O121  1  0.55772333  0.44166167  0.41069167  1
  O  O122  1  0.55833833  0.11606167  0.41069167  1
  O  O123  1  0.68271033  0.99335467  0.08878667  1
  O  O124  1  0.64626467  0.66599833  0.25783833  1
  O  O125  1  0.79110367  0.92230433  0.94948933  1
