# generated using pymatgen
data_ZnBi6P2(O7F)2
_symmetry_space_group_name_H-M   'P 1'
_cell_length_a   17.00495800
_cell_length_b   5.70229600
_cell_length_c   16.90520070
_cell_angle_alpha   90.00000000
_cell_angle_beta   108.92502135
_cell_angle_gamma   90.00000000
_symmetry_Int_Tables_number   1
_chemical_formula_structural   ZnBi6P2(O7F)2
_chemical_formula_sum   'Zn4 Bi24 P8 O56 F8'
_cell_volume   1550.64003590
_cell_formula_units_Z   4
loop_
 _symmetry_equiv_pos_site_id
 _symmetry_equiv_pos_as_xyz
  1  'x, y, z'
loop_
 _atom_site_type_symbol
 _atom_site_label
 _atom_site_symmetry_multiplicity
 _atom_site_fract_x
 _atom_site_fract_y
 _atom_site_fract_z
 _atom_site_occupancy
  Zn  Zn0  1  0.00000000  0.00000000  0.00000000  1
  Zn  Zn1  1  0.00000000  0.00000000  0.50000000  1
  Zn  Zn2  1  0.50000000  0.50000000  0.00000000  1
  Zn  Zn3  1  0.50000000  0.50000000  0.50000000  1
  Bi  Bi4  1  0.70463950  0.43489550  0.17146800  1
  Bi  Bi5  1  0.79536050  0.93489550  0.32853200  1
  Bi  Bi6  1  0.06368750  0.60852750  0.66967800  1
  Bi  Bi7  1  0.29536050  0.56510450  0.82853200  1
  Bi  Bi8  1  0.20463950  0.06510450  0.67146800  1
  Bi  Bi9  1  0.89737900  0.92402200  0.17495900  1
  Bi  Bi10  1  0.06368750  0.39147250  0.16967800  1
  Bi  Bi11  1  0.93631250  0.60852750  0.83032200  1
  Bi  Bi12  1  0.93631250  0.39147250  0.33032200  1
  Bi  Bi13  1  0.10262100  0.92402200  0.32504100  1
  Bi  Bi14  1  0.10262100  0.07597800  0.82504100  1
  Bi  Bi15  1  0.89737900  0.07597800  0.67495900  1
  Bi  Bi16  1  0.20463950  0.93489550  0.17146800  1
  Bi  Bi17  1  0.29536050  0.43489550  0.32853200  1
  Bi  Bi18  1  0.56368750  0.10852750  0.66967800  1
  Bi  Bi19  1  0.79536050  0.06510450  0.82853200  1
  Bi  Bi20  1  0.70463950  0.56510450  0.67146800  1
  Bi  Bi21  1  0.39737900  0.42402200  0.17495900  1
  Bi  Bi22  1  0.56368750  0.89147250  0.16967800  1
  Bi  Bi23  1  0.43631250  0.10852750  0.83032200  1
  Bi  Bi24  1  0.43631250  0.89147250  0.33032200  1
  Bi  Bi25  1  0.60262100  0.42402200  0.32504100  1
  Bi  Bi26  1  0.60262100  0.57597800  0.82504100  1
  Bi  Bi27  1  0.39737900  0.57597800  0.67495900  1
  P  P28  1  0.87265350  0.48391550  0.00929000  1
  P  P29  1  0.12734650  0.51608450  0.99071000  1
  P  P30  1  0.12734650  0.48391550  0.49071000  1
  P  P31  1  0.87265350  0.51608450  0.50929000  1
  P  P32  1  0.37265350  0.98391550  0.00929000  1
  P  P33  1  0.62734650  0.01608450  0.99071000  1
  P  P34  1  0.62734650  0.98391550  0.49071000  1
  P  P35  1  0.37265350  0.01608450  0.50929000  1
  O  O36  1  0.08821000  0.74478200  0.94882900  1
  O  O37  1  0.17088100  0.30194200  0.75729000  1
  O  O38  1  0.92612550  0.30191450  0.54536900  1
  O  O39  1  0.66188350  0.02632050  0.08658400  1
  O  O40  1  0.43074750  0.46282750  0.88809900  1
  O  O41  1  0.82911900  0.69805800  0.24271000  1
  O  O42  1  0.00000000  0.18421800  0.25000000  1
  O  O43  1  0.92612550  0.69808550  0.04536900  1
  O  O44  1  0.33811650  0.97367950  0.91341600  1
  O  O45  1  0.83167900  0.19006900  0.24063400  1
  O  O46  1  0.56925250  0.53717250  0.11190100  1
  O  O47  1  0.07387450  0.69808550  0.45463100  1
  O  O48  1  0.67088100  0.19805800  0.25729000  1
  O  O49  1  0.16188350  0.47367950  0.58658400  1
  O  O50  1  0.32911900  0.80194200  0.74271000  1
  O  O51  1  0.91179000  0.74478200  0.55117100  1
  O  O52  1  0.66832100  0.69006900  0.25936600  1
  O  O53  1  0.07387450  0.30191450  0.95463100  1
  O  O54  1  0.93074750  0.03717250  0.38809900  1
  O  O55  1  0.08821000  0.25521800  0.44882900  1
  O  O56  1  0.91179000  0.25521800  0.05117100  1
  O  O57  1  0.33167900  0.30993100  0.74063400  1
  O  O58  1  0.06925250  0.96282750  0.61190100  1
  O  O59  1  0.16832100  0.80993100  0.75936600  1
  O  O60  1  0.00000000  0.81578200  0.75000000  1
  O  O61  1  0.00000000  0.70123800  0.25000000  1
  O  O62  1  0.83811650  0.52632050  0.41341600  1
  O  O63  1  0.00000000  0.29876200  0.75000000  1
  O  O64  1  0.58821000  0.24478200  0.94882900  1
  O  O65  1  0.67088100  0.80194200  0.75729000  1
  O  O66  1  0.42612550  0.80191450  0.54536900  1
  O  O67  1  0.16188350  0.52632050  0.08658400  1
  O  O68  1  0.93074750  0.96282750  0.88809900  1
  O  O69  1  0.32911900  0.19805800  0.24271000  1
  O  O70  1  0.50000000  0.68421800  0.25000000  1
  O  O71  1  0.42612550  0.19808550  0.04536900  1
  O  O72  1  0.83811650  0.47367950  0.91341600  1
  O  O73  1  0.33167900  0.69006900  0.24063400  1
  O  O74  1  0.06925250  0.03717250  0.11190100  1
  O  O75  1  0.57387450  0.19808550  0.45463100  1
  O  O76  1  0.17088100  0.69805800  0.25729000  1
  O  O77  1  0.66188350  0.97367950  0.58658400  1
  O  O78  1  0.82911900  0.30194200  0.74271000  1
  O  O79  1  0.41179000  0.24478200  0.55117100  1
  O  O80  1  0.16832100  0.19006900  0.25936600  1
  O  O81  1  0.57387450  0.80191450  0.95463100  1
  O  O82  1  0.43074750  0.53717250  0.38809900  1
  O  O83  1  0.58821000  0.75521800  0.44882900  1
  O  O84  1  0.41179000  0.75521800  0.05117100  1
  O  O85  1  0.83167900  0.80993100  0.74063400  1
  O  O86  1  0.56925250  0.46282750  0.61190100  1
  O  O87  1  0.66832100  0.30993100  0.75936600  1
  O  O88  1  0.50000000  0.31578200  0.75000000  1
  O  O89  1  0.50000000  0.20123800  0.25000000  1
  O  O90  1  0.33811650  0.02632050  0.41341600  1
  O  O91  1  0.50000000  0.79876200  0.75000000  1
  F  F92  1  0.20924650  0.51797150  0.46263300  1
  F  F93  1  0.20924650  0.48202850  0.96263300  1
  F  F94  1  0.79075350  0.51797150  0.03736700  1
  F  F95  1  0.79075350  0.48202850  0.53736700  1
  F  F96  1  0.70924650  0.01797150  0.46263300  1
  F  F97  1  0.70924650  0.98202850  0.96263300  1
  F  F98  1  0.29075350  0.01797150  0.03736700  1
  F  F99  1  0.29075350  0.98202850  0.53736700  1
