# generated using pymatgen
data_KSrNb2O6F
_symmetry_space_group_name_H-M   'P 1'
_cell_length_a   3.91388400
_cell_length_b   7.78444000
_cell_length_c   22.78827400
_cell_angle_alpha   90.00000000
_cell_angle_beta   90.00000000
_cell_angle_gamma   90.00000000
_symmetry_Int_Tables_number   1
_chemical_formula_structural   KSrNb2O6F
_chemical_formula_sum   'K4 Sr4 Nb8 O24 F4'
_cell_volume   694.29934909
_cell_formula_units_Z   4
loop_
 _symmetry_equiv_pos_site_id
 _symmetry_equiv_pos_as_xyz
  1  'x, y, z'
loop_
 _atom_site_type_symbol
 _atom_site_label
 _atom_site_symmetry_multiplicity
 _atom_site_fract_x
 _atom_site_fract_y
 _atom_site_fract_z
 _atom_site_occupancy
  K  K0  1  0.00000000  0.50000000  0.73580500  1
  K  K1  1  0.50000000  0.00000000  0.76419500  1
  K  K2  1  0.50000000  0.00000000  0.23580500  1
  K  K3  1  0.00000000  0.50000000  0.26419500  1
  Sr  Sr4  1  0.50000000  0.50000000  0.00000000  1
  Sr  Sr5  1  0.50000000  0.00000000  0.00000000  1
  Sr  Sr6  1  0.00000000  0.00000000  0.50000000  1
  Sr  Sr7  1  0.00000000  0.50000000  0.50000000  1
  Nb  Nb8  1  0.50000000  0.74727200  0.60764300  1
  Nb  Nb9  1  0.50000000  0.25272800  0.60764300  1
  Nb  Nb10  1  0.00000000  0.75272800  0.89235700  1
  Nb  Nb11  1  0.00000000  0.24727200  0.89235700  1
  Nb  Nb12  1  0.00000000  0.24727200  0.10764300  1
  Nb  Nb13  1  0.00000000  0.75272800  0.10764300  1
  Nb  Nb14  1  0.50000000  0.25272800  0.39235700  1
  Nb  Nb15  1  0.50000000  0.74727200  0.39235700  1
  O  O16  1  0.00000000  0.22702400  0.81402000  1
  O  O17  1  0.50000000  0.50000000  0.58009600  1
  O  O18  1  0.50000000  0.75166750  0.91476150  1
  O  O19  1  0.50000000  0.72702400  0.68598000  1
  O  O20  1  0.00000000  0.25166750  0.58523850  1
  O  O21  1  0.50000000  0.27297600  0.68598000  1
  O  O22  1  0.00000000  0.00000000  0.91990400  1
  O  O23  1  0.00000000  0.50000000  0.90899400  1
  O  O24  1  0.00000000  0.77297600  0.81402000  1
  O  O25  1  0.50000000  0.24833250  0.91476150  1
  O  O26  1  0.00000000  0.74833250  0.58523850  1
  O  O27  1  0.50000000  0.00000000  0.59100600  1
  O  O28  1  0.50000000  0.72702400  0.31402000  1
  O  O29  1  0.00000000  0.00000000  0.08009600  1
  O  O30  1  0.00000000  0.25166750  0.41476150  1
  O  O31  1  0.00000000  0.22702400  0.18598000  1
  O  O32  1  0.50000000  0.75166750  0.08523850  1
  O  O33  1  0.00000000  0.77297600  0.18598000  1
  O  O34  1  0.50000000  0.50000000  0.41990400  1
  O  O35  1  0.50000000  0.00000000  0.40899400  1
  O  O36  1  0.50000000  0.27297600  0.31402000  1
  O  O37  1  0.00000000  0.74833250  0.41476150  1
  O  O38  1  0.50000000  0.24833250  0.08523850  1
  O  O39  1  0.00000000  0.50000000  0.09100600  1
  F  F40  1  0.00000000  0.26712300  0.00000000  1
  F  F41  1  0.00000000  0.73287700  0.00000000  1
  F  F42  1  0.50000000  0.76712300  0.50000000  1
  F  F43  1  0.50000000  0.23287700  0.50000000  1
