# generated using pymatgen
data_Nb6Tl2VCl18
_symmetry_space_group_name_H-M   'P 1'
_cell_length_a   9.29307559
_cell_length_b   9.29307559
_cell_length_c   25.54904695
_cell_angle_alpha   90.00000000
_cell_angle_beta   90.00000000
_cell_angle_gamma   120.00000000
_symmetry_Int_Tables_number   1
_chemical_formula_structural   Nb6Tl2VCl18
_chemical_formula_sum   'Nb18 Tl6 V3 Cl54'
_cell_volume   1910.83978667
_cell_formula_units_Z   3
loop_
 _symmetry_equiv_pos_site_id
 _symmetry_equiv_pos_as_xyz
  1  'x, y, z'
loop_
 _atom_site_type_symbol
 _atom_site_label
 _atom_site_symmetry_multiplicity
 _atom_site_fract_x
 _atom_site_fract_y
 _atom_site_fract_z
 _atom_site_occupancy
  Nb  Nb0  1  0.49018167  0.62204033  0.21367833  1
  Nb  Nb1  1  0.53480800  0.82351500  0.11965500  1
  Nb  Nb2  1  0.28870700  0.46519200  0.11965500  1
  Nb  Nb3  1  0.17648500  0.71129300  0.11965500  1
  Nb  Nb4  1  0.37795967  0.86814133  0.21367833  1
  Nb  Nb5  1  0.13185867  0.50981833  0.21367833  1
  Nb  Nb6  1  0.15684833  0.95537367  0.54701167  1
  Nb  Nb7  1  0.20147467  0.15684833  0.45298833  1
  Nb  Nb8  1  0.95537367  0.79852533  0.45298833  1
  Nb  Nb9  1  0.84315167  0.04462633  0.45298833  1
  Nb  Nb10  1  0.04462633  0.20147467  0.54701167  1
  Nb  Nb11  1  0.79852533  0.84315167  0.54701167  1
  Nb  Nb12  1  0.82351500  0.28870700  0.88034500  1
  Nb  Nb13  1  0.86814133  0.49018167  0.78632167  1
  Nb  Nb14  1  0.62204033  0.13185867  0.78632167  1
  Nb  Nb15  1  0.50981833  0.37795967  0.78632167  1
  Nb  Nb16  1  0.71129300  0.53480800  0.88034500  1
  Nb  Nb17  1  0.46519200  0.17648500  0.88034500  1
  Tl  Tl18  1  0.66666667  0.33333333  0.05537733  1
  Tl  Tl19  1  0.00000000  0.00000000  0.27795600  1
  Tl  Tl20  1  0.33333333  0.66666667  0.38871067  1
  Tl  Tl21  1  0.66666667  0.33333333  0.61128933  1
  Tl  Tl22  1  0.00000000  0.00000000  0.72204400  1
  Tl  Tl23  1  0.33333333  0.66666667  0.94462267  1
  V  V24  1  0.00000000  0.00000000  0.00000000  1
  V  V25  1  0.66666667  0.33333333  0.33333333  1
  V  V26  1  0.33333333  0.66666667  0.66666667  1
  Cl  Cl27  1  0.19717600  0.95148000  0.16760600  1
  Cl  Cl28  1  0.38471567  0.90221433  0.05589133  1
  Cl  Cl29  1  0.04852000  0.24569600  0.16760600  1
  Cl  Cl30  1  0.09778567  0.48250133  0.05589133  1
  Cl  Cl31  1  0.87697967  0.30670133  0.27581933  1
  Cl  Cl32  1  0.91236267  0.53050933  0.16572733  1
  Cl  Cl33  1  0.46949067  0.38185333  0.16572733  1
  Cl  Cl34  1  0.42972167  0.12302033  0.27581933  1
  Cl  Cl35  1  0.56888100  0.85083200  0.27744200  1
  Cl  Cl36  1  0.23694500  0.21031300  0.05751400  1
  Cl  Cl37  1  0.51749867  0.61528433  0.05589133  1
  Cl  Cl38  1  0.75430400  0.80282400  0.16760600  1
  Cl  Cl39  1  0.14916800  0.71804900  0.27744200  1
  Cl  Cl40  1  0.78968700  0.02663200  0.05751400  1
  Cl  Cl41  1  0.28195100  0.43111900  0.27744200  1
  Cl  Cl42  1  0.61814667  0.08763733  0.16572733  1
  Cl  Cl43  1  0.97336800  0.76305500  0.05751400  1
  Cl  Cl44  1  0.69329867  0.57027833  0.27581933  1
  Cl  Cl45  1  0.86384267  0.28481333  0.50093933  1
  Cl  Cl46  1  0.05138233  0.23554767  0.38922467  1
  Cl  Cl47  1  0.71518667  0.57902933  0.50093933  1
  Cl  Cl48  1  0.76445233  0.81583467  0.38922467  1
  Cl  Cl49  1  0.54364633  0.64003467  0.60915267  1
  Cl  Cl50  1  0.57902933  0.86384267  0.49906067  1
  Cl  Cl51  1  0.13615733  0.71518667  0.49906067  1
  Cl  Cl52  1  0.09638833  0.45635367  0.60915267  1
  Cl  Cl53  1  0.23554767  0.18416533  0.61077533  1
  Cl  Cl54  1  0.90361167  0.54364633  0.39084733  1
  Cl  Cl55  1  0.18416533  0.94861767  0.38922467  1
  Cl  Cl56  1  0.42097067  0.13615733  0.50093933  1
  Cl  Cl57  1  0.81583467  0.05138233  0.61077533  1
  Cl  Cl58  1  0.45635367  0.35996533  0.39084733  1
  Cl  Cl59  1  0.94861767  0.76445233  0.61077533  1
  Cl  Cl60  1  0.28481333  0.42097067  0.49906067  1
  Cl  Cl61  1  0.64003467  0.09638833  0.39084733  1
  Cl  Cl62  1  0.35996533  0.90361167  0.60915267  1
  Cl  Cl63  1  0.53050933  0.61814667  0.83427267  1
  Cl  Cl64  1  0.71804900  0.56888100  0.72255800  1
  Cl  Cl65  1  0.38185333  0.91236267  0.83427267  1
  Cl  Cl66  1  0.43111900  0.14916800  0.72255800  1
  Cl  Cl67  1  0.21031300  0.97336800  0.94248600  1
  Cl  Cl68  1  0.24569600  0.19717600  0.83239400  1
  Cl  Cl69  1  0.80282400  0.04852000  0.83239400  1
  Cl  Cl70  1  0.76305500  0.78968700  0.94248600  1
  Cl  Cl71  1  0.90221433  0.51749867  0.94410867  1
  Cl  Cl72  1  0.57027833  0.87697967  0.72418067  1
  Cl  Cl73  1  0.85083200  0.28195100  0.72255800  1
  Cl  Cl74  1  0.08763733  0.46949067  0.83427267  1
  Cl  Cl75  1  0.48250133  0.38471567  0.94410867  1
  Cl  Cl76  1  0.12302033  0.69329867  0.72418067  1
  Cl  Cl77  1  0.61528433  0.09778567  0.94410867  1
  Cl  Cl78  1  0.95148000  0.75430400  0.83239400  1
  Cl  Cl79  1  0.30670133  0.42972167  0.72418067  1
  Cl  Cl80  1  0.02663200  0.23694500  0.94248600  1
