# generated using pymatgen
data_NaInO2
_symmetry_space_group_name_H-M   'P 1'
_cell_length_a   3.28641780
_cell_length_b   3.28641780
_cell_length_c   16.61540547
_cell_angle_alpha   90.00000000
_cell_angle_beta   90.00000000
_cell_angle_gamma   120.00000000
_symmetry_Int_Tables_number   1
_chemical_formula_structural   NaInO2
_chemical_formula_sum   'Na3 In3 O6'
_cell_volume   155.41292098
_cell_formula_units_Z   3
loop_
 _symmetry_equiv_pos_site_id
 _symmetry_equiv_pos_as_xyz
  1  'x, y, z'
loop_
 _atom_site_type_symbol
 _atom_site_label
 _atom_site_symmetry_multiplicity
 _atom_site_fract_x
 _atom_site_fract_y
 _atom_site_fract_z
 _atom_site_occupancy
  Na  Na0  1  0.33333333  0.66666667  0.16666667  1
  Na  Na1  1  1.00000000  1.00000000  0.50000000  1
  Na  Na2  1  0.66666667  0.33333333  0.83333333  1
  In  In3  1  0.00000000  0.00000000  0.00000000  1
  In  In4  1  0.66666667  0.33333333  0.33333333  1
  In  In5  1  0.33333333  0.66666667  0.66666667  1
  O  O6  1  0.66666667  0.33333333  0.07131033  1
  O  O7  1  0.00000000  0.00000000  0.26202300  1
  O  O8  1  0.33333333  0.66666667  0.40464367  1
  O  O9  1  0.66666667  0.33333333  0.59535633  1
  O  O10  1  0.00000000  0.00000000  0.73797700  1
  O  O11  1  0.33333333  0.66666667  0.92868967  1
