# generated using pymatgen
data_BaZr2F10
_symmetry_space_group_name_H-M   'P 1'
_cell_length_a   6.22372000
_cell_length_b   15.89233600
_cell_length_c   8.91695825
_cell_angle_alpha   90.00000000
_cell_angle_beta   106.63140011
_cell_angle_gamma   90.00000000
_symmetry_Int_Tables_number   1
_chemical_formula_structural   BaZr2F10
_chemical_formula_sum   'Ba4 Zr8 F40'
_cell_volume   845.07491755
_cell_formula_units_Z   4
loop_
 _symmetry_equiv_pos_site_id
 _symmetry_equiv_pos_as_xyz
  1  'x, y, z'
loop_
 _atom_site_type_symbol
 _atom_site_label
 _atom_site_symmetry_multiplicity
 _atom_site_fract_x
 _atom_site_fract_y
 _atom_site_fract_z
 _atom_site_occupancy
  Ba  Ba0  1  0.00000000  0.56973800  0.25000000  1
  Ba  Ba1  1  0.50000000  0.93026200  0.75000000  1
  Ba  Ba2  1  0.50000000  0.06973800  0.25000000  1
  Ba  Ba3  1  0.00000000  0.43026200  0.75000000  1
  Zr  Zr4  1  0.18700350  0.84524150  0.09648700  1
  Zr  Zr5  1  0.81299650  0.84524150  0.40351300  1
  Zr  Zr6  1  0.31299650  0.65475850  0.90351300  1
  Zr  Zr7  1  0.68700350  0.65475850  0.59648700  1
  Zr  Zr8  1  0.68700350  0.34524150  0.09648700  1
  Zr  Zr9  1  0.31299650  0.34524150  0.40351300  1
  Zr  Zr10  1  0.81299650  0.15475850  0.90351300  1
  Zr  Zr11  1  0.18700350  0.15475850  0.59648700  1
  F  F12  1  0.84500250  0.70787550  0.42611400  1
  F  F13  1  0.15499750  0.70787550  0.07388600  1
  F  F14  1  0.65499750  0.79212450  0.57388600  1
  F  F15  1  0.34500250  0.79212450  0.92611400  1
  F  F16  1  0.50000000  0.80338700  0.25000000  1
  F  F17  1  0.00000000  0.69661300  0.75000000  1
  F  F18  1  0.00000000  0.80072800  0.25000000  1
  F  F19  1  0.50000000  0.69927200  0.75000000  1
  F  F20  1  0.60791950  0.63670350  0.06416700  1
  F  F21  1  0.39208050  0.63670350  0.43583300  1
  F  F22  1  0.89208050  0.86329650  0.93583300  1
  F  F23  1  0.10791950  0.86329650  0.56416700  1
  F  F24  1  0.81744450  0.55721250  0.50167000  1
  F  F25  1  0.18255550  0.55721250  0.99833000  1
  F  F26  1  0.68255550  0.94278750  0.49833000  1
  F  F27  1  0.31744450  0.94278750  0.00167000  1
  F  F28  1  0.23211050  0.93617250  0.25916100  1
  F  F29  1  0.76788950  0.93617250  0.24083900  1
  F  F30  1  0.26788950  0.56382750  0.74083900  1
  F  F31  1  0.73211050  0.56382750  0.75916100  1
  F  F32  1  0.34500250  0.20787550  0.42611400  1
  F  F33  1  0.65499750  0.20787550  0.07388600  1
  F  F34  1  0.15499750  0.29212450  0.57388600  1
  F  F35  1  0.84500250  0.29212450  0.92611400  1
  F  F36  1  0.00000000  0.30338700  0.25000000  1
  F  F37  1  0.50000000  0.19661300  0.75000000  1
  F  F38  1  0.50000000  0.30072800  0.25000000  1
  F  F39  1  0.00000000  0.19927200  0.75000000  1
  F  F40  1  0.10791950  0.13670350  0.06416700  1
  F  F41  1  0.89208050  0.13670350  0.43583300  1
  F  F42  1  0.39208050  0.36329650  0.93583300  1
  F  F43  1  0.60791950  0.36329650  0.56416700  1
  F  F44  1  0.31744450  0.05721250  0.50167000  1
  F  F45  1  0.68255550  0.05721250  0.99833000  1
  F  F46  1  0.18255550  0.44278750  0.49833000  1
  F  F47  1  0.81744450  0.44278750  0.00167000  1
  F  F48  1  0.73211050  0.43617250  0.25916100  1
  F  F49  1  0.26788950  0.43617250  0.24083900  1
  F  F50  1  0.76788950  0.06382750  0.74083900  1
  F  F51  1  0.23211050  0.06382750  0.75916100  1
