# generated using pymatgen
data_Ba3AlF9
_symmetry_space_group_name_H-M   'P 1'
_cell_length_a   5.65912200
_cell_length_b   10.23109200
_cell_length_c   15.07179500
_cell_angle_alpha   90.00000000
_cell_angle_beta   90.00000000
_cell_angle_gamma   90.00000000
_symmetry_Int_Tables_number   1
_chemical_formula_structural   Ba3AlF9
_chemical_formula_sum   'Ba12 Al4 F36'
_cell_volume   872.64182587
_cell_formula_units_Z   4
loop_
 _symmetry_equiv_pos_site_id
 _symmetry_equiv_pos_as_xyz
  1  'x, y, z'
loop_
 _atom_site_type_symbol
 _atom_site_label
 _atom_site_symmetry_multiplicity
 _atom_site_fract_x
 _atom_site_fract_y
 _atom_site_fract_z
 _atom_site_occupancy
  Ba  Ba0  1  0.25000000  0.33013600  0.95915300  1
  Ba  Ba1  1  0.75000000  0.76515700  0.31963300  1
  Ba  Ba2  1  0.75000000  0.66986400  0.04084700  1
  Ba  Ba3  1  0.25000000  0.94694200  0.10071500  1
  Ba  Ba4  1  0.25000000  0.44694200  0.39928500  1
  Ba  Ba5  1  0.75000000  0.26515700  0.18036700  1
  Ba  Ba6  1  0.25000000  0.23484300  0.68036700  1
  Ba  Ba7  1  0.25000000  0.73484300  0.81963300  1
  Ba  Ba8  1  0.75000000  0.16986400  0.45915300  1
  Ba  Ba9  1  0.25000000  0.83013600  0.54084700  1
  Ba  Ba10  1  0.75000000  0.05305800  0.89928500  1
  Ba  Ba11  1  0.75000000  0.55305800  0.60071500  1
  Al  Al12  1  0.25000000  0.02390300  0.33115400  1
  Al  Al13  1  0.25000000  0.52390300  0.16884600  1
  Al  Al14  1  0.75000000  0.47609700  0.83115400  1
  Al  Al15  1  0.75000000  0.97609700  0.66884600  1
  F  F16  1  0.48105000  0.45549500  0.09403300  1
  F  F17  1  0.51895000  0.54450500  0.90596700  1
  F  F18  1  0.02115000  0.58486200  0.24132600  1
  F  F19  1  0.25000000  0.67259500  0.10058600  1
  F  F20  1  0.75000000  0.32740500  0.89941400  1
  F  F21  1  0.49698900  0.35129900  0.54380100  1
  F  F22  1  0.25000000  0.64322400  0.65232400  1
  F  F23  1  0.01895000  0.45549500  0.09403300  1
  F  F24  1  0.99698900  0.14870100  0.04380100  1
  F  F25  1  0.75000000  0.85677600  0.15232400  1
  F  F26  1  0.49698900  0.85129900  0.95619900  1
  F  F27  1  0.75000000  0.35677600  0.34767600  1
  F  F28  1  0.97885000  0.41513800  0.75867400  1
  F  F29  1  0.02115000  0.08486200  0.25867400  1
  F  F30  1  0.52115000  0.91513800  0.74132600  1
  F  F31  1  0.97885000  0.91513800  0.74132600  1
  F  F32  1  0.48105000  0.95549500  0.40596700  1
  F  F33  1  0.51895000  0.04450500  0.59403300  1
  F  F34  1  0.00301100  0.85129900  0.95619900  1
  F  F35  1  0.25000000  0.14322400  0.84767600  1
  F  F36  1  0.00301100  0.35129900  0.54380100  1
  F  F37  1  0.75000000  0.13342800  0.72652500  1
  F  F38  1  0.75000000  0.82740500  0.60058600  1
  F  F39  1  0.25000000  0.36657200  0.22652500  1
  F  F40  1  0.47885000  0.58486200  0.24132600  1
  F  F41  1  0.98105000  0.54450500  0.90596700  1
  F  F42  1  0.98105000  0.04450500  0.59403300  1
  F  F43  1  0.25000000  0.86657200  0.27347500  1
  F  F44  1  0.50301100  0.64870100  0.45619900  1
  F  F45  1  0.50301100  0.14870100  0.04380100  1
  F  F46  1  0.47885000  0.08486200  0.25867400  1
  F  F47  1  0.25000000  0.17259500  0.39941400  1
  F  F48  1  0.01895000  0.95549500  0.40596700  1
  F  F49  1  0.99698900  0.64870100  0.45619900  1
  F  F50  1  0.52115000  0.41513800  0.75867400  1
  F  F51  1  0.75000000  0.63342800  0.77347500  1
