# generated using pymatgen
data_BaZr(PO4)2
_symmetry_space_group_name_H-M   'P 1'
_cell_length_a   8.69772000
_cell_length_b   5.38395200
_cell_length_c   8.01650674
_cell_angle_alpha   90.00000000
_cell_angle_beta   93.25712216
_cell_angle_gamma   90.00000000
_symmetry_Int_Tables_number   1
_chemical_formula_structural   BaZr(PO4)2
_chemical_formula_sum   'Ba2 Zr2 P4 O16'
_cell_volume   374.79142349
_cell_formula_units_Z   2
loop_
 _symmetry_equiv_pos_site_id
 _symmetry_equiv_pos_as_xyz
  1  'x, y, z'
loop_
 _atom_site_type_symbol
 _atom_site_label
 _atom_site_symmetry_multiplicity
 _atom_site_fract_x
 _atom_site_fract_y
 _atom_site_fract_z
 _atom_site_occupancy
  Ba  Ba0  1  0.00000000  0.00000000  0.50000000  1
  Ba  Ba1  1  0.50000000  0.50000000  0.50000000  1
  Zr  Zr2  1  0.00000000  0.00000000  0.00000000  1
  Zr  Zr3  1  0.50000000  0.50000000  0.00000000  1
  P  P4  1  0.36229100  0.00000000  0.22134700  1
  P  P5  1  0.63770900  0.00000000  0.77865300  1
  P  P6  1  0.86229100  0.50000000  0.22134700  1
  P  P7  1  0.13770900  0.50000000  0.77865300  1
  O  O8  1  0.68666900  0.00000000  0.59917700  1
  O  O9  1  0.31333100  0.00000000  0.40082300  1
  O  O10  1  0.46238200  0.23526800  0.19005800  1
  O  O11  1  0.46238200  0.76473200  0.19005800  1
  O  O12  1  0.22650000  0.00000000  0.08815300  1
  O  O13  1  0.53761800  0.76473200  0.80994200  1
  O  O14  1  0.77350000  0.00000000  0.91184700  1
  O  O15  1  0.53761800  0.23526800  0.80994200  1
  O  O16  1  0.18666900  0.50000000  0.59917700  1
  O  O17  1  0.81333100  0.50000000  0.40082300  1
  O  O18  1  0.96238200  0.73526800  0.19005800  1
  O  O19  1  0.96238200  0.26473200  0.19005800  1
  O  O20  1  0.72650000  0.50000000  0.08815300  1
  O  O21  1  0.03761800  0.26473200  0.80994200  1
  O  O22  1  0.27350000  0.50000000  0.91184700  1
  O  O23  1  0.03761800  0.73526800  0.80994200  1
