# generated using pymatgen
data_CsNiPdF5
_symmetry_space_group_name_H-M   'P 1'
_cell_length_a   6.65372000
_cell_length_b   7.58856000
_cell_length_c   10.72731200
_cell_angle_alpha   90.00000000
_cell_angle_beta   90.00000000
_cell_angle_gamma   90.00000000
_symmetry_Int_Tables_number   1
_chemical_formula_structural   CsNiPdF5
_chemical_formula_sum   'Cs4 Ni4 Pd4 F20'
_cell_volume   541.64508354
_cell_formula_units_Z   4
loop_
 _symmetry_equiv_pos_site_id
 _symmetry_equiv_pos_as_xyz
  1  'x, y, z'
loop_
 _atom_site_type_symbol
 _atom_site_label
 _atom_site_symmetry_multiplicity
 _atom_site_fract_x
 _atom_site_fract_y
 _atom_site_fract_z
 _atom_site_occupancy
  Cs  Cs0  1  0.50000000  0.25000000  0.11906900  1
  Cs  Cs1  1  0.50000000  0.75000000  0.88093100  1
  Cs  Cs2  1  0.00000000  0.75000000  0.61906900  1
  Cs  Cs3  1  0.00000000  0.25000000  0.38093100  1
  Ni  Ni4  1  0.00000000  0.50000000  0.00000000  1
  Ni  Ni5  1  0.00000000  0.00000000  0.00000000  1
  Ni  Ni6  1  0.50000000  0.00000000  0.50000000  1
  Ni  Ni7  1  0.50000000  0.50000000  0.50000000  1
  Pd  Pd8  1  0.25000000  0.25000000  0.75000000  1
  Pd  Pd9  1  0.75000000  0.25000000  0.75000000  1
  Pd  Pd10  1  0.75000000  0.75000000  0.25000000  1
  Pd  Pd11  1  0.25000000  0.75000000  0.25000000  1
  F  F12  1  0.77354950  0.06211750  0.87998750  1
  F  F13  1  0.77354950  0.93788250  0.12001250  1
  F  F14  1  0.72645050  0.06211750  0.62001250  1
  F  F15  1  0.72645050  0.93788250  0.37998750  1
  F  F16  1  0.22645050  0.93788250  0.12001250  1
  F  F17  1  0.22645050  0.06211750  0.87998750  1
  F  F18  1  0.00000000  0.25000000  0.07005900  1
  F  F19  1  0.00000000  0.75000000  0.92994100  1
  F  F20  1  0.27354950  0.06211750  0.62001250  1
  F  F21  1  0.27354950  0.93788250  0.37998750  1
  F  F22  1  0.27354950  0.56211750  0.37998750  1
  F  F23  1  0.27354950  0.43788250  0.62001250  1
  F  F24  1  0.22645050  0.56211750  0.12001250  1
  F  F25  1  0.22645050  0.43788250  0.87998750  1
  F  F26  1  0.72645050  0.43788250  0.62001250  1
  F  F27  1  0.72645050  0.56211750  0.37998750  1
  F  F28  1  0.50000000  0.75000000  0.57005900  1
  F  F29  1  0.50000000  0.25000000  0.42994100  1
  F  F30  1  0.77354950  0.56211750  0.12001250  1
  F  F31  1  0.77354950  0.43788250  0.87998750  1
