# generated using pymatgen
data_K2Be2Zn2Si3O11
_symmetry_space_group_name_H-M   'P 1'
_cell_length_a   6.82700200
_cell_length_b   9.75258400
_cell_length_c   15.18039400
_cell_angle_alpha   90.00000000
_cell_angle_beta   90.00000000
_cell_angle_gamma   90.00000000
_symmetry_Int_Tables_number   1
_chemical_formula_structural   K2Be2Zn2Si3O11
_chemical_formula_sum   'K8 Be8 Zn8 Si12 O44'
_cell_volume   1010.72445386
_cell_formula_units_Z   4
loop_
 _symmetry_equiv_pos_site_id
 _symmetry_equiv_pos_as_xyz
  1  'x, y, z'
loop_
 _atom_site_type_symbol
 _atom_site_label
 _atom_site_symmetry_multiplicity
 _atom_site_fract_x
 _atom_site_fract_y
 _atom_site_fract_z
 _atom_site_occupancy
  K  K0  1  0.00000000  0.75000000  0.13842600  1
  K  K1  1  0.50000000  0.75000000  0.94866700  1
  K  K2  1  0.00000000  0.25000000  0.86157400  1
  K  K3  1  0.50000000  0.25000000  0.05133300  1
  K  K4  1  0.50000000  0.25000000  0.63842600  1
  K  K5  1  0.00000000  0.25000000  0.44866700  1
  K  K6  1  0.50000000  0.75000000  0.36157400  1
  K  K7  1  0.00000000  0.75000000  0.55133300  1
  Be  Be8  1  0.17498100  0.50000000  0.00000000  1
  Be  Be9  1  0.82501900  0.00000000  0.00000000  1
  Be  Be10  1  0.82501900  0.50000000  0.00000000  1
  Be  Be11  1  0.17498100  0.00000000  0.00000000  1
  Be  Be12  1  0.67498100  0.00000000  0.50000000  1
  Be  Be13  1  0.32501900  0.50000000  0.50000000  1
  Be  Be14  1  0.32501900  0.00000000  0.50000000  1
  Be  Be15  1  0.67498100  0.50000000  0.50000000  1
  Zn  Zn16  1  0.25000000  0.09923300  0.25000000  1
  Zn  Zn17  1  0.25000000  0.90076700  0.75000000  1
  Zn  Zn18  1  0.75000000  0.09923300  0.25000000  1
  Zn  Zn19  1  0.75000000  0.90076700  0.75000000  1
  Zn  Zn20  1  0.75000000  0.59923300  0.75000000  1
  Zn  Zn21  1  0.75000000  0.40076700  0.25000000  1
  Zn  Zn22  1  0.25000000  0.59923300  0.75000000  1
  Zn  Zn23  1  0.25000000  0.40076700  0.25000000  1
  Si  Si24  1  0.00000000  0.90969800  0.36696800  1
  Si  Si25  1  0.50000000  0.09030200  0.86696800  1
  Si  Si26  1  0.00000000  0.09030200  0.63303200  1
  Si  Si27  1  0.00000000  0.25000000  0.09731900  1
  Si  Si28  1  0.00000000  0.75000000  0.90268100  1
  Si  Si29  1  0.50000000  0.90969800  0.13303200  1
  Si  Si30  1  0.50000000  0.40969800  0.86696800  1
  Si  Si31  1  0.00000000  0.59030200  0.36696800  1
  Si  Si32  1  0.50000000  0.59030200  0.13303200  1
  Si  Si33  1  0.50000000  0.75000000  0.59731900  1
  Si  Si34  1  0.50000000  0.25000000  0.40268100  1
  Si  Si35  1  0.00000000  0.40969800  0.63303200  1
  O  O36  1  0.00000000  0.61140500  0.96421500  1
  O  O37  1  0.00000000  0.88859500  0.96421500  1
  O  O38  1  0.80033850  0.93485550  0.42156750  1
  O  O39  1  0.50000000  0.75000000  0.17240500  1
  O  O40  1  0.50000000  0.99244600  0.77662500  1
  O  O41  1  0.50000000  0.25000000  0.82759500  1
  O  O42  1  0.80294800  0.75000000  0.83945700  1
  O  O43  1  0.00000000  0.00755400  0.27662500  1
  O  O44  1  0.00000000  0.99244600  0.72337500  1
  O  O45  1  0.69966150  0.93485550  0.07843250  1
  O  O46  1  0.30033850  0.93485550  0.07843250  1
  O  O47  1  0.00000000  0.38859500  0.03578500  1
  O  O48  1  0.19966150  0.93485550  0.42156750  1
  O  O49  1  0.69966150  0.06514450  0.92156750  1
  O  O50  1  0.19966150  0.06514450  0.57843250  1
  O  O51  1  0.30033850  0.06514450  0.92156750  1
  O  O52  1  0.80294800  0.25000000  0.16054300  1
  O  O53  1  0.50000000  0.00755400  0.22337500  1
  O  O54  1  0.19705200  0.25000000  0.16054300  1
  O  O55  1  0.19705200  0.75000000  0.83945700  1
  O  O56  1  0.00000000  0.11140500  0.03578500  1
  O  O57  1  0.80033850  0.06514450  0.57843250  1
  O  O58  1  0.50000000  0.11140500  0.46421500  1
  O  O59  1  0.50000000  0.38859500  0.46421500  1
  O  O60  1  0.30033850  0.43485550  0.92156750  1
  O  O61  1  0.00000000  0.25000000  0.67240500  1
  O  O62  1  0.00000000  0.49244600  0.27662500  1
  O  O63  1  0.00000000  0.75000000  0.32759500  1
  O  O64  1  0.30294800  0.25000000  0.33945700  1
  O  O65  1  0.50000000  0.50755400  0.77662500  1
  O  O66  1  0.50000000  0.49244600  0.22337500  1
  O  O67  1  0.19966150  0.43485550  0.57843250  1
  O  O68  1  0.80033850  0.43485550  0.57843250  1
  O  O69  1  0.50000000  0.88859500  0.53578500  1
  O  O70  1  0.69966150  0.43485550  0.92156750  1
  O  O71  1  0.19966150  0.56514450  0.42156750  1
  O  O72  1  0.69966150  0.56514450  0.07843250  1
  O  O73  1  0.80033850  0.56514450  0.42156750  1
  O  O74  1  0.30294800  0.75000000  0.66054300  1
  O  O75  1  0.00000000  0.50755400  0.72337500  1
  O  O76  1  0.69705200  0.75000000  0.66054300  1
  O  O77  1  0.69705200  0.25000000  0.33945700  1
  O  O78  1  0.50000000  0.61140500  0.53578500  1
  O  O79  1  0.30033850  0.56514450  0.07843250  1
