# generated using pymatgen
data_Cs3Cr2I9
_symmetry_space_group_name_H-M   'P 1'
_cell_length_a   14.12088009
_cell_length_b   14.12088009
_cell_length_c   21.80045889
_cell_angle_alpha   90.00000000
_cell_angle_beta   90.00000000
_cell_angle_gamma   120.00000000
_symmetry_Int_Tables_number   1
_chemical_formula_structural   Cs3Cr2I9
_chemical_formula_sum   'Cs18 Cr12 I54'
_cell_volume   3764.60831611
_cell_formula_units_Z   6
loop_
 _symmetry_equiv_pos_site_id
 _symmetry_equiv_pos_as_xyz
  1  'x, y, z'
loop_
 _atom_site_type_symbol
 _atom_site_label
 _atom_site_symmetry_multiplicity
 _atom_site_fract_x
 _atom_site_fract_y
 _atom_site_fract_z
 _atom_site_occupancy
  Cs  Cs0  1  0.66594200  0.66594200  0.25000000  1
  Cs  Cs1  1  0.00000000  0.33405800  0.25000000  1
  Cs  Cs2  1  0.33405800  0.00000000  0.25000000  1
  Cs  Cs3  1  0.00072467  0.66739133  0.08333333  1
  Cs  Cs4  1  0.66666667  0.99927533  0.08333333  1
  Cs  Cs5  1  0.33260867  0.33333333  0.08333333  1
  Cs  Cs6  1  0.33260867  0.99927533  0.58333333  1
  Cs  Cs7  1  0.66666667  0.66739133  0.58333333  1
  Cs  Cs8  1  0.00072467  0.33333333  0.58333333  1
  Cs  Cs9  1  0.66739133  0.00072467  0.41666667  1
  Cs  Cs10  1  0.33333333  0.33260867  0.41666667  1
  Cs  Cs11  1  0.99927533  0.66666667  0.41666667  1
  Cs  Cs12  1  0.99927533  0.33260867  0.91666667  1
  Cs  Cs13  1  0.33333333  0.00072467  0.91666667  1
  Cs  Cs14  1  0.66739133  0.66666667  0.91666667  1
  Cs  Cs15  1  0.33405800  0.33405800  0.75000000  1
  Cs  Cs16  1  0.00000000  0.66594200  0.75000000  1
  Cs  Cs17  1  0.66594200  0.00000000  0.75000000  1
  Cr  Cr18  1  0.33333333  0.66666667  0.50001567  1
  Cr  Cr19  1  0.33333333  0.66666667  0.33331767  1
  Cr  Cr20  1  0.33333333  0.66666667  0.83331767  1
  Cr  Cr21  1  0.33333333  0.66666667  0.00001567  1
  Cr  Cr22  1  0.00000000  0.00000000  0.83334900  1
  Cr  Cr23  1  1.00000000  0.00000000  0.66665100  1
  Cr  Cr24  1  0.00000000  0.00000000  0.16665100  1
  Cr  Cr25  1  0.00000000  0.00000000  0.33334900  1
  Cr  Cr26  1  0.66666667  0.33333333  0.16668233  1
  Cr  Cr27  1  0.66666667  0.33333333  0.99998433  1
  Cr  Cr28  1  0.66666667  0.33333333  0.49998433  1
  Cr  Cr29  1  0.66666667  0.33333333  0.66668233  1
  I  I30  1  0.48531833  0.81865167  0.91666667  1
  I  I31  1  0.33333333  0.51468167  0.91666667  1
  I  I32  1  0.18134833  0.66666667  0.91666667  1
  I  I33  1  0.18134833  0.51468167  0.41666667  1
  I  I34  1  0.33333333  0.81865167  0.41666667  1
  I  I35  1  0.48531833  0.66666667  0.41666667  1
  I  I36  1  0.83728500  0.83955400  0.10016300  1
  I  I37  1  0.00226900  0.16271500  0.10016300  1
  I  I38  1  0.16044600  0.99773100  0.10016300  1
  I  I39  1  0.17288733  0.50395167  0.06650367  1
  I  I40  1  0.33106433  0.82711267  0.06650367  1
  I  I41  1  0.49604833  0.66893567  0.06650367  1
  I  I42  1  0.82938167  0.49377933  0.23317033  1
  I  I43  1  0.66439767  0.17061833  0.23317033  1
  I  I44  1  0.50622067  0.33560233  0.23317033  1
  I  I45  1  0.49377933  0.82938167  0.26682967  1
  I  I46  1  0.33560233  0.50622067  0.26682967  1
  I  I47  1  0.17061833  0.66439767  0.26682967  1
  I  I48  1  0.15198500  0.15198500  0.25000000  1
  I  I49  1  0.00000000  0.84801500  0.25000000  1
  I  I50  1  0.84801500  0.00000000  0.25000000  1
  I  I51  1  0.84801500  0.84801500  0.75000000  1
  I  I52  1  0.00000000  0.15198500  0.75000000  1
  I  I53  1  0.15198500  0.00000000  0.75000000  1
  I  I54  1  0.50395167  0.17288733  0.43349633  1
  I  I55  1  0.66893567  0.49604833  0.43349633  1
  I  I56  1  0.82711267  0.33106433  0.43349633  1
  I  I57  1  0.83955400  0.83728500  0.39983700  1
  I  I58  1  0.99773100  0.16044600  0.39983700  1
  I  I59  1  0.16271500  0.00226900  0.39983700  1
  I  I60  1  0.49604833  0.82711267  0.56650367  1
  I  I61  1  0.33106433  0.50395167  0.56650367  1
  I  I62  1  0.17288733  0.66893567  0.56650367  1
  I  I63  1  0.16044600  0.16271500  0.60016300  1
  I  I64  1  0.00226900  0.83955400  0.60016300  1
  I  I65  1  0.83728500  0.99773100  0.60016300  1
  I  I66  1  0.81865167  0.48531833  0.58333333  1
  I  I67  1  0.66666667  0.18134833  0.58333333  1
  I  I68  1  0.51468167  0.33333333  0.58333333  1
  I  I69  1  0.51468167  0.18134833  0.08333333  1
  I  I70  1  0.66666667  0.48531833  0.08333333  1
  I  I71  1  0.81865167  0.33333333  0.08333333  1
  I  I72  1  0.17061833  0.50622067  0.76682967  1
  I  I73  1  0.33560233  0.82938167  0.76682967  1
  I  I74  1  0.49377933  0.66439767  0.76682967  1
  I  I75  1  0.50622067  0.17061833  0.73317033  1
  I  I76  1  0.66439767  0.49377933  0.73317033  1
  I  I77  1  0.82938167  0.33560233  0.73317033  1
  I  I78  1  0.16271500  0.16044600  0.89983700  1
  I  I79  1  0.99773100  0.83728500  0.89983700  1
  I  I80  1  0.83955400  0.00226900  0.89983700  1
  I  I81  1  0.82711267  0.49604833  0.93349633  1
  I  I82  1  0.66893567  0.17288733  0.93349633  1
  I  I83  1  0.50395167  0.33106433  0.93349633  1
