# generated using pymatgen
data_LiLa4AuO8
_symmetry_space_group_name_H-M   'P 1'
_cell_length_a   5.78757600
_cell_length_b   12.52695000
_cell_length_c   5.78796900
_cell_angle_alpha   90.00000000
_cell_angle_beta   90.00000000
_cell_angle_gamma   90.00000000
_symmetry_Int_Tables_number   1
_chemical_formula_structural   LiLa4AuO8
_chemical_formula_sum   'Li2 La8 Au2 O16'
_cell_volume   419.63166038
_cell_formula_units_Z   2
loop_
 _symmetry_equiv_pos_site_id
 _symmetry_equiv_pos_as_xyz
  1  'x, y, z'
loop_
 _atom_site_type_symbol
 _atom_site_label
 _atom_site_symmetry_multiplicity
 _atom_site_fract_x
 _atom_site_fract_y
 _atom_site_fract_z
 _atom_site_occupancy
  Li  Li0  1  0.50000000  0.00000000  0.00000000  1
  Li  Li1  1  0.00000000  0.50000000  0.00000000  1
  La  La2  1  0.50000000  0.84968300  0.50000000  1
  La  La3  1  0.00000000  0.85035600  0.00000000  1
  La  La4  1  0.50000000  0.64964400  0.00000000  1
  La  La5  1  0.00000000  0.65031700  0.50000000  1
  La  La6  1  0.00000000  0.34968300  0.50000000  1
  La  La7  1  0.50000000  0.35035600  0.00000000  1
  La  La8  1  0.00000000  0.14964400  0.00000000  1
  La  La9  1  0.50000000  0.15031700  0.50000000  1
  Au  Au10  1  0.00000000  0.00000000  0.50000000  1
  Au  Au11  1  0.50000000  0.50000000  0.50000000  1
  O  O12  1  0.75000000  0.75000000  0.24921400  1
  O  O13  1  0.25000000  0.75000000  0.75078600  1
  O  O14  1  0.75000000  0.75000000  0.75078600  1
  O  O15  1  0.24906500  0.00000000  0.74905000  1
  O  O16  1  0.25000000  0.75000000  0.24921400  1
  O  O17  1  0.24906500  0.00000000  0.25095000  1
  O  O18  1  0.75093500  0.00000000  0.25095000  1
  O  O19  1  0.75093500  0.00000000  0.74905000  1
  O  O20  1  0.25000000  0.25000000  0.24921400  1
  O  O21  1  0.75000000  0.25000000  0.75078600  1
  O  O22  1  0.25000000  0.25000000  0.75078600  1
  O  O23  1  0.74906500  0.50000000  0.74905000  1
  O  O24  1  0.75000000  0.25000000  0.24921400  1
  O  O25  1  0.74906500  0.50000000  0.25095000  1
  O  O26  1  0.25093500  0.50000000  0.25095000  1
  O  O27  1  0.25093500  0.50000000  0.74905000  1
