# generated using pymatgen
data_Y3Si2Cl5O6
_symmetry_space_group_name_H-M   'P 1'
_cell_length_a   10.69396400
_cell_length_b   10.44692200
_cell_length_c   11.73300419
_cell_angle_alpha   90.00000000
_cell_angle_beta   103.18894680
_cell_angle_gamma   90.00000000
_symmetry_Int_Tables_number   1
_chemical_formula_structural   Y3Si2Cl5O6
_chemical_formula_sum   'Y12 Si8 Cl20 O24'
_cell_volume   1276.22454318
_cell_formula_units_Z   4
loop_
 _symmetry_equiv_pos_site_id
 _symmetry_equiv_pos_as_xyz
  1  'x, y, z'
loop_
 _atom_site_type_symbol
 _atom_site_label
 _atom_site_symmetry_multiplicity
 _atom_site_fract_x
 _atom_site_fract_y
 _atom_site_fract_z
 _atom_site_occupancy
  Y  Y0  1  0.83268150  0.75073550  0.33036600  1
  Y  Y1  1  0.16731850  0.24926450  0.66963400  1
  Y  Y2  1  0.25000000  0.75000000  0.00000000  1
  Y  Y3  1  0.83268150  0.24926450  0.33036600  1
  Y  Y4  1  0.16731850  0.75073550  0.66963400  1
  Y  Y5  1  0.75000000  0.75000000  0.00000000  1
  Y  Y6  1  0.33268150  0.25073550  0.33036600  1
  Y  Y7  1  0.66731850  0.74926450  0.66963400  1
  Y  Y8  1  0.75000000  0.25000000  0.00000000  1
  Y  Y9  1  0.33268150  0.74926450  0.33036600  1
  Y  Y10  1  0.66731850  0.25073550  0.66963400  1
  Y  Y11  1  0.25000000  0.25000000  0.00000000  1
  Si  Si12  1  0.96400900  0.14600500  0.85567800  1
  Si  Si13  1  0.03599100  0.14600500  0.14432200  1
  Si  Si14  1  0.96400900  0.85399500  0.85567800  1
  Si  Si15  1  0.03599100  0.85399500  0.14432200  1
  Si  Si16  1  0.46400900  0.64600500  0.85567800  1
  Si  Si17  1  0.53599100  0.64600500  0.14432200  1
  Si  Si18  1  0.46400900  0.35399500  0.85567800  1
  Si  Si19  1  0.53599100  0.35399500  0.14432200  1
  Cl  Cl20  1  0.81498300  0.50000000  0.00159500  1
  Cl  Cl21  1  0.87914000  0.50000000  0.35533600  1
  Cl  Cl22  1  0.89440150  0.22455750  0.57881900  1
  Cl  Cl23  1  0.10559850  0.22455750  0.42118100  1
  Cl  Cl24  1  0.71620500  0.50000000  0.66170500  1
  Cl  Cl25  1  0.18501700  0.50000000  0.99840500  1
  Cl  Cl26  1  0.89440150  0.77544250  0.57881900  1
  Cl  Cl27  1  0.28379500  0.50000000  0.33829500  1
  Cl  Cl28  1  0.10559850  0.77544250  0.42118100  1
  Cl  Cl29  1  0.12086000  0.50000000  0.64466400  1
  Cl  Cl30  1  0.31498300  0.00000000  0.00159500  1
  Cl  Cl31  1  0.37914000  0.00000000  0.35533600  1
  Cl  Cl32  1  0.39440150  0.72455750  0.57881900  1
  Cl  Cl33  1  0.60559850  0.72455750  0.42118100  1
  Cl  Cl34  1  0.21620500  0.00000000  0.66170500  1
  Cl  Cl35  1  0.68501700  0.00000000  0.99840500  1
  Cl  Cl36  1  0.39440150  0.27544250  0.57881900  1
  Cl  Cl37  1  0.78379500  0.00000000  0.33829500  1
  Cl  Cl38  1  0.60559850  0.27544250  0.42118100  1
  Cl  Cl39  1  0.62086000  0.00000000  0.64466400  1
  O  O40  1  0.45310800  0.50000000  0.80550000  1
  O  O41  1  0.08771450  0.22005750  0.82808900  1
  O  O42  1  0.08771450  0.77994250  0.82808900  1
  O  O43  1  0.54689200  0.50000000  0.19450000  1
  O  O44  1  0.82563100  0.21822100  0.82811400  1
  O  O45  1  0.91228550  0.77994250  0.17191100  1
  O  O46  1  0.82563100  0.78177900  0.82811400  1
  O  O47  1  0.17436900  0.21822100  0.17188600  1
  O  O48  1  0.00000000  0.85753300  0.00000000  1
  O  O49  1  0.17436900  0.78177900  0.17188600  1
  O  O50  1  0.00000000  0.14246700  0.00000000  1
  O  O51  1  0.91228550  0.22005750  0.17191100  1
  O  O52  1  0.95310800  0.00000000  0.80550000  1
  O  O53  1  0.58771450  0.72005750  0.82808900  1
  O  O54  1  0.58771450  0.27994250  0.82808900  1
  O  O55  1  0.04689200  0.00000000  0.19450000  1
  O  O56  1  0.32563100  0.71822100  0.82811400  1
  O  O57  1  0.41228550  0.27994250  0.17191100  1
  O  O58  1  0.32563100  0.28177900  0.82811400  1
  O  O59  1  0.67436900  0.71822100  0.17188600  1
  O  O60  1  0.50000000  0.35753300  0.00000000  1
  O  O61  1  0.67436900  0.28177900  0.17188600  1
  O  O62  1  0.50000000  0.64246700  0.00000000  1
  O  O63  1  0.41228550  0.72005750  0.17191100  1
