# generated using pymatgen
data_Rb2Ti6O13
_symmetry_space_group_name_H-M   'P 1'
_cell_length_a   16.15252800
_cell_length_b   3.84335000
_cell_length_c   9.23877639
_cell_angle_alpha   90.00000000
_cell_angle_beta   100.86866669
_cell_angle_gamma   90.00000000
_symmetry_Int_Tables_number   1
_chemical_formula_structural   Rb2Ti6O13
_chemical_formula_sum   'Rb4 Ti12 O26'
_cell_volume   563.25335922
_cell_formula_units_Z   2
loop_
 _symmetry_equiv_pos_site_id
 _symmetry_equiv_pos_as_xyz
  1  'x, y, z'
loop_
 _atom_site_type_symbol
 _atom_site_label
 _atom_site_symmetry_multiplicity
 _atom_site_fract_x
 _atom_site_fract_y
 _atom_site_fract_z
 _atom_site_occupancy
  Rb  Rb0  1  0.54389800  0.00000000  0.74684900  1
  Rb  Rb1  1  0.95610200  0.50000000  0.25315100  1
  Rb  Rb2  1  0.04389800  0.50000000  0.74684900  1
  Rb  Rb3  1  0.45610200  0.00000000  0.25315100  1
  Ti  Ti4  1  0.88511100  0.00000000  0.90645500  1
  Ti  Ti5  1  0.61488900  0.50000000  0.09354500  1
  Ti  Ti6  1  0.82541500  0.00000000  0.56355500  1
  Ti  Ti7  1  0.67458500  0.50000000  0.43644500  1
  Ti  Ti8  1  0.76690000  0.00000000  0.22113400  1
  Ti  Ti9  1  0.73310000  0.50000000  0.77886600  1
  Ti  Ti10  1  0.38511100  0.50000000  0.90645500  1
  Ti  Ti11  1  0.11488900  0.00000000  0.09354500  1
  Ti  Ti12  1  0.32541500  0.50000000  0.56355500  1
  Ti  Ti13  1  0.17458500  0.00000000  0.43644500  1
  Ti  Ti14  1  0.26690000  0.50000000  0.22113400  1
  Ti  Ti15  1  0.23310000  0.00000000  0.77886600  1
  O  O16  1  0.00000000  0.00000000  0.00000000  1
  O  O17  1  0.76103100  0.00000000  0.76284000  1
  O  O18  1  0.73896900  0.50000000  0.23716000  1
  O  O19  1  0.91691700  0.00000000  0.71269300  1
  O  O20  1  0.58308300  0.50000000  0.28730700  1
  O  O21  1  0.70365400  0.00000000  0.42755600  1
  O  O22  1  0.79634600  0.50000000  0.57244400  1
  O  O23  1  0.86116200  0.00000000  0.38740400  1
  O  O24  1  0.63883800  0.50000000  0.61259600  1
  O  O25  1  0.64220300  0.00000000  0.10801000  1
  O  O26  1  0.85779700  0.50000000  0.89199000  1
  O  O27  1  0.83213400  0.00000000  0.08648900  1
  O  O28  1  0.66786600  0.50000000  0.91351100  1
  O  O29  1  0.50000000  0.50000000  0.00000000  1
  O  O30  1  0.26103100  0.50000000  0.76284000  1
  O  O31  1  0.23896900  0.00000000  0.23716000  1
  O  O32  1  0.41691700  0.50000000  0.71269300  1
  O  O33  1  0.08308300  0.00000000  0.28730700  1
  O  O34  1  0.20365400  0.50000000  0.42755600  1
  O  O35  1  0.29634600  0.00000000  0.57244400  1
  O  O36  1  0.36116200  0.50000000  0.38740400  1
  O  O37  1  0.13883800  0.00000000  0.61259600  1
  O  O38  1  0.14220300  0.50000000  0.10801000  1
  O  O39  1  0.35779700  0.00000000  0.89199000  1
  O  O40  1  0.33213400  0.50000000  0.08648900  1
  O  O41  1  0.16786600  0.00000000  0.91351100  1
