# generated using pymatgen
data_SrGd2Al2O7
_symmetry_space_group_name_H-M   'P 1'
_cell_length_a   3.74419000
_cell_length_b   3.74419000
_cell_length_c   19.85799800
_cell_angle_alpha   90.00000000
_cell_angle_beta   90.00000000
_cell_angle_gamma   90.00000000
_symmetry_Int_Tables_number   1
_chemical_formula_structural   SrGd2Al2O7
_chemical_formula_sum   'Sr2 Gd4 Al4 O14'
_cell_volume   278.38845494
_cell_formula_units_Z   2
loop_
 _symmetry_equiv_pos_site_id
 _symmetry_equiv_pos_as_xyz
  1  'x, y, z'
loop_
 _atom_site_type_symbol
 _atom_site_label
 _atom_site_symmetry_multiplicity
 _atom_site_fract_x
 _atom_site_fract_y
 _atom_site_fract_z
 _atom_site_occupancy
  Sr  Sr0  1  0.50000000  0.50000000  0.00000000  1
  Sr  Sr1  1  0.00000000  0.00000000  0.50000000  1
  Gd  Gd2  1  0.50000000  0.50000000  0.18173400  1
  Gd  Gd3  1  0.00000000  0.00000000  0.31826600  1
  Gd  Gd4  1  0.00000000  0.00000000  0.68173400  1
  Gd  Gd5  1  0.50000000  0.50000000  0.81826600  1
  Al  Al6  1  0.00000000  0.00000000  0.09511900  1
  Al  Al7  1  0.50000000  0.50000000  0.40488100  1
  Al  Al8  1  0.50000000  0.50000000  0.59511900  1
  Al  Al9  1  0.00000000  0.00000000  0.90488100  1
  O  O10  1  0.50000000  0.00000000  0.39554000  1
  O  O11  1  0.00000000  0.50000000  0.39554000  1
  O  O12  1  0.00000000  0.50000000  0.10446000  1
  O  O13  1  0.50000000  0.00000000  0.10446000  1
  O  O14  1  0.50000000  0.50000000  0.29616000  1
  O  O15  1  0.00000000  0.00000000  0.20384000  1
  O  O16  1  0.00000000  0.00000000  0.00000000  1
  O  O17  1  0.00000000  0.50000000  0.89554000  1
  O  O18  1  0.50000000  0.00000000  0.89554000  1
  O  O19  1  0.50000000  0.00000000  0.60446000  1
  O  O20  1  0.00000000  0.50000000  0.60446000  1
  O  O21  1  0.00000000  0.00000000  0.79616000  1
  O  O22  1  0.50000000  0.50000000  0.70384000  1
  O  O23  1  0.50000000  0.50000000  0.50000000  1
