# generated using pymatgen
data_Li4Ca3(SiN3)2
_symmetry_space_group_name_H-M   'P 1'
_cell_length_a   5.81920000
_cell_length_b   9.75486000
_cell_length_c   5.99877452
_cell_angle_alpha   90.00000000
_cell_angle_beta   90.48904891
_cell_angle_gamma   90.00000000
_symmetry_Int_Tables_number   1
_chemical_formula_structural   Li4Ca3(SiN3)2
_chemical_formula_sum   'Li8 Ca6 Si4 N12'
_cell_volume   340.51091852
_cell_formula_units_Z   2
loop_
 _symmetry_equiv_pos_site_id
 _symmetry_equiv_pos_as_xyz
  1  'x, y, z'
loop_
 _atom_site_type_symbol
 _atom_site_label
 _atom_site_symmetry_multiplicity
 _atom_site_fract_x
 _atom_site_fract_y
 _atom_site_fract_z
 _atom_site_occupancy
  Li  Li0  1  0.36054750  0.32451950  0.12629200  1
  Li  Li1  1  0.36054750  0.67548050  0.12629200  1
  Li  Li2  1  0.63945250  0.67548050  0.87370800  1
  Li  Li3  1  0.63945250  0.32451950  0.87370800  1
  Li  Li4  1  0.86054750  0.82451950  0.12629200  1
  Li  Li5  1  0.86054750  0.17548050  0.12629200  1
  Li  Li6  1  0.13945250  0.17548050  0.87370800  1
  Li  Li7  1  0.13945250  0.82451950  0.87370800  1
  Ca  Ca8  1  0.50000000  0.18478300  0.50000000  1
  Ca  Ca9  1  0.50000000  0.81521700  0.50000000  1
  Ca  Ca10  1  0.50000000  0.00000000  0.00000000  1
  Ca  Ca11  1  0.00000000  0.68478300  0.50000000  1
  Ca  Ca12  1  0.00000000  0.31521700  0.50000000  1
  Ca  Ca13  1  0.00000000  0.50000000  0.00000000  1
  Si  Si14  1  0.88103800  0.00000000  0.66923500  1
  Si  Si15  1  0.11896200  0.00000000  0.33076500  1
  Si  Si16  1  0.38103800  0.50000000  0.66923500  1
  Si  Si17  1  0.61896200  0.50000000  0.33076500  1
  N  N18  1  0.21555550  0.85069250  0.20924400  1
  N  N19  1  0.80749400  0.00000000  0.36706900  1
  N  N20  1  0.19250600  0.00000000  0.63293100  1
  N  N21  1  0.78444450  0.14930750  0.79075600  1
  N  N22  1  0.78444450  0.85069250  0.79075600  1
  N  N23  1  0.21555550  0.14930750  0.20924400  1
  N  N24  1  0.71555550  0.35069250  0.20924400  1
  N  N25  1  0.30749400  0.50000000  0.36706900  1
  N  N26  1  0.69250600  0.50000000  0.63293100  1
  N  N27  1  0.28444450  0.64930750  0.79075600  1
  N  N28  1  0.28444450  0.35069250  0.79075600  1
  N  N29  1  0.71555550  0.64930750  0.20924400  1
