# generated using pymatgen
data_ZnS
_symmetry_space_group_name_H-M   'P 1'
_cell_length_a   3.85514966
_cell_length_b   3.85514966
_cell_length_c   75.45935824
_cell_angle_alpha   90.00000000
_cell_angle_beta   90.00000000
_cell_angle_gamma   120.00000000
_symmetry_Int_Tables_number   1
_chemical_formula_structural   ZnS
_chemical_formula_sum   'Zn24 S24'
_cell_volume   971.23924837
_cell_formula_units_Z   24
loop_
 _symmetry_equiv_pos_site_id
 _symmetry_equiv_pos_as_xyz
  1  'x, y, z'
loop_
 _atom_site_type_symbol
 _atom_site_label
 _atom_site_symmetry_multiplicity
 _atom_site_fract_x
 _atom_site_fract_y
 _atom_site_fract_z
 _atom_site_occupancy
  Zn  Zn0  1  0.00000000  0.00000000  0.29167900  1
  Zn  Zn1  1  0.66666667  0.33333333  0.04167833  1
  Zn  Zn2  1  0.33333333  0.66666667  0.08334067  1
  Zn  Zn3  1  0.33333333  0.66666667  0.20833867  1
  Zn  Zn4  1  0.00000000  0.00000000  0.00002300  1
  Zn  Zn5  1  0.66666667  0.33333333  0.16667533  1
  Zn  Zn6  1  0.66666667  0.33333333  0.25001833  1
  Zn  Zn7  1  0.00000000  0.00000000  0.12501000  1
  Zn  Zn8  1  0.66666667  0.33333333  0.62501233  1
  Zn  Zn9  1  0.33333333  0.66666667  0.37501167  1
  Zn  Zn10  1  0.00000000  0.00000000  0.41667400  1
  Zn  Zn11  1  0.00000000  0.00000000  0.54167200  1
  Zn  Zn12  1  0.66666667  0.33333333  0.33335633  1
  Zn  Zn13  1  0.33333333  0.66666667  0.50000867  1
  Zn  Zn14  1  0.33333333  0.66666667  0.58335167  1
  Zn  Zn15  1  0.66666667  0.33333333  0.45834333  1
  Zn  Zn16  1  0.33333333  0.66666667  0.95834567  1
  Zn  Zn17  1  0.00000000  0.00000000  0.70834500  1
  Zn  Zn18  1  0.66666667  0.33333333  0.75000733  1
  Zn  Zn19  1  0.66666667  0.33333333  0.87500533  1
  Zn  Zn20  1  0.33333333  0.66666667  0.66668967  1
  Zn  Zn21  1  0.00000000  0.00000000  0.83334200  1
  Zn  Zn22  1  0.00000000  0.00000000  0.91668500  1
  Zn  Zn23  1  0.33333333  0.66666667  0.79167667  1
  S  S24  1  0.33333333  0.66666667  0.23959167  1
  S  S25  1  0.00000000  0.00000000  0.15623900  1
  S  S26  1  0.66666667  0.33333333  0.07290733  1
  S  S27  1  0.66666667  0.33333333  0.19788433  1
  S  S28  1  0.33333333  0.66666667  0.11456967  1
  S  S29  1  0.00000000  0.00000000  0.32292900  1
  S  S30  1  0.00000000  0.00000000  0.03124000  1
  S  S31  1  0.66666667  0.33333333  0.28121633  1
  S  S32  1  0.00000000  0.00000000  0.57292500  1
  S  S33  1  0.66666667  0.33333333  0.48957233  1
  S  S34  1  0.33333333  0.66666667  0.40624067  1
  S  S35  1  0.33333333  0.66666667  0.53121767  1
  S  S36  1  0.00000000  0.00000000  0.44790300  1
  S  S37  1  0.66666667  0.33333333  0.65626233  1
  S  S38  1  0.66666667  0.33333333  0.36457333  1
  S  S39  1  0.33333333  0.66666667  0.61454967  1
  S  S40  1  0.66666667  0.33333333  0.90625833  1
  S  S41  1  0.33333333  0.66666667  0.82290567  1
  S  S42  1  0.00000000  0.00000000  0.73957400  1
  S  S43  1  0.00000000  0.00000000  0.86455100  1
  S  S44  1  0.66666667  0.33333333  0.78123633  1
  S  S45  1  0.33333333  0.66666667  0.98959567  1
  S  S46  1  0.33333333  0.66666667  0.69790667  1
  S  S47  1  0.00000000  0.00000000  0.94788300  1
