# generated using pymatgen
data_SrBiBrO2
_symmetry_space_group_name_H-M   'P 1'
_cell_length_a   5.85980600
_cell_length_b   13.17627800
_cell_length_c   5.73557000
_cell_angle_alpha   90.00000000
_cell_angle_beta   90.00000000
_cell_angle_gamma   90.00000000
_symmetry_Int_Tables_number   1
_chemical_formula_structural   SrBiBrO2
_chemical_formula_sum   'Sr4 Bi4 Br4 O8'
_cell_volume   442.84584253
_cell_formula_units_Z   4
loop_
 _symmetry_equiv_pos_site_id
 _symmetry_equiv_pos_as_xyz
  1  'x, y, z'
loop_
 _atom_site_type_symbol
 _atom_site_label
 _atom_site_symmetry_multiplicity
 _atom_site_fract_x
 _atom_site_fract_y
 _atom_site_fract_z
 _atom_site_occupancy
  Sr  Sr0  1  0.00000000  0.10095800  0.25000000  1
  Sr  Sr1  1  0.50000000  0.39904200  0.75000000  1
  Sr  Sr2  1  0.50000000  0.60095800  0.25000000  1
  Sr  Sr3  1  0.00000000  0.89904200  0.75000000  1
  Bi  Bi4  1  0.50000000  0.07762200  0.75000000  1
  Bi  Bi5  1  0.00000000  0.42237800  0.25000000  1
  Bi  Bi6  1  0.00000000  0.57762200  0.75000000  1
  Bi  Bi7  1  0.50000000  0.92237800  0.25000000  1
  Br  Br8  1  0.50000000  0.25463800  0.25000000  1
  Br  Br9  1  0.00000000  0.24536200  0.75000000  1
  Br  Br10  1  0.00000000  0.75463800  0.25000000  1
  Br  Br11  1  0.50000000  0.74536200  0.75000000  1
  O  O12  1  0.73387300  0.00000000  0.00000000  1
  O  O13  1  0.26612700  0.00000000  0.50000000  1
  O  O14  1  0.26612700  0.00000000  0.00000000  1
  O  O15  1  0.73387300  0.00000000  0.50000000  1
  O  O16  1  0.23387300  0.50000000  0.00000000  1
  O  O17  1  0.76612700  0.50000000  0.50000000  1
  O  O18  1  0.76612700  0.50000000  0.00000000  1
  O  O19  1  0.23387300  0.50000000  0.50000000  1
