# generated using pymatgen
data_SiO2
_symmetry_space_group_name_H-M   'P 1'
_cell_length_a   7.56747300
_cell_length_b   19.00892000
_cell_length_c   14.14375300
_cell_angle_alpha   90.00000000
_cell_angle_beta   90.00000000
_cell_angle_gamma   90.00000000
_symmetry_Int_Tables_number   1
_chemical_formula_structural   SiO2
_chemical_formula_sum   'Si36 O72'
_cell_volume   2034.57163960
_cell_formula_units_Z   36
loop_
 _symmetry_equiv_pos_site_id
 _symmetry_equiv_pos_as_xyz
  1  'x, y, z'
loop_
 _atom_site_type_symbol
 _atom_site_label
 _atom_site_symmetry_multiplicity
 _atom_site_fract_x
 _atom_site_fract_y
 _atom_site_fract_z
 _atom_site_occupancy
  Si  Si0  1  0.70677000  0.17633200  0.44901900  1
  Si  Si1  1  0.50000000  0.42033750  0.04001800  1
  Si  Si2  1  0.79323000  0.32366800  0.94901900  1
  Si  Si3  1  0.20677000  0.32366800  0.94901900  1
  Si  Si4  1  0.50000000  0.36025300  0.25000000  1
  Si  Si5  1  0.29323000  0.17633200  0.05098100  1
  Si  Si6  1  0.79323000  0.32366800  0.55098100  1
  Si  Si7  1  0.00000000  0.13974700  0.75000000  1
  Si  Si8  1  0.29597300  0.26220700  0.75000000  1
  Si  Si9  1  0.29323000  0.17633200  0.44901900  1
  Si  Si10  1  0.20402700  0.23779300  0.25000000  1
  Si  Si11  1  0.20677000  0.32366800  0.55098100  1
  Si  Si12  1  0.79597300  0.23779300  0.25000000  1
  Si  Si13  1  0.00000000  0.07966250  0.54001800  1
  Si  Si14  1  0.00000000  0.07966250  0.95998200  1
  Si  Si15  1  0.50000000  0.42033750  0.45998200  1
  Si  Si16  1  0.70677000  0.17633200  0.05098100  1
  Si  Si17  1  0.70402700  0.26220700  0.75000000  1
  Si  Si18  1  0.20677000  0.67633200  0.44901900  1
  Si  Si19  1  0.00000000  0.92033750  0.04001800  1
  Si  Si20  1  0.29323000  0.82366800  0.94901900  1
  Si  Si21  1  0.70677000  0.82366800  0.94901900  1
  Si  Si22  1  0.00000000  0.86025300  0.25000000  1
  Si  Si23  1  0.79323000  0.67633200  0.05098100  1
  Si  Si24  1  0.29323000  0.82366800  0.55098100  1
  Si  Si25  1  0.50000000  0.63974700  0.75000000  1
  Si  Si26  1  0.79597300  0.76220700  0.75000000  1
  Si  Si27  1  0.79323000  0.67633200  0.44901900  1
  Si  Si28  1  0.70402700  0.73779300  0.25000000  1
  Si  Si29  1  0.70677000  0.82366800  0.55098100  1
  Si  Si30  1  0.29597300  0.73779300  0.25000000  1
  Si  Si31  1  0.50000000  0.57966250  0.54001800  1
  Si  Si32  1  0.50000000  0.57966250  0.95998200  1
  Si  Si33  1  0.00000000  0.92033750  0.45998200  1
  Si  Si34  1  0.20677000  0.67633200  0.05098100  1
  Si  Si35  1  0.20402700  0.76220700  0.75000000  1
  O  O36  1  0.00000000  0.34425300  0.54050600  1
  O  O37  1  0.50000000  0.15574700  0.04050600  1
  O  O38  1  0.25000000  0.25000000  0.00000000  1
  O  O39  1  0.75892150  0.18596050  0.33891500  1
  O  O40  1  0.82673800  0.19152500  0.75000000  1
  O  O41  1  0.17884050  0.11504050  0.00159500  1
  O  O42  1  0.50000000  0.41092050  0.15580900  1
  O  O43  1  0.75892150  0.18596050  0.16108500  1
  O  O44  1  0.50000000  0.41092050  0.34419100  1
  O  O45  1  0.82115950  0.11504050  0.49840500  1
  O  O46  1  0.00000000  0.00000000  0.50000000  1
  O  O47  1  0.17326200  0.19152500  0.75000000  1
  O  O48  1  0.67884050  0.38495950  0.50159500  1
  O  O49  1  0.32115950  0.38495950  0.50159500  1
  O  O50  1  0.24107850  0.18596050  0.16108500  1
  O  O51  1  0.00000000  0.08907950  0.65580900  1
  O  O52  1  0.82115950  0.11504050  0.00159500  1
  O  O53  1  0.50000000  0.23479200  0.75000000  1
  O  O54  1  0.00000000  0.08907950  0.84419100  1
  O  O55  1  0.00000000  0.26520800  0.25000000  1
  O  O56  1  0.25892150  0.31403950  0.83891500  1
  O  O57  1  0.00000000  0.34425300  0.95949400  1
  O  O58  1  0.75000000  0.25000000  0.50000000  1
  O  O59  1  0.24107850  0.18596050  0.33891500  1
  O  O60  1  0.32115950  0.38495950  0.99840500  1
  O  O61  1  0.25892150  0.31403950  0.66108500  1
  O  O62  1  0.67884050  0.38495950  0.99840500  1
  O  O63  1  0.50000000  0.15574700  0.45949400  1
  O  O64  1  0.00000000  0.00000000  0.00000000  1
  O  O65  1  0.67326200  0.30847500  0.25000000  1
  O  O66  1  0.74107850  0.31403950  0.83891500  1
  O  O67  1  0.74107850  0.31403950  0.66108500  1
  O  O68  1  0.32673800  0.30847500  0.25000000  1
  O  O69  1  0.25000000  0.25000000  0.50000000  1
  O  O70  1  0.17884050  0.11504050  0.49840500  1
  O  O71  1  0.75000000  0.25000000  0.00000000  1
  O  O72  1  0.50000000  0.84425300  0.54050600  1
  O  O73  1  0.00000000  0.65574700  0.04050600  1
  O  O74  1  0.75000000  0.75000000  0.00000000  1
  O  O75  1  0.25892150  0.68596050  0.33891500  1
  O  O76  1  0.32673800  0.69152500  0.75000000  1
  O  O77  1  0.67884050  0.61504050  0.00159500  1
  O  O78  1  0.00000000  0.91092050  0.15580900  1
  O  O79  1  0.25892150  0.68596050  0.16108500  1
  O  O80  1  0.00000000  0.91092050  0.34419100  1
  O  O81  1  0.32115950  0.61504050  0.49840500  1
  O  O82  1  0.50000000  0.50000000  0.50000000  1
  O  O83  1  0.67326200  0.69152500  0.75000000  1
  O  O84  1  0.17884050  0.88495950  0.50159500  1
  O  O85  1  0.82115950  0.88495950  0.50159500  1
  O  O86  1  0.74107850  0.68596050  0.16108500  1
  O  O87  1  0.50000000  0.58907950  0.65580900  1
  O  O88  1  0.32115950  0.61504050  0.00159500  1
  O  O89  1  0.00000000  0.73479200  0.75000000  1
  O  O90  1  0.50000000  0.58907950  0.84419100  1
  O  O91  1  0.50000000  0.76520800  0.25000000  1
  O  O92  1  0.75892150  0.81403950  0.83891500  1
  O  O93  1  0.50000000  0.84425300  0.95949400  1
  O  O94  1  0.25000000  0.75000000  0.50000000  1
  O  O95  1  0.74107850  0.68596050  0.33891500  1
  O  O96  1  0.82115950  0.88495950  0.99840500  1
  O  O97  1  0.75892150  0.81403950  0.66108500  1
  O  O98  1  0.17884050  0.88495950  0.99840500  1
  O  O99  1  0.00000000  0.65574700  0.45949400  1
  O  O100  1  0.50000000  0.50000000  0.00000000  1
  O  O101  1  0.17326200  0.80847500  0.25000000  1
  O  O102  1  0.24107850  0.81403950  0.83891500  1
  O  O103  1  0.24107850  0.81403950  0.66108500  1
  O  O104  1  0.82673800  0.80847500  0.25000000  1
  O  O105  1  0.75000000  0.75000000  0.50000000  1
  O  O106  1  0.67884050  0.61504050  0.49840500  1
  O  O107  1  0.25000000  0.75000000  0.00000000  1
