# generated using pymatgen
data_BaCaSiO4
_symmetry_space_group_name_H-M   'P 1'
_cell_length_a   11.38265800
_cell_length_b   11.38265800
_cell_length_c   7.30520900
_cell_angle_alpha   90.00000000
_cell_angle_beta   90.00000000
_cell_angle_gamma   120.00000000
_symmetry_Int_Tables_number   1
_chemical_formula_structural   BaCaSiO4
_chemical_formula_sum   'Ba8 Ca8 Si8 O32'
_cell_volume   819.69191644
_cell_formula_units_Z   8
loop_
 _symmetry_equiv_pos_site_id
 _symmetry_equiv_pos_as_xyz
  1  'x, y, z'
loop_
 _atom_site_type_symbol
 _atom_site_label
 _atom_site_symmetry_multiplicity
 _atom_site_fract_x
 _atom_site_fract_y
 _atom_site_fract_z
 _atom_site_occupancy
  Ba  Ba0  1  0.83302100  0.16697900  0.45481000  1
  Ba  Ba1  1  0.16697900  0.83302100  0.95481000  1
  Ba  Ba2  1  0.16697900  0.33395800  0.95481000  1
  Ba  Ba3  1  0.33395800  0.16697900  0.45481000  1
  Ba  Ba4  1  0.83302100  0.66604200  0.45481000  1
  Ba  Ba5  1  0.33333333  0.66666667  0.64288000  1
  Ba  Ba6  1  0.66604200  0.83302100  0.95481000  1
  Ba  Ba7  1  0.66666667  0.33333333  0.14288000  1
  Ca  Ca8  1  0.94164400  0.47082200  0.77771000  1
  Ca  Ca9  1  0.05835600  0.52917800  0.27771000  1
  Ca  Ca10  1  0.47082200  0.52917800  0.27771000  1
  Ca  Ca11  1  0.00000000  0.00000000  0.75160400  1
  Ca  Ca12  1  0.00000000  0.00000000  0.25160400  1
  Ca  Ca13  1  0.52917800  0.05835600  0.77771000  1
  Ca  Ca14  1  0.52917800  0.47082200  0.77771000  1
  Ca  Ca15  1  0.47082200  0.94164400  0.27771000  1
  Si  Si16  1  0.17130150  0.82869850  0.50542100  1
  Si  Si17  1  0.82869850  0.65739700  0.00542100  1
  Si  Si18  1  0.66666667  0.33333333  0.57021100  1
  Si  Si19  1  0.17130150  0.34260300  0.50542100  1
  Si  Si20  1  0.82869850  0.17130150  0.00542100  1
  Si  Si21  1  0.34260300  0.17130150  0.00542100  1
  Si  Si22  1  0.65739700  0.82869850  0.50542100  1
  Si  Si23  1  0.33333333  0.66666667  0.07021100  1
  O  O24  1  0.18699650  0.81300350  0.28789700  1
  O  O25  1  0.62600700  0.81300350  0.28789700  1
  O  O26  1  0.81300350  0.62600700  0.78789700  1
  O  O27  1  0.17588900  0.58794450  0.98821500  1
  O  O28  1  0.41205550  0.82411100  0.98821500  1
  O  O29  1  0.82531400  0.91265700  0.53943000  1
  O  O30  1  0.08734300  0.17468600  0.53943000  1
  O  O31  1  0.59045000  0.67606200  0.59935200  1
  O  O32  1  0.91438800  0.32393800  0.09935200  1
  O  O33  1  0.08734300  0.91265700  0.53943000  1
  O  O34  1  0.33333333  0.66666667  0.29275200  1
  O  O35  1  0.40955000  0.08561200  0.09935200  1
  O  O36  1  0.66666667  0.33333333  0.79275200  1
  O  O37  1  0.91265700  0.08734300  0.03943000  1
  O  O38  1  0.08561200  0.40955000  0.59935200  1
  O  O39  1  0.81300350  0.18699650  0.78789700  1
  O  O40  1  0.59045000  0.91438800  0.59935200  1
  O  O41  1  0.58794450  0.17588900  0.48821500  1
  O  O42  1  0.08561200  0.67606200  0.59935200  1
  O  O43  1  0.32393800  0.40955000  0.59935200  1
  O  O44  1  0.91438800  0.59045000  0.09935200  1
  O  O45  1  0.18699650  0.37399300  0.28789700  1
  O  O46  1  0.17468600  0.08734300  0.03943000  1
  O  O47  1  0.58794450  0.41205550  0.48821500  1
  O  O48  1  0.40955000  0.32393800  0.09935200  1
  O  O49  1  0.67606200  0.59045000  0.09935200  1
  O  O50  1  0.41205550  0.58794450  0.98821500  1
  O  O51  1  0.91265700  0.82531400  0.03943000  1
  O  O52  1  0.37399300  0.18699650  0.78789700  1
  O  O53  1  0.67606200  0.08561200  0.09935200  1
  O  O54  1  0.82411100  0.41205550  0.48821500  1
  O  O55  1  0.32393800  0.91438800  0.59935200  1
