# generated using pymatgen
data_NaPH4O5
_symmetry_space_group_name_H-M   'P 1'
_cell_length_a   7.55652800
_cell_length_b   7.64628800
_cell_length_c   7.87713700
_cell_angle_alpha   90.00000000
_cell_angle_beta   90.00000000
_cell_angle_gamma   90.00000000
_symmetry_Int_Tables_number   1
_chemical_formula_structural   NaPH4O5
_chemical_formula_sum   'Na4 P4 H16 O20'
_cell_volume   455.13616583
_cell_formula_units_Z   4
loop_
 _symmetry_equiv_pos_site_id
 _symmetry_equiv_pos_as_xyz
  1  'x, y, z'
loop_
 _atom_site_type_symbol
 _atom_site_label
 _atom_site_symmetry_multiplicity
 _atom_site_fract_x
 _atom_site_fract_y
 _atom_site_fract_z
 _atom_site_occupancy
  Na  Na0  1  0.98348000  0.50407500  0.48551100  1
  Na  Na1  1  0.48348000  0.99592500  0.98551100  1
  Na  Na2  1  0.98348000  0.00407500  0.01448900  1
  Na  Na3  1  0.48348000  0.49592500  0.51448900  1
  P  P4  1  0.74546900  0.38001000  0.87867100  1
  P  P5  1  0.24546900  0.11999000  0.37867100  1
  P  P6  1  0.74546900  0.88001000  0.62132900  1
  P  P7  1  0.24546900  0.61999000  0.12132900  1
  H  H8  1  0.21151600  0.18977100  0.72834200  1
  H  H9  1  0.71151600  0.81022900  0.27165800  1
  H  H10  1  0.34124300  0.78437400  0.33917300  1
  H  H11  1  0.34124300  0.28437400  0.16082700  1
  H  H12  1  0.22798300  0.27661700  0.90505300  1
  H  H13  1  0.71151600  0.31022900  0.22834200  1
  H  H14  1  0.72798300  0.22338300  0.40505300  1
  H  H15  1  0.46381300  0.94821800  0.60339100  1
  H  H16  1  0.72798300  0.72338300  0.09494700  1
  H  H17  1  0.96381300  0.55178200  0.10339100  1
  H  H18  1  0.21151600  0.68977100  0.77165800  1
  H  H19  1  0.96381300  0.05178200  0.39660900  1
  H  H20  1  0.84124300  0.71562600  0.83917300  1
  H  H21  1  0.22798300  0.77661700  0.59494700  1
  H  H22  1  0.84124300  0.21562600  0.66082700  1
  H  H23  1  0.46381300  0.44821800  0.89660900  1
  O  O24  1  0.23542300  0.77296100  0.00040300  1
  O  O25  1  0.05554600  0.57069700  0.19708600  1
  O  O26  1  0.21238800  0.16177100  0.85094200  1
  O  O27  1  0.85642300  0.83770700  0.78728800  1
  O  O28  1  0.73542300  0.22703900  0.99959700  1
  O  O29  1  0.82701600  0.04802700  0.54649400  1
  O  O30  1  0.71238800  0.33822900  0.35094200  1
  O  O31  1  0.05554600  0.07069700  0.30291400  1
  O  O32  1  0.71238800  0.83822900  0.14905800  1
  O  O33  1  0.23542300  0.27296100  0.49959700  1
  O  O34  1  0.32701600  0.95197300  0.45350600  1
  O  O35  1  0.73542300  0.72703900  0.50040300  1
  O  O36  1  0.82701600  0.54802700  0.95350600  1
  O  O37  1  0.85642300  0.33770700  0.71271200  1
  O  O38  1  0.55554600  0.92930300  0.69708600  1
  O  O39  1  0.35642300  0.16229300  0.21271200  1
  O  O40  1  0.55554600  0.42930300  0.80291400  1
  O  O41  1  0.21238800  0.66177100  0.64905800  1
  O  O42  1  0.35642300  0.66229300  0.28728800  1
  O  O43  1  0.32701600  0.45197300  0.04649400  1
