# generated using pymatgen
data_Al3Pb5F19
_symmetry_space_group_name_H-M   'P 1'
_cell_length_a   14.48842400
_cell_length_b   14.48842400
_cell_length_c   7.30904000
_cell_angle_alpha   90.00000000
_cell_angle_beta   90.00000000
_cell_angle_gamma   90.00000000
_symmetry_Int_Tables_number   1
_chemical_formula_structural   Al3Pb5F19
_chemical_formula_sum   'Al12 Pb20 F76'
_cell_volume   1534.27296547
_cell_formula_units_Z   4
loop_
 _symmetry_equiv_pos_site_id
 _symmetry_equiv_pos_as_xyz
  1  'x, y, z'
loop_
 _atom_site_type_symbol
 _atom_site_label
 _atom_site_symmetry_multiplicity
 _atom_site_fract_x
 _atom_site_fract_y
 _atom_site_fract_z
 _atom_site_occupancy
  Al  Al0  1  0.00000000  0.00000000  0.24711900  1
  Al  Al1  1  0.00000000  0.00000000  0.75288100  1
  Al  Al2  1  0.32476200  0.15816000  0.00000000  1
  Al  Al3  1  0.67523800  0.84184000  0.00000000  1
  Al  Al4  1  0.65816000  0.17523800  0.50000000  1
  Al  Al5  1  0.34184000  0.82476200  0.50000000  1
  Al  Al6  1  0.50000000  0.50000000  0.74711900  1
  Al  Al7  1  0.50000000  0.50000000  0.25288100  1
  Al  Al8  1  0.82476200  0.65816000  0.50000000  1
  Al  Al9  1  0.17523800  0.34184000  0.50000000  1
  Al  Al10  1  0.15816000  0.67523800  0.00000000  1
  Al  Al11  1  0.84184000  0.32476200  0.00000000  1
  Pb  Pb12  1  0.41665650  0.25856950  0.50000000  1
  Pb  Pb13  1  0.58334350  0.74143050  0.50000000  1
  Pb  Pb14  1  0.55820400  0.28071000  0.00000000  1
  Pb  Pb15  1  0.44179600  0.71929000  0.00000000  1
  Pb  Pb16  1  0.75856950  0.08334350  0.00000000  1
  Pb  Pb17  1  0.21929000  0.05820400  0.50000000  1
  Pb  Pb18  1  0.24143050  0.91665650  0.00000000  1
  Pb  Pb19  1  0.50000000  0.00000000  0.75000000  1
  Pb  Pb20  1  0.78071000  0.94179600  0.50000000  1
  Pb  Pb21  1  0.50000000  0.00000000  0.25000000  1
  Pb  Pb22  1  0.91665650  0.75856950  0.00000000  1
  Pb  Pb23  1  0.08334350  0.24143050  0.00000000  1
  Pb  Pb24  1  0.05820400  0.78071000  0.50000000  1
  Pb  Pb25  1  0.94179600  0.21929000  0.50000000  1
  Pb  Pb26  1  0.25856950  0.58334350  0.50000000  1
  Pb  Pb27  1  0.71929000  0.55820400  0.00000000  1
  Pb  Pb28  1  0.74143050  0.41665650  0.50000000  1
  Pb  Pb29  1  0.00000000  0.50000000  0.25000000  1
  Pb  Pb30  1  0.28071000  0.44179600  0.00000000  1
  Pb  Pb31  1  0.00000000  0.50000000  0.75000000  1
  F  F32  1  0.25022100  0.10699400  0.17285300  1
  F  F33  1  0.38893050  0.04740750  0.00000000  1
  F  F34  1  0.73562000  0.25722400  0.00000000  1
  F  F35  1  0.54740750  0.11106950  0.50000000  1
  F  F36  1  0.74977900  0.89300600  0.82714700  1
  F  F37  1  0.54909100  0.61557500  0.75361200  1
  F  F38  1  0.39300600  0.75022100  0.32714700  1
  F  F39  1  0.26438000  0.74277600  0.00000000  1
  F  F40  1  0.45090900  0.38442500  0.24638800  1
  F  F41  1  0.11557500  0.95090900  0.74638800  1
  F  F42  1  0.62144600  0.92027600  0.50000000  1
  F  F43  1  0.59297700  0.79997300  0.82709900  1
  F  F44  1  0.37855400  0.07972400  0.50000000  1
  F  F45  1  0.59297700  0.79997300  0.17290100  1
  F  F46  1  0.88442500  0.04909100  0.25361200  1
  F  F47  1  0.60699400  0.24977900  0.32714700  1
  F  F48  1  0.42027600  0.87855400  0.00000000  1
  F  F49  1  0.70002700  0.09297700  0.32709900  1
  F  F50  1  0.57972400  0.12144600  0.00000000  1
  F  F51  1  0.29997300  0.90702300  0.67290100  1
  F  F52  1  0.39300600  0.75022100  0.67285300  1
  F  F53  1  0.54909100  0.61557500  0.24638800  1
  F  F54  1  0.24277600  0.23562000  0.50000000  1
  F  F55  1  0.40702300  0.20002700  0.82709900  1
  F  F56  1  0.25022100  0.10699400  0.82714700  1
  F  F57  1  0.75722400  0.76438000  0.50000000  1
  F  F58  1  0.00000000  0.00000000  0.00000000  1
  F  F59  1  0.61106950  0.95259250  0.00000000  1
  F  F60  1  0.40702300  0.20002700  0.17290100  1
  F  F61  1  0.74977900  0.89300600  0.17285300  1
  F  F62  1  0.45090900  0.38442500  0.75361200  1
  F  F63  1  0.70002700  0.09297700  0.67290100  1
  F  F64  1  0.45259250  0.88893050  0.50000000  1
  F  F65  1  0.88442500  0.04909100  0.74638800  1
  F  F66  1  0.60699400  0.24977900  0.67285300  1
  F  F67  1  0.29997300  0.90702300  0.32709900  1
  F  F68  1  0.00000000  0.00000000  0.50000000  1
  F  F69  1  0.11557500  0.95090900  0.25361200  1
  F  F70  1  0.75022100  0.60699400  0.67285300  1
  F  F71  1  0.88893050  0.54740750  0.50000000  1
  F  F72  1  0.23562000  0.75722400  0.50000000  1
  F  F73  1  0.04740750  0.61106950  0.00000000  1
  F  F74  1  0.24977900  0.39300600  0.32714700  1
  F  F75  1  0.04909100  0.11557500  0.25361200  1
  F  F76  1  0.89300600  0.25022100  0.82714700  1
  F  F77  1  0.76438000  0.24277600  0.50000000  1
  F  F78  1  0.95090900  0.88442500  0.74638800  1
  F  F79  1  0.61557500  0.45090900  0.24638800  1
  F  F80  1  0.12144600  0.42027600  0.00000000  1
  F  F81  1  0.09297700  0.29997300  0.32709900  1
  F  F82  1  0.87855400  0.57972400  0.00000000  1
  F  F83  1  0.09297700  0.29997300  0.67290100  1
  F  F84  1  0.38442500  0.54909100  0.75361200  1
  F  F85  1  0.10699400  0.74977900  0.82714700  1
  F  F86  1  0.92027600  0.37855400  0.50000000  1
  F  F87  1  0.20002700  0.59297700  0.82709900  1
  F  F88  1  0.07972400  0.62144600  0.50000000  1
  F  F89  1  0.79997300  0.40702300  0.17290100  1
  F  F90  1  0.89300600  0.25022100  0.17285300  1
  F  F91  1  0.04909100  0.11557500  0.74638800  1
  F  F92  1  0.74277600  0.73562000  0.00000000  1
  F  F93  1  0.90702300  0.70002700  0.32709900  1
  F  F94  1  0.75022100  0.60699400  0.32714700  1
  F  F95  1  0.25722400  0.26438000  0.00000000  1
  F  F96  1  0.50000000  0.50000000  0.50000000  1
  F  F97  1  0.11106950  0.45259250  0.50000000  1
  F  F98  1  0.90702300  0.70002700  0.67290100  1
  F  F99  1  0.24977900  0.39300600  0.67285300  1
  F  F100  1  0.95090900  0.88442500  0.25361200  1
  F  F101  1  0.20002700  0.59297700  0.17290100  1
  F  F102  1  0.95259250  0.38893050  0.00000000  1
  F  F103  1  0.38442500  0.54909100  0.24638800  1
  F  F104  1  0.10699400  0.74977900  0.17285300  1
  F  F105  1  0.79997300  0.40702300  0.82709900  1
  F  F106  1  0.50000000  0.50000000  0.00000000  1
  F  F107  1  0.61557500  0.45090900  0.75361200  1
