# generated using pymatgen
data_K2Si3SnO9
_symmetry_space_group_name_H-M   'P 1'
_cell_length_a   10.32830942
_cell_length_b   10.32830942
_cell_length_c   15.01023487
_cell_angle_alpha   90.00000000
_cell_angle_beta   90.00000000
_cell_angle_gamma   120.00000000
_symmetry_Int_Tables_number   1
_chemical_formula_structural   K2Si3SnO9
_chemical_formula_sum   'K12 Si18 Sn6 O54'
_cell_volume   1386.68111196
_cell_formula_units_Z   6
loop_
 _symmetry_equiv_pos_site_id
 _symmetry_equiv_pos_as_xyz
  1  'x, y, z'
loop_
 _atom_site_type_symbol
 _atom_site_label
 _atom_site_symmetry_multiplicity
 _atom_site_fract_x
 _atom_site_fract_y
 _atom_site_fract_z
 _atom_site_occupancy
  K  K0  1  0.22377267  0.99270933  0.00288833  1
  K  K1  1  0.33333333  0.66666667  0.16832967  1
  K  K2  1  0.00729067  0.23106333  0.00288833  1
  K  K3  1  0.76893667  0.77622733  0.00288833  1
  K  K4  1  0.89043933  0.32604267  0.33622167  1
  K  K5  1  0.00000000  0.00000000  0.50166300  1
  K  K6  1  0.67395733  0.56439667  0.33622167  1
  K  K7  1  0.43560333  0.10956067  0.33622167  1
  K  K8  1  0.55710600  0.65937600  0.66955500  1
  K  K9  1  0.66666667  0.33333333  0.83499633  1
  K  K10  1  0.34062400  0.89773000  0.66955500  1
  K  K11  1  0.10227000  0.44289400  0.66955500  1
  Si  Si12  1  0.65266500  0.87831900  0.32947600  1
  Si  Si13  1  0.12168100  0.77434600  0.32947600  1
  Si  Si14  1  0.94099600  0.67610000  0.16359300  1
  Si  Si15  1  0.73510400  0.05900400  0.16359300  1
  Si  Si16  1  0.22565400  0.34733500  0.32947600  1
  Si  Si17  1  0.32390000  0.26489600  0.16359300  1
  Si  Si18  1  0.31933167  0.21165233  0.66280933  1
  Si  Si19  1  0.78834767  0.10767933  0.66280933  1
  Si  Si20  1  0.60766267  0.00943333  0.49692633  1
  Si  Si21  1  0.40177067  0.39233733  0.49692633  1
  Si  Si22  1  0.89232067  0.68066833  0.66280933  1
  Si  Si23  1  0.99056667  0.59822933  0.49692633  1
  Si  Si24  1  0.98599833  0.54498567  0.99614267  1
  Si  Si25  1  0.45501433  0.44101267  0.99614267  1
  Si  Si26  1  0.27432933  0.34276667  0.83025967  1
  Si  Si27  1  0.06843733  0.72567067  0.83025967  1
  Si  Si28  1  0.55898733  0.01400167  0.99614267  1
  Si  Si29  1  0.65723333  0.93156267  0.83025967  1
  Sn  Sn30  1  0.33333333  0.66666667  0.92106067  1
  Sn  Sn31  1  0.33333333  0.66666667  0.44017867  1
  Sn  Sn32  1  0.00000000  0.00000000  0.25439400  1
  Sn  Sn33  1  0.00000000  0.00000000  0.77351200  1
  Sn  Sn34  1  0.66666667  0.33333333  0.58772733  1
  Sn  Sn35  1  0.66666667  0.33333333  0.10684533  1
  O  O36  1  0.15450033  0.62308267  0.52288067  1
  O  O37  1  0.28482533  0.80160267  0.35865767  1
  O  O38  1  0.52339133  0.75992967  0.84157867  1
  O  O39  1  0.40587700  0.85315900  0.00420000  1
  O  O40  1  0.08734467  0.70851233  0.22588733  1
  O  O41  1  0.19839733  0.48322267  0.35865767  1
  O  O42  1  0.37691733  0.53141767  0.52288067  1
  O  O43  1  0.24007033  0.76346167  0.84157867  1
  O  O44  1  0.23653833  0.47660867  0.84157867  1
  O  O45  1  0.46858233  0.84549967  0.52288067  1
  O  O46  1  0.31897000  0.30898200  0.05788100  1
  O  O47  1  0.44728200  0.59412300  0.00420000  1
  O  O48  1  0.51677733  0.71517467  0.35865767  1
  O  O49  1  0.69101800  0.00998800  0.05788100  1
  O  O50  1  0.14684100  0.55271800  0.00420000  1
  O  O51  1  0.62116767  0.91265533  0.22588733  1
  O  O52  1  0.29148767  0.37883233  0.22588733  1
  O  O53  1  0.99001200  0.68103000  0.05788100  1
  O  O54  1  0.82116700  0.95641600  0.85621400  1
  O  O55  1  0.95149200  0.13493600  0.69199100  1
  O  O56  1  0.19005800  0.09326300  0.17491200  1
  O  O57  1  0.07254367  0.18649233  0.33753333  1
  O  O58  1  0.75401133  0.04184567  0.55922067  1
  O  O59  1  0.86506400  0.81655600  0.69199100  1
  O  O60  1  0.04358400  0.86475100  0.85621400  1
  O  O61  1  0.90673700  0.09679500  0.17491200  1
  O  O62  1  0.90320500  0.80994200  0.17491200  1
  O  O63  1  0.13524900  0.17883300  0.85621400  1
  O  O64  1  0.98563667  0.64231533  0.39121433  1
  O  O65  1  0.11394867  0.92745633  0.33753333  1
  O  O66  1  0.18344400  0.04850800  0.69199100  1
  O  O67  1  0.35768467  0.34332133  0.39121433  1
  O  O68  1  0.81350767  0.88605133  0.33753333  1
  O  O69  1  0.28783433  0.24598867  0.55922067  1
  O  O70  1  0.95815433  0.71216567  0.55922067  1
  O  O71  1  0.65667867  0.01436333  0.39121433  1
  O  O72  1  0.48783367  0.28974933  0.18954733  1
  O  O73  1  0.61815867  0.46826933  0.02532433  1
  O  O74  1  0.85672467  0.42659633  0.50824533  1
  O  O75  1  0.73921033  0.51982567  0.67086667  1
  O  O76  1  0.42067800  0.37517900  0.89255400  1
  O  O77  1  0.53173067  0.14988933  0.02532433  1
  O  O78  1  0.71025067  0.19808433  0.18954733  1
  O  O79  1  0.57340367  0.43012833  0.50824533  1
  O  O80  1  0.56987167  0.14327533  0.50824533  1
  O  O81  1  0.80191567  0.51216633  0.18954733  1
  O  O82  1  0.65230333  0.97564867  0.72454767  1
  O  O83  1  0.78061533  0.26078967  0.67086667  1
  O  O84  1  0.85011067  0.38184133  0.02532433  1
  O  O85  1  0.02435133  0.67665467  0.72454767  1
  O  O86  1  0.48017433  0.21938467  0.67086667  1
  O  O87  1  0.95450100  0.57932200  0.89255400  1
  O  O88  1  0.62482100  0.04549900  0.89255400  1
  O  O89  1  0.32334533  0.34769667  0.72454767  1
