# generated using pymatgen
data_Tb3CuSnS7
_symmetry_space_group_name_H-M   'P 1'
_cell_length_a   9.81897995
_cell_length_b   9.81897995
_cell_length_c   6.21324300
_cell_angle_alpha   90.00000000
_cell_angle_beta   90.00000000
_cell_angle_gamma   120.00000000
_symmetry_Int_Tables_number   1
_chemical_formula_structural   Tb3CuSnS7
_chemical_formula_sum   'Tb6 Cu2 Sn2 S14'
_cell_volume   518.77819908
_cell_formula_units_Z   2
loop_
 _symmetry_equiv_pos_site_id
 _symmetry_equiv_pos_as_xyz
  1  'x, y, z'
loop_
 _atom_site_type_symbol
 _atom_site_label
 _atom_site_symmetry_multiplicity
 _atom_site_fract_x
 _atom_site_fract_y
 _atom_site_fract_z
 _atom_site_occupancy
  Tb  Tb0  1  0.14908300  0.78991700  0.77272400  1
  Tb  Tb1  1  0.78991700  0.64083400  0.27272400  1
  Tb  Tb2  1  0.64083400  0.85091700  0.77272400  1
  Tb  Tb3  1  0.85091700  0.21008300  0.27272400  1
  Tb  Tb4  1  0.35916600  0.14908300  0.27272400  1
  Tb  Tb5  1  0.21008300  0.35916600  0.77272400  1
  Cu  Cu6  1  0.00000000  0.00000000  0.17375900  1
  Cu  Cu7  1  0.00000000  0.00000000  0.67375900  1
  Sn  Sn8  1  0.33333333  0.66666667  0.33849900  1
  Sn  Sn9  1  0.66666667  0.33333333  0.83849900  1
  S  S10  1  0.08252200  0.51917100  0.51948100  1
  S  S11  1  0.43664900  0.91747800  0.51948100  1
  S  S12  1  0.48082900  0.56335100  0.51948100  1
  S  S13  1  0.56335100  0.08252200  0.01948100  1
  S  S14  1  0.26122900  0.11337400  0.69984800  1
  S  S15  1  0.91747800  0.48082900  0.01948100  1
  S  S16  1  0.11337400  0.85214500  0.19984800  1
  S  S17  1  0.33333333  0.66666667  0.95278600  1
  S  S18  1  0.85214500  0.73877100  0.69984800  1
  S  S19  1  0.51917100  0.43664900  0.01948100  1
  S  S20  1  0.66666667  0.33333333  0.45278600  1
  S  S21  1  0.14785500  0.26122900  0.19984800  1
  S  S22  1  0.73877100  0.88662600  0.19984800  1
  S  S23  1  0.88662600  0.14785500  0.69984800  1
