# generated using pymatgen
data_BrN(OF2)2
_symmetry_space_group_name_H-M   'P 1'
_cell_length_a   5.90705700
_cell_length_b   5.92798200
_cell_length_c   14.22465300
_cell_angle_alpha   90.00000000
_cell_angle_beta   90.00000000
_cell_angle_gamma   90.00000000
_symmetry_Int_Tables_number   1
_chemical_formula_structural   BrN(OF2)2
_chemical_formula_sum   'Br4 N4 O8 F16'
_cell_volume   498.10364379
_cell_formula_units_Z   4
loop_
 _symmetry_equiv_pos_site_id
 _symmetry_equiv_pos_as_xyz
  1  'x, y, z'
loop_
 _atom_site_type_symbol
 _atom_site_label
 _atom_site_symmetry_multiplicity
 _atom_site_fract_x
 _atom_site_fract_y
 _atom_site_fract_z
 _atom_site_occupancy
  Br  Br0  1  0.25000000  0.16786900  0.85361700  1
  Br  Br1  1  0.75000000  0.33213100  0.35361700  1
  Br  Br2  1  0.25000000  0.66786900  0.64638300  1
  Br  Br3  1  0.75000000  0.83213100  0.14638300  1
  N  N4  1  0.25000000  0.94002200  0.34949600  1
  N  N5  1  0.25000000  0.44002200  0.15050400  1
  N  N6  1  0.75000000  0.55997800  0.84949600  1
  N  N7  1  0.75000000  0.05997800  0.65050400  1
  O  O8  1  0.25000000  0.95314500  0.92200600  1
  O  O9  1  0.75000000  0.22671000  0.61536100  1
  O  O10  1  0.25000000  0.77329000  0.38463900  1
  O  O11  1  0.75000000  0.54685500  0.42200600  1
  O  O12  1  0.75000000  0.72671000  0.88463900  1
  O  O13  1  0.25000000  0.27329000  0.11536100  1
  O  O14  1  0.25000000  0.45314500  0.57799400  1
  O  O15  1  0.75000000  0.04685500  0.07799400  1
  F  F16  1  0.01734000  0.04052400  0.76928200  1
  F  F17  1  0.47688200  0.33189800  0.92350000  1
  F  F18  1  0.97688200  0.66810200  0.07650000  1
  F  F19  1  0.02311800  0.83189800  0.57650000  1
  F  F20  1  0.97688200  0.16810200  0.42350000  1
  F  F21  1  0.48266000  0.04052400  0.76928200  1
  F  F22  1  0.51734000  0.95947600  0.23071800  1
  F  F23  1  0.01734000  0.54052400  0.73071800  1
  F  F24  1  0.47688200  0.83189800  0.57650000  1
  F  F25  1  0.48266000  0.54052400  0.73071800  1
  F  F26  1  0.51734000  0.45947600  0.26928200  1
  F  F27  1  0.52311800  0.66810200  0.07650000  1
  F  F28  1  0.52311800  0.16810200  0.42350000  1
  F  F29  1  0.02311800  0.33189800  0.92350000  1
  F  F30  1  0.98266000  0.95947600  0.23071800  1
  F  F31  1  0.98266000  0.45947600  0.26928200  1
