# generated using pymatgen
data_SiO2
_symmetry_space_group_name_H-M   'P 1'
_cell_length_a   5.15137400
_cell_length_b   14.04005400
_cell_length_c   25.84398500
_cell_angle_alpha   90.00000000
_cell_angle_beta   90.00000000
_cell_angle_gamma   90.00000000
_symmetry_Int_Tables_number   1
_chemical_formula_structural   SiO2
_chemical_formula_sum   'Si32 O64'
_cell_volume   1869.18092382
_cell_formula_units_Z   32
loop_
 _symmetry_equiv_pos_site_id
 _symmetry_equiv_pos_as_xyz
  1  'x, y, z'
loop_
 _atom_site_type_symbol
 _atom_site_label
 _atom_site_symmetry_multiplicity
 _atom_site_fract_x
 _atom_site_fract_y
 _atom_site_fract_z
 _atom_site_occupancy
  Si  Si0  1  0.23574000  0.50000000  0.29624900  1
  Si  Si1  1  0.75630200  0.80407000  0.85801300  1
  Si  Si2  1  0.20976800  0.20997600  0.69319400  1
  Si  Si3  1  0.19561400  0.11087500  0.03682200  1
  Si  Si4  1  0.29905800  0.80392100  0.14652000  1
  Si  Si5  1  0.24673800  0.50000000  0.77728000  1
  Si  Si6  1  0.20976800  0.79002400  0.69319400  1
  Si  Si7  1  0.30815000  0.38911400  0.46867100  1
  Si  Si8  1  0.70094200  0.30392100  0.64652000  1
  Si  Si9  1  0.26653300  0.00000000  0.72774800  1
  Si  Si10  1  0.29905800  0.19607900  0.14652000  1
  Si  Si11  1  0.80438600  0.38912500  0.53682200  1
  Si  Si12  1  0.24369800  0.30407000  0.35801300  1
  Si  Si13  1  0.26177400  0.70924100  0.81047600  1
  Si  Si14  1  0.80438600  0.61087500  0.53682200  1
  Si  Si15  1  0.74485100  0.50000000  0.70871900  1
  Si  Si16  1  0.79023200  0.70997600  0.19319400  1
  Si  Si17  1  0.76426000  0.00000000  0.79624900  1
  Si  Si18  1  0.73346700  0.50000000  0.22774800  1
  Si  Si19  1  0.79023200  0.29002400  0.19319400  1
  Si  Si20  1  0.70094200  0.69607900  0.64652000  1
  Si  Si21  1  0.30815000  0.61088600  0.46867100  1
  Si  Si22  1  0.19561400  0.88912500  0.03682200  1
  Si  Si23  1  0.73822600  0.79075900  0.31047600  1
  Si  Si24  1  0.25514900  0.00000000  0.20871900  1
  Si  Si25  1  0.24369800  0.69593000  0.35801300  1
  Si  Si26  1  0.73822600  0.20924100  0.31047600  1
  Si  Si27  1  0.69185000  0.11088600  0.96867100  1
  Si  Si28  1  0.75326200  0.00000000  0.27728000  1
  Si  Si29  1  0.75630200  0.19593000  0.85801300  1
  Si  Si30  1  0.26177400  0.29075900  0.81047600  1
  Si  Si31  1  0.69185000  0.88911400  0.96867100  1
  O  O32  1  0.56664200  0.00000000  0.74731600  1
  O  O33  1  0.76442600  0.68206600  0.58553600  1
  O  O34  1  0.04188300  0.23531600  0.84337600  1
  O  O35  1  0.06539800  0.00000000  0.77677700  1
  O  O36  1  0.19916800  0.59539400  0.81175200  1
  O  O37  1  0.70642400  0.09376100  0.83061700  1
  O  O38  1  0.57852700  0.75138400  0.15236000  1
  O  O39  1  0.19916800  0.40460600  0.81175200  1
  O  O40  1  0.43335800  0.50000000  0.24731600  1
  O  O41  1  0.31199500  0.09274300  0.17385900  1
  O  O42  1  0.74303800  0.81811100  0.92030800  1
  O  O43  1  0.76442600  0.31793400  0.58553600  1
  O  O44  1  0.26932800  0.25202500  0.75089700  1
  O  O45  1  0.31199500  0.90725700  0.17385900  1
  O  O46  1  0.07943900  0.26040000  0.17464300  1
  O  O47  1  0.73067200  0.75202500  0.25089700  1
  O  O48  1  0.29573600  0.50000000  0.44924700  1
  O  O49  1  0.70642400  0.90623900  0.83061700  1
  O  O50  1  0.40668900  0.86479600  0.99199200  1
  O  O51  1  0.22852800  0.00000000  0.05549300  1
  O  O52  1  0.77984000  0.59431500  0.19277600  1
  O  O53  1  0.68800500  0.59274300  0.67385900  1
  O  O54  1  0.23557400  0.18206600  0.08553600  1
  O  O55  1  0.40668900  0.13520400  0.99199200  1
  O  O56  1  0.77984000  0.40568500  0.19277600  1
  O  O57  1  0.26932800  0.74797500  0.75089700  1
  O  O58  1  0.70426400  0.00000000  0.94924700  1
  O  O59  1  0.04188300  0.76468400  0.84337600  1
  O  O60  1  0.25696200  0.31811100  0.42030800  1
  O  O61  1  0.54731800  0.50000000  0.75773500  1
  O  O62  1  0.29357600  0.40623900  0.33061700  1
  O  O63  1  0.09334500  0.62853600  0.51372400  1
  O  O64  1  0.93460200  0.50000000  0.27677700  1
  O  O65  1  0.09334500  0.37146400  0.51372400  1
  O  O66  1  0.77147200  0.50000000  0.55549300  1
  O  O67  1  0.68800500  0.40725700  0.67385900  1
  O  O68  1  0.04579000  0.50000000  0.72825700  1
  O  O69  1  0.74303800  0.18188900  0.92030800  1
  O  O70  1  0.95811700  0.73531600  0.34337600  1
  O  O71  1  0.45943300  0.22794700  0.33810500  1
  O  O72  1  0.07943900  0.73960000  0.17464300  1
  O  O73  1  0.22016000  0.90568500  0.69277600  1
  O  O74  1  0.95421000  0.00000000  0.22825700  1
  O  O75  1  0.42147300  0.25138400  0.65236000  1
  O  O76  1  0.59331100  0.36479600  0.49199200  1
  O  O77  1  0.29357600  0.59376100  0.33061700  1
  O  O78  1  0.22016000  0.09431500  0.69277600  1
  O  O79  1  0.92056100  0.76040000  0.67464300  1
  O  O80  1  0.73067200  0.24797500  0.25089700  1
  O  O81  1  0.54056700  0.72794700  0.83810500  1
  O  O82  1  0.25696200  0.68188900  0.42030800  1
  O  O83  1  0.90665500  0.12853600  0.01372400  1
  O  O84  1  0.45943300  0.77205300  0.33810500  1
  O  O85  1  0.80083200  0.90460600  0.31175200  1
  O  O86  1  0.57852700  0.24861600  0.15236000  1
  O  O87  1  0.54056700  0.27205300  0.83810500  1
  O  O88  1  0.45268200  0.00000000  0.25773500  1
  O  O89  1  0.23557400  0.81793400  0.08553600  1
  O  O90  1  0.80083200  0.09539400  0.31175200  1
  O  O91  1  0.95811700  0.26468400  0.34337600  1
  O  O92  1  0.92056100  0.23960000  0.67464300  1
  O  O93  1  0.59331100  0.63520400  0.49199200  1
  O  O94  1  0.42147300  0.74861600  0.65236000  1
  O  O95  1  0.90665500  0.87146400  0.01372400  1
