# generated using pymatgen
data_Ag5IO6
_symmetry_space_group_name_H-M   'P 1'
_cell_length_a   6.01979785
_cell_length_b   6.01979785
_cell_length_c   32.83315541
_cell_angle_alpha   90.00000000
_cell_angle_beta   90.00000000
_cell_angle_gamma   120.00000000
_symmetry_Int_Tables_number   1
_chemical_formula_structural   Ag5IO6
_chemical_formula_sum   'Ag30 I6 O36'
_cell_volume   1030.40289281
_cell_formula_units_Z   6
loop_
 _symmetry_equiv_pos_site_id
 _symmetry_equiv_pos_as_xyz
  1  'x, y, z'
loop_
 _atom_site_type_symbol
 _atom_site_label
 _atom_site_symmetry_multiplicity
 _atom_site_fract_x
 _atom_site_fract_y
 _atom_site_fract_z
 _atom_site_occupancy
  Ag  Ag0  1  0.00000000  0.29526500  0.25000000  1
  Ag  Ag1  1  0.29526500  0.00000000  0.25000000  1
  Ag  Ag2  1  0.70473500  0.70473500  0.25000000  1
  Ag  Ag3  1  0.00000000  0.00000000  0.14989200  1
  Ag  Ag4  1  0.33333333  0.66666667  0.31655867  1
  Ag  Ag5  1  0.66666667  0.03806833  0.08333333  1
  Ag  Ag6  1  0.33333333  0.66666667  0.01677467  1
  Ag  Ag7  1  0.37140167  0.33333333  0.08333333  1
  Ag  Ag8  1  0.66666667  0.33333333  0.18344133  1
  Ag  Ag9  1  0.96193167  0.62859833  0.08333333  1
  Ag  Ag10  1  0.66666667  0.62859833  0.58333333  1
  Ag  Ag11  1  0.96193167  0.33333333  0.58333333  1
  Ag  Ag12  1  0.37140167  0.03806833  0.58333333  1
  Ag  Ag13  1  0.66666667  0.33333333  0.48322533  1
  Ag  Ag14  1  0.00000000  0.00000000  0.64989200  1
  Ag  Ag15  1  0.33333333  0.37140167  0.41666667  1
  Ag  Ag16  1  0.00000000  0.00000000  0.35010800  1
  Ag  Ag17  1  0.03806833  0.66666667  0.41666667  1
  Ag  Ag18  1  0.33333333  0.66666667  0.51677467  1
  Ag  Ag19  1  0.62859833  0.96193167  0.41666667  1
  Ag  Ag20  1  0.33333333  0.96193167  0.91666667  1
  Ag  Ag21  1  0.62859833  0.66666667  0.91666667  1
  Ag  Ag22  1  0.03806833  0.37140167  0.91666667  1
  Ag  Ag23  1  0.33333333  0.66666667  0.81655867  1
  Ag  Ag24  1  0.66666667  0.33333333  0.98322533  1
  Ag  Ag25  1  0.00000000  0.70473500  0.75000000  1
  Ag  Ag26  1  0.66666667  0.33333333  0.68344133  1
  Ag  Ag27  1  0.70473500  0.00000000  0.75000000  1
  Ag  Ag28  1  0.00000000  0.00000000  0.85010800  1
  Ag  Ag29  1  0.29526500  0.29526500  0.75000000  1
  I  I30  1  0.33333333  0.66666667  0.16666667  1
  I  I31  1  0.00000000  0.00000000  0.00000000  1
  I  I32  1  1.00000000  0.00000000  0.50000000  1
  I  I33  1  0.66666667  0.33333333  0.33333333  1
  I  I34  1  0.66666667  0.33333333  0.83333333  1
  I  I35  1  0.33333333  0.66666667  0.66666667  1
  O  O36  1  0.71678100  0.09707200  0.29965400  1
  O  O37  1  0.94988567  0.23626133  0.03367933  1
  O  O38  1  0.09707200  0.71678100  0.20034600  1
  O  O39  1  0.28637567  0.05011433  0.03367933  1
  O  O40  1  0.04695767  0.43040533  0.13298733  1
  O  O41  1  0.56959467  0.61655233  0.13298733  1
  O  O42  1  0.38344767  0.95304233  0.13298733  1
  O  O43  1  0.76373867  0.71362433  0.03367933  1
  O  O44  1  0.61970900  0.90292800  0.20034600  1
  O  O45  1  0.38029100  0.28321900  0.29965400  1
  O  O46  1  0.28321900  0.38029100  0.20034600  1
  O  O47  1  0.90292800  0.61970900  0.29965400  1
  O  O48  1  0.38344767  0.43040533  0.63298733  1
  O  O49  1  0.61655233  0.56959467  0.36701267  1
  O  O50  1  0.76373867  0.05011433  0.53367933  1
  O  O51  1  0.95304233  0.38344767  0.36701267  1
  O  O52  1  0.71362433  0.76373867  0.46632067  1
  O  O53  1  0.23626133  0.94988567  0.46632067  1
  O  O54  1  0.05011433  0.28637567  0.46632067  1
  O  O55  1  0.43040533  0.04695767  0.36701267  1
  O  O56  1  0.28637567  0.23626133  0.53367933  1
  O  O57  1  0.04695767  0.61655233  0.63298733  1
  O  O58  1  0.94988567  0.71362433  0.53367933  1
  O  O59  1  0.56959467  0.95304233  0.63298733  1
  O  O60  1  0.05011433  0.76373867  0.96632067  1
  O  O61  1  0.28321900  0.90292800  0.70034600  1
  O  O62  1  0.43040533  0.38344767  0.86701267  1
  O  O63  1  0.61970900  0.71678100  0.70034600  1
  O  O64  1  0.38029100  0.09707200  0.79965400  1
  O  O65  1  0.90292800  0.28321900  0.79965400  1
  O  O66  1  0.71678100  0.61970900  0.79965400  1
  O  O67  1  0.09707200  0.38029100  0.70034600  1
  O  O68  1  0.95304233  0.56959467  0.86701267  1
  O  O69  1  0.71362433  0.94988567  0.96632067  1
  O  O70  1  0.61655233  0.04695767  0.86701267  1
  O  O71  1  0.23626133  0.28637567  0.96632067  1
