# generated using pymatgen
data_Ba6CdAg2(SnS4)4
_symmetry_space_group_name_H-M   'P 1'
_cell_length_a   14.96770600
_cell_length_b   14.96770600
_cell_length_c   14.92451800
_cell_angle_alpha   90.00000000
_cell_angle_beta   90.00000000
_cell_angle_gamma   90.00000000
_symmetry_Int_Tables_number   1
_chemical_formula_structural   Ba6CdAg2(SnS4)4
_chemical_formula_sum   'Ba24 Cd4 Ag8 Sn16 S64'
_cell_volume   3343.57294329
_cell_formula_units_Z   4
loop_
 _symmetry_equiv_pos_site_id
 _symmetry_equiv_pos_as_xyz
  1  'x, y, z'
loop_
 _atom_site_type_symbol
 _atom_site_label
 _atom_site_symmetry_multiplicity
 _atom_site_fract_x
 _atom_site_fract_y
 _atom_site_fract_z
 _atom_site_occupancy
  Ba  Ba0  1  0.50000000  0.00000000  0.60750600  1
  Ba  Ba1  1  0.75000000  0.51794600  0.62500000  1
  Ba  Ba2  1  0.48205400  0.75000000  0.37500000  1
  Ba  Ba3  1  0.75000000  0.23093100  0.62500000  1
  Ba  Ba4  1  0.51794600  0.25000000  0.37500000  1
  Ba  Ba5  1  0.50000000  0.00000000  0.89249400  1
  Ba  Ba6  1  0.26906900  0.25000000  0.87500000  1
  Ba  Ba7  1  0.25000000  0.48205400  0.62500000  1
  Ba  Ba8  1  0.00000000  0.00000000  0.64249400  1
  Ba  Ba9  1  0.23093100  0.25000000  0.37500000  1
  Ba  Ba10  1  0.00000000  0.00000000  0.35750600  1
  Ba  Ba11  1  0.75000000  0.26906900  0.12500000  1
  Ba  Ba12  1  0.00000000  0.50000000  0.10750600  1
  Ba  Ba13  1  0.25000000  0.01794600  0.12500000  1
  Ba  Ba14  1  0.98205400  0.25000000  0.87500000  1
  Ba  Ba15  1  0.25000000  0.73093100  0.12500000  1
  Ba  Ba16  1  0.01794600  0.75000000  0.87500000  1
  Ba  Ba17  1  0.00000000  0.50000000  0.39249400  1
  Ba  Ba18  1  0.76906900  0.75000000  0.37500000  1
  Ba  Ba19  1  0.75000000  0.98205400  0.12500000  1
  Ba  Ba20  1  0.50000000  0.50000000  0.14249400  1
  Ba  Ba21  1  0.73093100  0.75000000  0.87500000  1
  Ba  Ba22  1  0.50000000  0.50000000  0.85750600  1
  Ba  Ba23  1  0.25000000  0.76906900  0.62500000  1
  Cd  Cd24  1  0.50000000  0.50000000  0.50000000  1
  Cd  Cd25  1  0.50000000  0.00000000  0.25000000  1
  Cd  Cd26  1  0.00000000  0.00000000  0.00000000  1
  Cd  Cd27  1  0.00000000  0.50000000  0.75000000  1
  Ag  Ag28  1  0.75000000  0.87505100  0.62500000  1
  Ag  Ag29  1  0.87505100  0.25000000  0.37500000  1
  Ag  Ag30  1  0.75000000  0.62494900  0.12500000  1
  Ag  Ag31  1  0.62494900  0.25000000  0.87500000  1
  Ag  Ag32  1  0.25000000  0.37505100  0.12500000  1
  Ag  Ag33  1  0.37505100  0.75000000  0.87500000  1
  Ag  Ag34  1  0.25000000  0.12494900  0.62500000  1
  Ag  Ag35  1  0.12494900  0.75000000  0.37500000  1
  Sn  Sn36  1  0.02358950  0.22995450  0.14719550  1
  Sn  Sn37  1  0.27004550  0.97641050  0.39719550  1
  Sn  Sn38  1  0.77004550  0.02358950  0.85280450  1
  Sn  Sn39  1  0.72995450  0.47641050  0.35280450  1
  Sn  Sn40  1  0.97641050  0.72995450  0.60280450  1
  Sn  Sn41  1  0.02358950  0.27004550  0.60280450  1
  Sn  Sn42  1  0.72995450  0.02358950  0.39719550  1
  Sn  Sn43  1  0.47641050  0.27004550  0.64719550  1
  Sn  Sn44  1  0.52358950  0.72995450  0.64719550  1
  Sn  Sn45  1  0.77004550  0.47641050  0.89719550  1
  Sn  Sn46  1  0.27004550  0.52358950  0.35280450  1
  Sn  Sn47  1  0.22995450  0.97641050  0.85280450  1
  Sn  Sn48  1  0.47641050  0.22995450  0.10280450  1
  Sn  Sn49  1  0.52358950  0.77004550  0.10280450  1
  Sn  Sn50  1  0.22995450  0.52358950  0.89719550  1
  Sn  Sn51  1  0.97641050  0.77004550  0.14719550  1
  S  S52  1  0.11379200  0.13517900  0.23821700  1
  S  S53  1  0.89147400  0.81613600  0.71070200  1
  S  S54  1  0.36051200  0.08318600  0.30898700  1
  S  S55  1  0.66628150  0.93297450  0.76738850  1
  S  S56  1  0.86482100  0.38620800  0.98821700  1
  S  S57  1  0.36051200  0.41681400  0.44101300  1
  S  S58  1  0.68386400  0.39147400  0.78929800  1
  S  S59  1  0.58318600  0.36051200  0.55898700  1
  S  S60  1  0.10852600  0.31613600  0.03929800  1
  S  S61  1  0.58318600  0.13948800  0.19101300  1
  S  S62  1  0.91681400  0.36051200  0.69101300  1
  S  S63  1  0.13948800  0.41681400  0.80898700  1
  S  S64  1  0.81613600  0.39147400  0.46070200  1
  S  S65  1  0.63517900  0.38620800  0.26178300  1
  S  S66  1  0.86482100  0.11379200  0.76178300  1
  S  S67  1  0.63517900  0.11379200  0.48821700  1
  S  S68  1  0.63948800  0.58318600  0.44101300  1
  S  S69  1  0.60852600  0.68386400  0.21070200  1
  S  S70  1  0.11379200  0.36482100  0.51178300  1
  S  S71  1  0.38620800  0.13517900  0.01178300  1
  S  S72  1  0.93297450  0.16628150  0.51738850  1
  S  S73  1  0.93297450  0.33371850  0.23261150  1
  S  S74  1  0.81613600  0.10852600  0.28929800  1
  S  S75  1  0.83371850  0.93297450  0.48261150  1
  S  S76  1  0.83371850  0.56702550  0.26738850  1
  S  S77  1  0.16628150  0.06702550  0.48261150  1
  S  S78  1  0.56702550  0.16628150  0.73261150  1
  S  S79  1  0.39147400  0.18386400  0.53929800  1
  S  S80  1  0.41681400  0.63948800  0.55898700  1
  S  S81  1  0.06702550  0.83371850  0.51738850  1
  S  S82  1  0.38620800  0.36482100  0.73821700  1
  S  S83  1  0.68386400  0.10852600  0.96070200  1
  S  S84  1  0.61379200  0.63517900  0.73821700  1
  S  S85  1  0.39147400  0.31613600  0.21070200  1
  S  S86  1  0.86051200  0.58318600  0.80898700  1
  S  S87  1  0.16628150  0.43297450  0.26738850  1
  S  S88  1  0.36482100  0.88620800  0.48821700  1
  S  S89  1  0.86051200  0.91681400  0.94101300  1
  S  S90  1  0.18386400  0.89147400  0.28929800  1
  S  S91  1  0.08318600  0.86051200  0.05898700  1
  S  S92  1  0.60852600  0.81613600  0.53929800  1
  S  S93  1  0.08318600  0.63948800  0.69101300  1
  S  S94  1  0.41681400  0.86051200  0.19101300  1
  S  S95  1  0.63948800  0.91681400  0.30898700  1
  S  S96  1  0.31613600  0.89147400  0.96070200  1
  S  S97  1  0.13517900  0.88620800  0.76178300  1
  S  S98  1  0.36482100  0.61379200  0.26178300  1
  S  S99  1  0.13517900  0.61379200  0.98821700  1
  S  S100  1  0.13948800  0.08318600  0.94101300  1
  S  S101  1  0.10852600  0.18386400  0.71070200  1
  S  S102  1  0.61379200  0.86482100  0.01178300  1
  S  S103  1  0.88620800  0.63517900  0.51178300  1
  S  S104  1  0.43297450  0.66628150  0.01738850  1
  S  S105  1  0.43297450  0.83371850  0.73261150  1
  S  S106  1  0.31613600  0.60852600  0.78929800  1
  S  S107  1  0.33371850  0.43297450  0.98261150  1
  S  S108  1  0.33371850  0.06702550  0.76738850  1
  S  S109  1  0.66628150  0.56702550  0.98261150  1
  S  S110  1  0.06702550  0.66628150  0.23261150  1
  S  S111  1  0.89147400  0.68386400  0.03929800  1
  S  S112  1  0.91681400  0.13948800  0.05898700  1
  S  S113  1  0.56702550  0.33371850  0.01738850  1
  S  S114  1  0.88620800  0.86482100  0.23821700  1
  S  S115  1  0.18386400  0.60852600  0.46070200  1
