# generated using pymatgen
data_Sr5(GeN3)2
_symmetry_space_group_name_H-M   'P 1'
_cell_length_a   10.49160600
_cell_length_b   6.58320200
_cell_length_c   13.67404212
_cell_angle_alpha   90.00000000
_cell_angle_beta   100.14198886
_cell_angle_gamma   90.00000000
_symmetry_Int_Tables_number   1
_chemical_formula_structural   Sr5(GeN3)2
_chemical_formula_sum   'Sr20 Ge8 N24'
_cell_volume   929.68618594
_cell_formula_units_Z   4
loop_
 _symmetry_equiv_pos_site_id
 _symmetry_equiv_pos_as_xyz
  1  'x, y, z'
loop_
 _atom_site_type_symbol
 _atom_site_label
 _atom_site_symmetry_multiplicity
 _atom_site_fract_x
 _atom_site_fract_y
 _atom_site_fract_z
 _atom_site_occupancy
  Sr  Sr0  1  0.84514950  0.91253650  0.78473700  1
  Sr  Sr1  1  0.56021900  0.23643800  0.99742500  1
  Sr  Sr2  1  0.84514950  0.08746350  0.28473700  1
  Sr  Sr3  1  0.50000000  0.88041100  0.75000000  1
  Sr  Sr4  1  0.56021900  0.76356200  0.49742500  1
  Sr  Sr5  1  0.50000000  0.11958900  0.25000000  1
  Sr  Sr6  1  0.43978100  0.76356200  0.00257500  1
  Sr  Sr7  1  0.43978100  0.23643800  0.50257500  1
  Sr  Sr8  1  0.15485050  0.91253650  0.71526300  1
  Sr  Sr9  1  0.15485050  0.08746350  0.21526300  1
  Sr  Sr10  1  0.34514950  0.41253650  0.78473700  1
  Sr  Sr11  1  0.06021900  0.73643800  0.99742500  1
  Sr  Sr12  1  0.34514950  0.58746350  0.28473700  1
  Sr  Sr13  1  0.00000000  0.38041100  0.75000000  1
  Sr  Sr14  1  0.06021900  0.26356200  0.49742500  1
  Sr  Sr15  1  0.00000000  0.61958900  0.25000000  1
  Sr  Sr16  1  0.93978100  0.26356200  0.00257500  1
  Sr  Sr17  1  0.93978100  0.73643800  0.50257500  1
  Sr  Sr18  1  0.65485050  0.41253650  0.71526300  1
  Sr  Sr19  1  0.65485050  0.58746350  0.21526300  1
  Ge  Ge20  1  0.77714700  0.12591700  0.57656700  1
  Ge  Ge21  1  0.22285300  0.12591700  0.92343300  1
  Ge  Ge22  1  0.77714700  0.87408300  0.07656700  1
  Ge  Ge23  1  0.22285300  0.87408300  0.42343300  1
  Ge  Ge24  1  0.27714700  0.62591700  0.57656700  1
  Ge  Ge25  1  0.72285300  0.62591700  0.92343300  1
  Ge  Ge26  1  0.27714700  0.37408300  0.07656700  1
  Ge  Ge27  1  0.72285300  0.37408300  0.42343300  1
  N  N28  1  0.28077250  0.92909950  0.56338500  1
  N  N29  1  0.64843400  0.95730900  0.14861300  1
  N  N30  1  0.28077250  0.07090050  0.06338500  1
  N  N31  1  0.05616200  0.95983400  0.37234000  1
  N  N32  1  0.71922750  0.92909950  0.93661500  1
  N  N33  1  0.71922750  0.07090050  0.43661500  1
  N  N34  1  0.94383800  0.04016600  0.62766000  1
  N  N35  1  0.94383800  0.95983400  0.12766000  1
  N  N36  1  0.35156600  0.04269100  0.85138700  1
  N  N37  1  0.35156600  0.95730900  0.35138700  1
  N  N38  1  0.64843400  0.04269100  0.64861300  1
  N  N39  1  0.05616200  0.04016600  0.87234000  1
  N  N40  1  0.78077250  0.42909950  0.56338500  1
  N  N41  1  0.14843400  0.45730900  0.14861300  1
  N  N42  1  0.78077250  0.57090050  0.06338500  1
  N  N43  1  0.55616200  0.45983400  0.37234000  1
  N  N44  1  0.21922750  0.42909950  0.93661500  1
  N  N45  1  0.21922750  0.57090050  0.43661500  1
  N  N46  1  0.44383800  0.54016600  0.62766000  1
  N  N47  1  0.44383800  0.45983400  0.12766000  1
  N  N48  1  0.85156600  0.54269100  0.85138700  1
  N  N49  1  0.85156600  0.45730900  0.35138700  1
  N  N50  1  0.14843400  0.54269100  0.64861300  1
  N  N51  1  0.55616200  0.54016600  0.87234000  1
