# generated using pymatgen
data_SNF
_symmetry_space_group_name_H-M   'P 1'
_cell_length_a   10.52415579
_cell_length_b   10.52415579
_cell_length_c   9.88840568
_cell_angle_alpha   90.00000000
_cell_angle_beta   90.00000000
_cell_angle_gamma   120.00000000
_symmetry_Int_Tables_number   1
_chemical_formula_structural   SNF
_chemical_formula_sum   'S18 N18 F18'
_cell_volume   948.48713349
_cell_formula_units_Z   18
loop_
 _symmetry_equiv_pos_site_id
 _symmetry_equiv_pos_as_xyz
  1  'x, y, z'
loop_
 _atom_site_type_symbol
 _atom_site_label
 _atom_site_symmetry_multiplicity
 _atom_site_fract_x
 _atom_site_fract_y
 _atom_site_fract_z
 _atom_site_occupancy
  S  S0  1  0.83145733  0.96982467  0.69085567  1
  S  S1  1  0.13836733  0.16854267  0.69085567  1
  S  S2  1  0.03017533  0.86163267  0.69085567  1
  S  S3  1  0.96982467  0.13836733  0.30914433  1
  S  S4  1  0.86163267  0.83145733  0.30914433  1
  S  S5  1  0.16854267  0.03017533  0.30914433  1
  S  S6  1  0.49812400  0.30315800  0.02418900  1
  S  S7  1  0.80503400  0.50187600  0.02418900  1
  S  S8  1  0.69684200  0.19496600  0.02418900  1
  S  S9  1  0.63649133  0.47170067  0.64247767  1
  S  S10  1  0.52829933  0.16479067  0.64247767  1
  S  S11  1  0.83520933  0.36350867  0.64247767  1
  S  S12  1  0.16479067  0.63649133  0.35752233  1
  S  S13  1  0.47170067  0.83520933  0.35752233  1
  S  S14  1  0.36350867  0.52829933  0.35752233  1
  S  S15  1  0.30315800  0.80503400  0.97581100  1
  S  S16  1  0.19496600  0.49812400  0.97581100  1
  S  S17  1  0.50187600  0.69684200  0.97581100  1
  N  N18  1  0.86919167  0.84112533  0.66927833  1
  N  N19  1  0.84112533  0.97193367  0.33072167  1
  N  N20  1  0.97193367  0.13080833  0.66927833  1
  N  N21  1  0.13080833  0.15887467  0.33072167  1
  N  N22  1  0.15887467  0.02806633  0.66927833  1
  N  N23  1  0.02806633  0.86919167  0.33072167  1
  N  N24  1  0.53585833  0.17445867  0.00261167  1
  N  N25  1  0.50779200  0.30526700  0.66405500  1
  N  N26  1  0.63860033  0.46414167  0.00261167  1
  N  N27  1  0.79747500  0.49220800  0.66405500  1
  N  N28  1  0.82554133  0.36139967  0.00261167  1
  N  N29  1  0.69473300  0.20252500  0.66405500  1
  N  N30  1  0.20252500  0.50779200  0.33594500  1
  N  N31  1  0.17445867  0.63860033  0.99738833  1
  N  N32  1  0.30526700  0.79747500  0.33594500  1
  N  N33  1  0.46414167  0.82554133  0.99738833  1
  N  N34  1  0.49220800  0.69473300  0.33594500  1
  N  N35  1  0.36139967  0.53585833  0.99738833  1
  F  F36  1  0.49132200  0.85601300  0.52520000  1
  F  F37  1  0.36469100  0.50867800  0.52520000  1
  F  F38  1  0.14398700  0.63530900  0.52520000  1
  F  F39  1  0.63530900  0.49132200  0.47480000  1
  F  F40  1  0.50867800  0.14398700  0.47480000  1
  F  F41  1  0.85601300  0.36469100  0.47480000  1
  F  F42  1  0.15798867  0.18934633  0.85853333  1
  F  F43  1  0.03135767  0.84201133  0.85853333  1
  F  F44  1  0.81065367  0.96864233  0.85853333  1
  F  F45  1  0.30197567  0.82465533  0.80813333  1
  F  F46  1  0.17534467  0.47732033  0.80813333  1
  F  F47  1  0.52267967  0.69802433  0.80813333  1
  F  F48  1  0.82465533  0.52267967  0.19186667  1
  F  F49  1  0.69802433  0.17534467  0.19186667  1
  F  F50  1  0.47732033  0.30197567  0.19186667  1
  F  F51  1  0.96864233  0.15798867  0.14146667  1
  F  F52  1  0.84201133  0.81065367  0.14146667  1
  F  F53  1  0.18934633  0.03135767  0.14146667  1
