# generated using pymatgen
data_K2SnHgSe4
_symmetry_space_group_name_H-M   'P 1'
_cell_length_a   8.23769200
_cell_length_b   8.23769200
_cell_length_c   7.13850600
_cell_angle_alpha   90.00000000
_cell_angle_beta   90.00000000
_cell_angle_gamma   90.00000000
_symmetry_Int_Tables_number   1
_chemical_formula_structural   K2SnHgSe4
_chemical_formula_sum   'K4 Sn2 Hg2 Se8'
_cell_volume   484.41594394
_cell_formula_units_Z   2
loop_
 _symmetry_equiv_pos_site_id
 _symmetry_equiv_pos_as_xyz
  1  'x, y, z'
loop_
 _atom_site_type_symbol
 _atom_site_label
 _atom_site_symmetry_multiplicity
 _atom_site_fract_x
 _atom_site_fract_y
 _atom_site_fract_z
 _atom_site_occupancy
  K  K0  1  0.50000000  0.00000000  0.00000000  1
  K  K1  1  0.00000000  0.50000000  0.00000000  1
  K  K2  1  0.00000000  0.50000000  0.50000000  1
  K  K3  1  0.50000000  0.00000000  0.50000000  1
  Sn  Sn4  1  0.00000000  0.00000000  0.50000000  1
  Sn  Sn5  1  0.50000000  0.50000000  0.00000000  1
  Hg  Hg6  1  0.00000000  0.00000000  0.00000000  1
  Hg  Hg7  1  0.50000000  0.50000000  0.50000000  1
  Se  Se8  1  0.17122450  0.82877550  0.73059550  1
  Se  Se9  1  0.82877550  0.17122450  0.73059550  1
  Se  Se10  1  0.32877550  0.32877550  0.76940450  1
  Se  Se11  1  0.17122450  0.17122450  0.26940450  1
  Se  Se12  1  0.67122450  0.32877550  0.23059550  1
  Se  Se13  1  0.32877550  0.67122450  0.23059550  1
  Se  Se14  1  0.82877550  0.82877550  0.26940450  1
  Se  Se15  1  0.67122450  0.67122450  0.76940450  1
