# generated using pymatgen
data_BCl(OF2)2
_symmetry_space_group_name_H-M   'P 1'
_cell_length_a   5.53026000
_cell_length_b   8.83984400
_cell_length_c   9.76561694
_cell_angle_alpha   90.00000000
_cell_angle_beta   102.24888408
_cell_angle_gamma   90.00000000
_symmetry_Int_Tables_number   1
_chemical_formula_structural   BCl(OF2)2
_chemical_formula_sum   'B4 Cl4 O8 F16'
_cell_volume   466.54007471
_cell_formula_units_Z   4
loop_
 _symmetry_equiv_pos_site_id
 _symmetry_equiv_pos_as_xyz
  1  'x, y, z'
loop_
 _atom_site_type_symbol
 _atom_site_label
 _atom_site_symmetry_multiplicity
 _atom_site_fract_x
 _atom_site_fract_y
 _atom_site_fract_z
 _atom_site_occupancy
  B  B0  1  0.48848250  0.93085450  0.51751700  1
  B  B1  1  0.48848250  0.06914550  0.01751700  1
  B  B2  1  0.98848250  0.43085450  0.51751700  1
  B  B3  1  0.98848250  0.56914550  0.01751700  1
  Cl  Cl4  1  0.50206450  0.56950850  0.75079500  1
  Cl  Cl5  1  0.50206450  0.43049150  0.25079500  1
  Cl  Cl6  1  0.00206450  0.06950850  0.75079500  1
  Cl  Cl7  1  0.00206450  0.93049150  0.25079500  1
  O  O8  1  0.42083600  0.30389500  0.31965300  1
  O  O9  1  0.46116050  0.42208150  0.80056900  1
  O  O10  1  0.46116050  0.57791850  0.30056900  1
  O  O11  1  0.42083600  0.69610500  0.81965300  1
  O  O12  1  0.92083600  0.80389500  0.31965300  1
  O  O13  1  0.96116050  0.92208150  0.80056900  1
  O  O14  1  0.96116050  0.07791850  0.30056900  1
  O  O15  1  0.92083600  0.19610500  0.81965300  1
  F  F16  1  0.43472300  0.92780400  0.36571400  1
  F  F17  1  0.43472300  0.07219600  0.86571400  1
  F  F18  1  0.64362050  0.06085550  0.55976700  1
  F  F19  1  0.61398200  0.79948200  0.56965300  1
  F  F20  1  0.26513050  0.05318950  0.06163300  1
  F  F21  1  0.26513050  0.94681050  0.56163300  1
  F  F22  1  0.64362050  0.93914450  0.05976700  1
  F  F23  1  0.61398200  0.20051800  0.06965300  1
  F  F24  1  0.93472300  0.42780400  0.36571400  1
  F  F25  1  0.93472300  0.57219600  0.86571400  1
  F  F26  1  0.14362050  0.56085550  0.55976700  1
  F  F27  1  0.11398200  0.29948200  0.56965300  1
  F  F28  1  0.76513050  0.55318950  0.06163300  1
  F  F29  1  0.76513050  0.44681050  0.56163300  1
  F  F30  1  0.14362050  0.43914450  0.05976700  1
  F  F31  1  0.11398200  0.70051800  0.06965300  1
