# generated using pymatgen
data_CsTb2Ag3Se5
_symmetry_space_group_name_H-M   'P 1'
_cell_length_a   4.32957600
_cell_length_b   15.65969600
_cell_length_c   17.63785300
_cell_angle_alpha   90.00000000
_cell_angle_beta   90.00000000
_cell_angle_gamma   90.00000000
_symmetry_Int_Tables_number   1
_chemical_formula_structural   CsTb2Ag3Se5
_chemical_formula_sum   'Cs4 Tb8 Ag12 Se20'
_cell_volume   1195.84368135
_cell_formula_units_Z   4
loop_
 _symmetry_equiv_pos_site_id
 _symmetry_equiv_pos_as_xyz
  1  'x, y, z'
loop_
 _atom_site_type_symbol
 _atom_site_label
 _atom_site_symmetry_multiplicity
 _atom_site_fract_x
 _atom_site_fract_y
 _atom_site_fract_z
 _atom_site_occupancy
  Cs  Cs0  1  0.00000000  0.43832200  0.25000000  1
  Cs  Cs1  1  0.50000000  0.06167800  0.75000000  1
  Cs  Cs2  1  0.50000000  0.93832200  0.25000000  1
  Cs  Cs3  1  0.00000000  0.56167800  0.75000000  1
  Tb  Tb4  1  0.00000000  0.30722300  0.90492500  1
  Tb  Tb5  1  0.50000000  0.19277700  0.09507500  1
  Tb  Tb6  1  0.50000000  0.19277700  0.40492500  1
  Tb  Tb7  1  0.00000000  0.30722300  0.59507500  1
  Tb  Tb8  1  0.50000000  0.80722300  0.90492500  1
  Tb  Tb9  1  0.00000000  0.69277700  0.09507500  1
  Tb  Tb10  1  0.00000000  0.69277700  0.40492500  1
  Tb  Tb11  1  0.50000000  0.80722300  0.59507500  1
  Ag  Ag12  1  0.00000000  0.15643000  0.25000000  1
  Ag  Ag13  1  0.50000000  0.34357000  0.75000000  1
  Ag  Ag14  1  0.00000000  0.08289600  0.95828300  1
  Ag  Ag15  1  0.50000000  0.41710400  0.04171700  1
  Ag  Ag16  1  0.50000000  0.41710400  0.45828300  1
  Ag  Ag17  1  0.00000000  0.08289600  0.54171700  1
  Ag  Ag18  1  0.50000000  0.65643000  0.25000000  1
  Ag  Ag19  1  0.00000000  0.84357000  0.75000000  1
  Ag  Ag20  1  0.50000000  0.58289600  0.95828300  1
  Ag  Ag21  1  0.00000000  0.91710400  0.04171700  1
  Ag  Ag22  1  0.00000000  0.91710400  0.45828300  1
  Ag  Ag23  1  0.50000000  0.58289600  0.54171700  1
  Se  Se24  1  0.00000000  0.06930000  0.38418400  1
  Se  Se25  1  0.50000000  0.43070000  0.61581600  1
  Se  Se26  1  0.50000000  0.43070000  0.88418400  1
  Se  Se27  1  0.00000000  0.06930000  0.11581600  1
  Se  Se28  1  0.50000000  0.25256950  0.25000000  1
  Se  Se29  1  0.00000000  0.24743050  0.75000000  1
  Se  Se30  1  0.00000000  0.31839900  0.43041500  1
  Se  Se31  1  0.50000000  0.18160100  0.56958500  1
  Se  Se32  1  0.50000000  0.18160100  0.93041500  1
  Se  Se33  1  0.00000000  0.31839900  0.06958500  1
  Se  Se34  1  0.50000000  0.56930000  0.38418400  1
  Se  Se35  1  0.00000000  0.93070000  0.61581600  1
  Se  Se36  1  0.00000000  0.93070000  0.88418400  1
  Se  Se37  1  0.50000000  0.56930000  0.11581600  1
  Se  Se38  1  0.00000000  0.75256950  0.25000000  1
  Se  Se39  1  0.50000000  0.74743050  0.75000000  1
  Se  Se40  1  0.50000000  0.81839900  0.43041500  1
  Se  Se41  1  0.00000000  0.68160100  0.56958500  1
  Se  Se42  1  0.00000000  0.68160100  0.93041500  1
  Se  Se43  1  0.50000000  0.81839900  0.06958500  1
