# generated using pymatgen
data_TiAs2H4O9
_symmetry_space_group_name_H-M   'P 1'
_cell_length_a   8.99587200
_cell_length_b   5.17893400
_cell_length_c   16.97968850
_cell_angle_alpha   90.00000000
_cell_angle_beta   109.19446455
_cell_angle_gamma   90.00000000
_symmetry_Int_Tables_number   1
_chemical_formula_structural   TiAs2H4O9
_chemical_formula_sum   'Ti4 As8 H16 O36'
_cell_volume   747.09027503
_cell_formula_units_Z   4
loop_
 _symmetry_equiv_pos_site_id
 _symmetry_equiv_pos_as_xyz
  1  'x, y, z'
loop_
 _atom_site_type_symbol
 _atom_site_label
 _atom_site_symmetry_multiplicity
 _atom_site_fract_x
 _atom_site_fract_y
 _atom_site_fract_z
 _atom_site_occupancy
  Ti  Ti0  1  0.24090000  0.24325900  0.98724000  1
  Ti  Ti1  1  0.75910000  0.74325900  0.51276000  1
  Ti  Ti2  1  0.75910000  0.75674100  0.01276000  1
  Ti  Ti3  1  0.24090000  0.25674100  0.48724000  1
  As  As4  1  0.00417500  0.74128600  0.89466600  1
  As  As5  1  0.99582500  0.24128600  0.60533400  1
  As  As6  1  0.99582500  0.25871400  0.10533400  1
  As  As7  1  0.00417500  0.75871400  0.39466600  1
  As  As8  1  0.53686600  0.26157700  0.90382100  1
  As  As9  1  0.46313400  0.76157700  0.59617900  1
  As  As10  1  0.46313400  0.73842300  0.09617900  1
  As  As11  1  0.53686600  0.23842300  0.40382100  1
  H  H12  1  0.58603800  0.22688300  0.27771200  1
  H  H13  1  0.41396200  0.72688300  0.22228800  1
  H  H14  1  0.41396200  0.77311700  0.72228800  1
  H  H15  1  0.58603800  0.27311700  0.77771200  1
  H  H16  1  0.84649600  0.92298900  0.26909400  1
  H  H17  1  0.15350400  0.42298900  0.23090600  1
  H  H18  1  0.15350400  0.07701100  0.73090600  1
  H  H19  1  0.84649600  0.57701100  0.76909400  1
  H  H20  1  0.79869700  0.37744200  0.24681200  1
  H  H21  1  0.20130300  0.87744200  0.25318800  1
  H  H22  1  0.20130300  0.62255800  0.75318800  1
  H  H23  1  0.79869700  0.12255800  0.74681200  1
  H  H24  1  0.30126200  0.69055700  0.32345700  1
  H  H25  1  0.69873800  0.19055700  0.17654300  1
  H  H26  1  0.69873800  0.30944300  0.67654300  1
  H  H27  1  0.30126200  0.80944300  0.82345700  1
  O  O28  1  0.87348700  0.63382500  0.94076800  1
  O  O29  1  0.12651300  0.13382500  0.55923200  1
  O  O30  1  0.12651300  0.36617500  0.05923200  1
  O  O31  1  0.87348700  0.86617500  0.44076800  1
  O  O32  1  0.05737900  0.05675800  0.91362400  1
  O  O33  1  0.94262100  0.55675800  0.58637600  1
  O  O34  1  0.94262100  0.94324200  0.08637600  1
  O  O35  1  0.05737900  0.44324200  0.41362400  1
  O  O36  1  0.16527300  0.54504900  0.91362700  1
  O  O37  1  0.83472700  0.04504900  0.58637300  1
  O  O38  1  0.83472700  0.45495100  0.08637300  1
  O  O39  1  0.16527300  0.95495100  0.41362700  1
  O  O40  1  0.90353700  0.74549600  0.78684600  1
  O  O41  1  0.09646300  0.24549600  0.71315400  1
  O  O42  1  0.09646300  0.25450400  0.21315400  1
  O  O43  1  0.90353700  0.75450400  0.28684600  1
  O  O44  1  0.69699600  0.06719800  0.94553900  1
  O  O45  1  0.30300400  0.56719800  0.55446100  1
  O  O46  1  0.30300400  0.93280200  0.05446100  1
  O  O47  1  0.69699600  0.43280200  0.44553900  1
  O  O48  1  0.57260900  0.57219600  0.93949700  1
  O  O49  1  0.42739100  0.07219600  0.56050300  1
  O  O50  1  0.42739100  0.42780400  0.06050300  1
  O  O51  1  0.57260900  0.92780400  0.43949700  1
  O  O52  1  0.36888500  0.14000900  0.91605700  1
  O  O53  1  0.63111500  0.64000900  0.58394300  1
  O  O54  1  0.63111500  0.85999100  0.08394300  1
  O  O55  1  0.36888500  0.35999100  0.41605700  1
  O  O56  1  0.49039800  0.26113500  0.79589100  1
  O  O57  1  0.50960200  0.76113500  0.70410900  1
  O  O58  1  0.50960200  0.73886500  0.20410900  1
  O  O59  1  0.49039800  0.23886500  0.29589100  1
  O  O60  1  0.25904400  0.78725800  0.76269400  1
  O  O61  1  0.74095600  0.28725800  0.73730600  1
  O  O62  1  0.74095600  0.21274200  0.23730600  1
  O  O63  1  0.25904400  0.71274200  0.26269400  1
