# generated using pymatgen
data_MgH12S2O9
_symmetry_space_group_name_H-M   'P 1'
_cell_length_a   6.89925700
_cell_length_b   9.50011700
_cell_length_c   14.51067200
_cell_angle_alpha   90.00000000
_cell_angle_beta   90.00000000
_cell_angle_gamma   90.00000000
_symmetry_Int_Tables_number   1
_chemical_formula_structural   MgH12S2O9
_chemical_formula_sum   'Mg4 H48 S8 O36'
_cell_volume   951.08383923
_cell_formula_units_Z   4
loop_
 _symmetry_equiv_pos_site_id
 _symmetry_equiv_pos_as_xyz
  1  'x, y, z'
loop_
 _atom_site_type_symbol
 _atom_site_label
 _atom_site_symmetry_multiplicity
 _atom_site_fract_x
 _atom_site_fract_y
 _atom_site_fract_z
 _atom_site_occupancy
  Mg  Mg0  1  0.00000000  0.00000000  0.00000000  1
  Mg  Mg1  1  0.50000000  0.50000000  0.00000000  1
  Mg  Mg2  1  0.50000000  0.50000000  0.50000000  1
  Mg  Mg3  1  0.00000000  0.00000000  0.50000000  1
  H  H4  1  0.26788500  0.87734000  0.11150900  1
  H  H5  1  0.76788500  0.62266000  0.88849100  1
  H  H6  1  0.23211500  0.37734000  0.38849100  1
  H  H7  1  0.73211500  0.12266000  0.61150900  1
  H  H8  1  0.73211500  0.12266000  0.88849100  1
  H  H9  1  0.23211500  0.37734000  0.11150900  1
  H  H10  1  0.76788500  0.62266000  0.61150900  1
  H  H11  1  0.26788500  0.87734000  0.38849100  1
  H  H12  1  0.06455600  0.80575500  0.13186400  1
  H  H13  1  0.56455600  0.69424500  0.86813600  1
  H  H14  1  0.43544400  0.30575500  0.36813600  1
  H  H15  1  0.93544400  0.19424500  0.63186400  1
  H  H16  1  0.93544400  0.19424500  0.86813600  1
  H  H17  1  0.43544400  0.30575500  0.13186400  1
  H  H18  1  0.56455600  0.69424500  0.63186400  1
  H  H19  1  0.06455600  0.80575500  0.36813600  1
  H  H20  1  0.07251000  0.11718600  0.16254800  1
  H  H21  1  0.57251000  0.38281400  0.83745200  1
  H  H22  1  0.42749000  0.61718600  0.33745200  1
  H  H23  1  0.92749000  0.88281400  0.66254800  1
  H  H24  1  0.92749000  0.88281400  0.83745200  1
  H  H25  1  0.42749000  0.61718600  0.16254800  1
  H  H26  1  0.57251000  0.38281400  0.66254800  1
  H  H27  1  0.07251000  0.11718600  0.33745200  1
  H  H28  1  0.84966300  0.14943400  0.14927000  1
  H  H29  1  0.34966300  0.35056600  0.85073000  1
  H  H30  1  0.65033700  0.64943400  0.35073000  1
  H  H31  1  0.15033700  0.85056600  0.64927000  1
  H  H32  1  0.15033700  0.85056600  0.85073000  1
  H  H33  1  0.65033700  0.64943400  0.14927000  1
  H  H34  1  0.34966300  0.35056600  0.64927000  1
  H  H35  1  0.84966300  0.14943400  0.35073000  1
  H  H36  1  0.64887800  0.91512200  0.07570200  1
  H  H37  1  0.14887800  0.58487800  0.92429800  1
  H  H38  1  0.85112200  0.41512200  0.42429800  1
  H  H39  1  0.35112200  0.08487800  0.57570200  1
  H  H40  1  0.35112200  0.08487800  0.92429800  1
  H  H41  1  0.85112200  0.41512200  0.07570200  1
  H  H42  1  0.14887800  0.58487800  0.57570200  1
  H  H43  1  0.64887800  0.91512200  0.42429800  1
  H  H44  1  0.69920100  0.81296300  0.99101400  1
  H  H45  1  0.19920100  0.68703700  0.00898600  1
  H  H46  1  0.80079900  0.31296300  0.50898600  1
  H  H47  1  0.30079900  0.18703700  0.49101400  1
  H  H48  1  0.30079900  0.18703700  0.00898600  1
  H  H49  1  0.80079900  0.31296300  0.99101400  1
  H  H50  1  0.19920100  0.68703700  0.49101400  1
  H  H51  1  0.69920100  0.81296300  0.50898600  1
  S  S52  1  0.43559100  0.03743000  0.25000000  1
  S  S53  1  0.93559100  0.46257000  0.75000000  1
  S  S54  1  0.06440900  0.53743000  0.25000000  1
  S  S55  1  0.56440900  0.96257000  0.75000000  1
  S  S56  1  0.61043200  0.21025100  0.25000000  1
  S  S57  1  0.11043200  0.28974900  0.75000000  1
  S  S58  1  0.88956800  0.71025100  0.25000000  1
  S  S59  1  0.38956800  0.78974900  0.75000000  1
  O  O60  1  0.47161100  0.95397300  0.16532300  1
  O  O61  1  0.97161100  0.54602700  0.83467700  1
  O  O62  1  0.02838900  0.45397300  0.33467700  1
  O  O63  1  0.52838900  0.04602700  0.66532300  1
  O  O64  1  0.52838900  0.04602700  0.83467700  1
  O  O65  1  0.02838900  0.45397300  0.16532300  1
  O  O66  1  0.97161100  0.54602700  0.66532300  1
  O  O67  1  0.47161100  0.95397300  0.33467700  1
  O  O68  1  0.23146500  0.08998100  0.25000000  1
  O  O69  1  0.73146500  0.41001900  0.75000000  1
  O  O70  1  0.26853500  0.58998100  0.25000000  1
  O  O71  1  0.76853500  0.91001900  0.75000000  1
  O  O72  1  0.14750300  0.84221400  0.08105800  1
  O  O73  1  0.64750300  0.65778600  0.91894200  1
  O  O74  1  0.35249700  0.34221400  0.41894200  1
  O  O75  1  0.85249700  0.15778600  0.58105800  1
  O  O76  1  0.85249700  0.15778600  0.91894200  1
  O  O77  1  0.35249700  0.34221400  0.08105800  1
  O  O78  1  0.64750300  0.65778600  0.58105800  1
  O  O79  1  0.14750300  0.84221400  0.41894200  1
  O  O80  1  0.96916200  0.12557800  0.11505800  1
  O  O81  1  0.46916200  0.37442200  0.88494200  1
  O  O82  1  0.53083800  0.62557800  0.38494200  1
  O  O83  1  0.03083800  0.87442200  0.61505800  1
  O  O84  1  0.03083800  0.87442200  0.88494200  1
  O  O85  1  0.53083800  0.62557800  0.11505800  1
  O  O86  1  0.46916200  0.37442200  0.61505800  1
  O  O87  1  0.96916200  0.12557800  0.38494200  1
  O  O88  1  0.74027700  0.89850700  0.02465000  1
  O  O89  1  0.24027700  0.60149300  0.97535000  1
  O  O90  1  0.75972300  0.39850700  0.47535000  1
  O  O91  1  0.25972300  0.10149300  0.52465000  1
  O  O92  1  0.25972300  0.10149300  0.97535000  1
  O  O93  1  0.75972300  0.39850700  0.02465000  1
  O  O94  1  0.24027700  0.60149300  0.52465000  1
  O  O95  1  0.74027700  0.89850700  0.47535000  1
