# generated using pymatgen
data_Ca9In(PO4)7
_symmetry_space_group_name_H-M   'P 1'
_cell_length_a   10.50973601
_cell_length_b   10.50973601
_cell_length_c   37.63283610
_cell_angle_alpha   90.00000000
_cell_angle_beta   90.00000000
_cell_angle_gamma   120.00000000
_symmetry_Int_Tables_number   1
_chemical_formula_structural   Ca9In(PO4)7
_chemical_formula_sum   'Ca54 In6 P42 O168'
_cell_volume   3599.82339566
_cell_formula_units_Z   6
loop_
 _symmetry_equiv_pos_site_id
 _symmetry_equiv_pos_as_xyz
  1  'x, y, z'
loop_
 _atom_site_type_symbol
 _atom_site_label
 _atom_site_symmetry_multiplicity
 _atom_site_fract_x
 _atom_site_fract_y
 _atom_site_fract_z
 _atom_site_occupancy
  Ca  Ca0  1  0.49134667  0.53381833  0.10188633  1
  Ca  Ca1  1  0.20056367  0.38761033  0.23535433  1
  Ca  Ca2  1  0.04247167  0.50865333  0.10188633  1
  Ca  Ca3  1  0.61238967  0.81295333  0.23535433  1
  Ca  Ca4  1  0.82468000  0.62419500  0.26855300  1
  Ca  Ca5  1  0.79951500  0.17532000  0.26855300  1
  Ca  Ca6  1  0.53859800  0.05848900  0.00822000  1
  Ca  Ca7  1  0.94151100  0.48010900  0.00822000  1
  Ca  Ca8  1  0.27484433  0.12806867  0.17488667  1
  Ca  Ca9  1  0.46618167  0.95752833  0.10188633  1
  Ca  Ca10  1  0.85322433  0.72515567  0.17488667  1
  Ca  Ca11  1  0.87193133  0.14677567  0.17488667  1
  Ca  Ca12  1  0.37580500  0.20048500  0.26855300  1
  Ca  Ca13  1  0.27905633  0.13276967  0.06868767  1
  Ca  Ca14  1  0.18704667  0.79943633  0.23535433  1
  Ca  Ca15  1  0.85371333  0.72094367  0.06868767  1
  Ca  Ca16  1  0.86723033  0.14628667  0.06868767  1
  Ca  Ca17  1  0.51989100  0.46140200  0.00822000  1
  Ca  Ca18  1  0.15801333  0.86715167  0.43521967  1
  Ca  Ca19  1  0.86723033  0.72094367  0.56868767  1
  Ca  Ca20  1  0.70913833  0.84198667  0.43521967  1
  Ca  Ca21  1  0.27905633  0.14628667  0.56868767  1
  Ca  Ca22  1  0.49134667  0.95752833  0.60188633  1
  Ca  Ca23  1  0.46618167  0.50865333  0.60188633  1
  Ca  Ca24  1  0.20526467  0.39182233  0.34155333  1
  Ca  Ca25  1  0.60817767  0.81344233  0.34155333  1
  Ca  Ca26  1  0.94151100  0.46140200  0.50822000  1
  Ca  Ca27  1  0.13284833  0.29086167  0.43521967  1
  Ca  Ca28  1  0.51989100  0.05848900  0.50822000  1
  Ca  Ca29  1  0.53859800  0.48010900  0.50822000  1
  Ca  Ca30  1  0.04247167  0.53381833  0.60188633  1
  Ca  Ca31  1  0.94572300  0.46610300  0.40202100  1
  Ca  Ca32  1  0.85371333  0.13276967  0.56868767  1
  Ca  Ca33  1  0.52038000  0.05427700  0.40202100  1
  Ca  Ca34  1  0.53389700  0.47962000  0.40202100  1
  Ca  Ca35  1  0.18655767  0.79473533  0.34155333  1
  Ca  Ca36  1  0.82468000  0.20048500  0.76855300  1
  Ca  Ca37  1  0.53389700  0.05427700  0.90202100  1
  Ca  Ca38  1  0.37580500  0.17532000  0.76855300  1
  Ca  Ca39  1  0.94572300  0.47962000  0.90202100  1
  Ca  Ca40  1  0.15801333  0.29086167  0.93521967  1
  Ca  Ca41  1  0.13284833  0.84198667  0.93521967  1
  Ca  Ca42  1  0.87193133  0.72515567  0.67488667  1
  Ca  Ca43  1  0.27484433  0.14677567  0.67488667  1
  Ca  Ca44  1  0.60817767  0.79473533  0.84155333  1
  Ca  Ca45  1  0.79951500  0.62419500  0.76855300  1
  Ca  Ca46  1  0.18655767  0.39182233  0.84155333  1
  Ca  Ca47  1  0.20526467  0.81344233  0.84155333  1
  Ca  Ca48  1  0.70913833  0.86715167  0.93521967  1
  Ca  Ca49  1  0.61238967  0.79943633  0.73535433  1
  Ca  Ca50  1  0.52038000  0.46610300  0.90202100  1
  Ca  Ca51  1  0.18704667  0.38761033  0.73535433  1
  Ca  Ca52  1  0.20056367  0.81295333  0.73535433  1
  Ca  Ca53  1  0.85322433  0.12806867  0.67488667  1
  In  In54  1  0.00000000  0.00000000  0.00052300  1
  In  In55  1  0.33333333  0.66666667  0.16718967  1
  In  In56  1  0.66666667  0.33333333  0.33385633  1
  In  In57  1  0.00000000  0.00000000  0.50052300  1
  In  In58  1  0.33333333  0.66666667  0.66718967  1
  In  In59  1  0.66666667  0.33333333  0.83385633  1
  P  P60  1  0.00000000  0.00000000  0.23106800  1
  P  P61  1  0.66666667  0.33333333  0.06440133  1
  P  P62  1  0.01231700  0.48920300  0.30246600  1
  P  P63  1  0.52656333  0.50761167  0.19903467  1
  P  P64  1  0.49238833  0.01895167  0.19903467  1
  P  P65  1  0.98104833  0.47343667  0.19903467  1
  P  P66  1  0.67898367  0.85644733  0.13579933  1
  P  P67  1  0.51079700  0.52311400  0.30246600  1
  P  P68  1  0.64771500  0.84094500  0.03236800  1
  P  P69  1  0.17746367  0.32101633  0.13579933  1
  P  P70  1  0.14355267  0.82253633  0.13579933  1
  P  P71  1  0.19323000  0.35228500  0.03236800  1
  P  P72  1  0.15905500  0.80677000  0.03236800  1
  P  P73  1  0.47688600  0.98768300  0.30246600  1
  P  P74  1  0.66666667  0.33333333  0.56440133  1
  P  P75  1  0.33333333  0.66666667  0.39773467  1
  P  P76  1  0.67898367  0.82253633  0.63579933  1
  P  P77  1  0.19323000  0.84094500  0.53236800  1
  P  P78  1  0.15905500  0.35228500  0.53236800  1
  P  P79  1  0.64771500  0.80677000  0.53236800  1
  P  P80  1  0.34565033  0.18978067  0.46913267  1
  P  P81  1  0.17746367  0.85644733  0.63579933  1
  P  P82  1  0.31438167  0.17427833  0.36570133  1
  P  P83  1  0.84413033  0.65434967  0.46913267  1
  P  P84  1  0.81021933  0.15586967  0.46913267  1
  P  P85  1  0.85989667  0.68561833  0.36570133  1
  P  P86  1  0.82572167  0.14010333  0.36570133  1
  P  P87  1  0.14355267  0.32101633  0.63579933  1
  P  P88  1  0.33333333  0.66666667  0.89773467  1
  P  P89  1  0.00000000  0.00000000  0.73106800  1
  P  P90  1  0.34565033  0.15586967  0.96913267  1
  P  P91  1  0.85989667  0.17427833  0.86570133  1
  P  P92  1  0.82572167  0.68561833  0.86570133  1
  P  P93  1  0.31438167  0.14010333  0.86570133  1
  P  P94  1  0.01231700  0.52311400  0.80246600  1
  P  P95  1  0.84413033  0.18978067  0.96913267  1
  P  P96  1  0.98104833  0.50761167  0.69903467  1
  P  P97  1  0.51079700  0.98768300  0.80246600  1
  P  P98  1  0.47688600  0.48920300  0.80246600  1
  P  P99  1  0.52656333  0.01895167  0.69903467  1
  P  P100  1  0.49238833  0.47343667  0.69903467  1
  P  P101  1  0.81021933  0.65434967  0.96913267  1
  O  O102  1  0.81674667  0.09740733  0.32653533  1
  O  O103  1  0.48341333  0.05267267  0.15986867  1
  O  O104  1  0.70528567  0.86056933  0.17613833  1
  O  O105  1  0.65667300  0.46910400  0.07720000  1
  O  O106  1  0.66851633  0.60898767  0.22071467  1
  O  O107  1  0.08550867  0.90726433  0.03868533  1
  O  O108  1  0.41884200  0.84491100  0.20535200  1
  O  O109  1  0.98500433  0.71805167  0.12263467  1
  O  O110  1  0.60713800  0.94232100  0.05404800  1
  O  O111  1  0.94732733  0.43074067  0.15986867  1
  O  O112  1  0.53089600  0.18756900  0.07720000  1
  O  O113  1  0.81243100  0.34332700  0.07720000  1
  O  O114  1  0.56925933  0.51658667  0.15986867  1
  O  O115  1  0.37195233  0.17804967  0.00947167  1
  O  O116  1  0.22034533  0.97339367  0.11723367  1
  O  O117  1  0.82195033  0.19390267  0.00947167  1
  O  O118  1  0.25458433  0.49129767  0.12747367  1
  O  O119  1  0.50870233  0.76328667  0.12747367  1
  O  O120  1  0.58791767  0.42995333  0.29414033  1
  O  O121  1  0.75304833  0.77965467  0.11723367  1
  O  O122  1  0.55367867  0.91361833  0.28390033  1
  O  O123  1  0.90259267  0.71933933  0.32653533  1
  O  O124  1  0.86422933  0.00999367  0.24386667  1
  O  O125  1  0.57004667  0.15796433  0.29414033  1
  O  O126  1  0.99000633  0.85423567  0.24386667  1
  O  O127  1  0.43587133  0.34979867  0.21350567  1
  O  O128  1  0.13943067  0.84471633  0.17613833  1
  O  O129  1  0.80609733  0.62804767  0.00947167  1
  O  O130  1  0.06638067  0.38471833  0.28930133  1
  O  O131  1  0.08638167  0.64006033  0.28390033  1
  O  O132  1  0.15508900  0.57393100  0.20535200  1
  O  O133  1  0.84203567  0.41208233  0.29414033  1
  O  O134  1  0.91392733  0.56412867  0.21350567  1
  O  O135  1  0.14576433  0.13577067  0.24386667  1
  O  O136  1  0.33518300  0.39286200  0.05404800  1
  O  O137  1  0.02660633  0.24695167  0.11723367  1
  O  O138  1  0.42606900  0.58115800  0.20535200  1
  O  O139  1  0.58059400  0.68313200  0.04683900  1
  O  O140  1  0.23671333  0.74541567  0.12747367  1
  O  O141  1  0.31686800  0.89746200  0.04683900  1
  O  O142  1  0.31833767  0.93361933  0.28930133  1
  O  O143  1  0.65020133  0.08607267  0.21350567  1
  O  O144  1  0.00000000  0.00000000  0.18966300  1
  O  O145  1  0.05767900  0.66481700  0.05404800  1
  O  O146  1  0.66666667  0.33333333  0.02299633  1
  O  O147  1  0.61528167  0.68166233  0.28930133  1
  O  O148  1  0.35993967  0.44632133  0.28390033  1
  O  O149  1  0.73304733  0.01499567  0.12263467  1
  O  O150  1  0.28066067  0.18325333  0.32653533  1
  O  O151  1  0.28194833  0.26695267  0.12263467  1
  O  O152  1  0.39101233  0.05952867  0.22071467  1
  O  O153  1  0.94047133  0.33148367  0.22071467  1
  O  O154  1  0.09273567  0.17824433  0.03868533  1
  O  O155  1  0.82175567  0.91449133  0.03868533  1
  O  O156  1  0.10253800  0.41940600  0.04683900  1
  O  O157  1  0.15528367  0.29471433  0.17613833  1
  O  O158  1  0.48341333  0.43074067  0.65986867  1
  O  O159  1  0.15008000  0.38600600  0.49320200  1
  O  O160  1  0.37195233  0.19390267  0.50947167  1
  O  O161  1  0.32333967  0.80243733  0.41053333  1
  O  O162  1  0.33518300  0.94232100  0.55404800  1
  O  O163  1  0.75217533  0.24059767  0.37201867  1
  O  O164  1  0.08550867  0.17824433  0.53868533  1
  O  O165  1  0.65167100  0.05138500  0.45596800  1
  O  O166  1  0.27380467  0.27565433  0.38738133  1
  O  O167  1  0.61399400  0.76407400  0.49320200  1
  O  O168  1  0.19756267  0.52090233  0.41053333  1
  O  O169  1  0.47909767  0.67666033  0.41053333  1
  O  O170  1  0.23592600  0.84992000  0.49320200  1
  O  O171  1  0.03861900  0.51138300  0.34280500  1
  O  O172  1  0.88701200  0.30672700  0.45056700  1
  O  O173  1  0.48861700  0.52723600  0.34280500  1
  O  O174  1  0.92125100  0.82463100  0.46080700  1
  O  O175  1  0.17536900  0.09662000  0.46080700  1
  O  O176  1  0.25458433  0.76328667  0.62747367  1
  O  O177  1  0.41971500  0.11298800  0.45056700  1
  O  O178  1  0.22034533  0.24695167  0.61723367  1
  O  O179  1  0.56925933  0.05267267  0.65986867  1
  O  O180  1  0.53089600  0.34332700  0.57720000  1
  O  O181  1  0.23671333  0.49129767  0.62747367  1
  O  O182  1  0.65667300  0.18756900  0.57720000  1
  O  O183  1  0.10253800  0.68313200  0.54683900  1
  O  O184  1  0.80609733  0.17804967  0.50947167  1
  O  O185  1  0.47276400  0.96138100  0.34280500  1
  O  O186  1  0.73304733  0.71805167  0.62263467  1
  O  O187  1  0.75304833  0.97339367  0.61723367  1
  O  O188  1  0.82175567  0.90726433  0.53868533  1
  O  O189  1  0.50870233  0.74541567  0.62747367  1
  O  O190  1  0.58059400  0.89746200  0.54683900  1
  O  O191  1  0.81243100  0.46910400  0.57720000  1
  O  O192  1  0.00184967  0.72619533  0.38738133  1
  O  O193  1  0.69327300  0.58028500  0.45056700  1
  O  O194  1  0.09273567  0.91449133  0.53868533  1
  O  O195  1  0.24726067  0.01646533  0.38017233  1
  O  O196  1  0.90338000  0.07874900  0.46080700  1
  O  O197  1  0.98353467  0.23079533  0.38017233  1
  O  O198  1  0.98500433  0.26695267  0.62263467  1
  O  O199  1  0.31686800  0.41940600  0.54683900  1
  O  O200  1  0.66666667  0.33333333  0.52299633  1
  O  O201  1  0.72434567  0.99815033  0.38738133  1
  O  O202  1  0.33333333  0.66666667  0.35632967  1
  O  O203  1  0.28194833  0.01499567  0.62263467  1
  O  O204  1  0.02660633  0.77965467  0.61723367  1
  O  O205  1  0.39971400  0.34832900  0.45596800  1
  O  O206  1  0.94732733  0.51658667  0.65986867  1
  O  O207  1  0.94861500  0.60028600  0.45596800  1
  O  O208  1  0.05767900  0.39286200  0.55404800  1
  O  O209  1  0.60713800  0.66481700  0.55404800  1
  O  O210  1  0.75940233  0.51157767  0.37201867  1
  O  O211  1  0.48842233  0.24782467  0.37201867  1
  O  O212  1  0.76920467  0.75273933  0.38017233  1
  O  O213  1  0.82195033  0.62804767  0.50947167  1
  O  O214  1  0.15008000  0.76407400  0.99320200  1
  O  O215  1  0.81674667  0.71933933  0.82653533  1
  O  O216  1  0.03861900  0.52723600  0.84280500  1
  O  O217  1  0.99000633  0.13577067  0.74386667  1
  O  O218  1  0.00184967  0.27565433  0.88738133  1
  O  O219  1  0.41884200  0.57393100  0.70535200  1
  O  O220  1  0.75217533  0.51157767  0.87201867  1
  O  O221  1  0.31833767  0.38471833  0.78930133  1
  O  O222  1  0.94047133  0.60898767  0.72071467  1
  O  O223  1  0.28066067  0.09740733  0.82653533  1
  O  O224  1  0.86422933  0.85423567  0.74386667  1
  O  O225  1  0.14576433  0.00999367  0.74386667  1
  O  O226  1  0.90259267  0.18325333  0.82653533  1
  O  O227  1  0.70528567  0.84471633  0.67613833  1
  O  O228  1  0.55367867  0.64006033  0.78390033  1
  O  O229  1  0.15528367  0.86056933  0.67613833  1
  O  O230  1  0.58791767  0.15796433  0.79414033  1
  O  O231  1  0.84203567  0.42995333  0.79414033  1
  O  O232  1  0.92125100  0.09662000  0.96080700  1
  O  O233  1  0.08638167  0.44632133  0.78390033  1
  O  O234  1  0.88701200  0.58028500  0.95056700  1
  O  O235  1  0.23592600  0.38600600  0.99320200  1
  O  O236  1  0.19756267  0.67666033  0.91053333  1
  O  O237  1  0.90338000  0.82463100  0.96080700  1
  O  O238  1  0.32333967  0.52090233  0.91053333  1
  O  O239  1  0.76920467  0.01646533  0.88017233  1
  O  O240  1  0.47276400  0.51138300  0.84280500  1
  O  O241  1  0.13943067  0.29471433  0.67613833  1
  O  O242  1  0.39971400  0.05138500  0.95596800  1
  O  O243  1  0.41971500  0.30672700  0.95056700  1
  O  O244  1  0.48842233  0.24059767  0.87201867  1
  O  O245  1  0.17536900  0.07874900  0.96080700  1
  O  O246  1  0.24726067  0.23079533  0.88017233  1
  O  O247  1  0.47909767  0.80243733  0.91053333  1
  O  O248  1  0.66851633  0.05952867  0.72071467  1
  O  O249  1  0.35993967  0.91361833  0.78390033  1
  O  O250  1  0.75940233  0.24782467  0.87201867  1
  O  O251  1  0.91392733  0.34979867  0.71350567  1
  O  O252  1  0.57004667  0.41208233  0.79414033  1
  O  O253  1  0.65020133  0.56412867  0.71350567  1
  O  O254  1  0.65167100  0.60028600  0.95596800  1
  O  O255  1  0.98353467  0.75273933  0.88017233  1
  O  O256  1  0.33333333  0.66666667  0.85632967  1
  O  O257  1  0.39101233  0.33148367  0.72071467  1
  O  O258  1  0.00000000  0.00000000  0.68966300  1
  O  O259  1  0.94861500  0.34832900  0.95596800  1
  O  O260  1  0.69327300  0.11298800  0.95056700  1
  O  O261  1  0.06638067  0.68166233  0.78930133  1
  O  O262  1  0.61399400  0.84992000  0.99320200  1
  O  O263  1  0.61528167  0.93361933  0.78930133  1
  O  O264  1  0.72434567  0.72619533  0.88738133  1
  O  O265  1  0.27380467  0.99815033  0.88738133  1
  O  O266  1  0.42606900  0.84491100  0.70535200  1
  O  O267  1  0.15508900  0.58115800  0.70535200  1
  O  O268  1  0.43587133  0.08607267  0.71350567  1
  O  O269  1  0.48861700  0.96138100  0.84280500  1
