# generated using pymatgen
data_CsLi(B3O5)2
_symmetry_space_group_name_H-M   'P 1'
_cell_length_a   10.52841200
_cell_length_b   10.52841200
_cell_length_c   9.40235400
_cell_angle_alpha   90.00000000
_cell_angle_beta   90.00000000
_cell_angle_gamma   90.00000000
_symmetry_Int_Tables_number   1
_chemical_formula_structural   CsLi(B3O5)2
_chemical_formula_sum   'Cs4 Li4 B24 O40'
_cell_volume   1042.22705179
_cell_formula_units_Z   4
loop_
 _symmetry_equiv_pos_site_id
 _symmetry_equiv_pos_as_xyz
  1  'x, y, z'
loop_
 _atom_site_type_symbol
 _atom_site_label
 _atom_site_symmetry_multiplicity
 _atom_site_fract_x
 _atom_site_fract_y
 _atom_site_fract_z
 _atom_site_occupancy
  Cs  Cs0  1  0.50000000  0.50000000  0.50000000  1
  Cs  Cs1  1  0.50000000  0.00000000  0.25000000  1
  Cs  Cs2  1  0.00000000  0.00000000  0.00000000  1
  Cs  Cs3  1  0.00000000  0.50000000  0.75000000  1
  Li  Li4  1  0.00000000  0.00000000  0.50000000  1
  Li  Li5  1  0.50000000  0.00000000  0.75000000  1
  Li  Li6  1  0.50000000  0.50000000  0.00000000  1
  Li  Li7  1  0.00000000  0.50000000  0.25000000  1
  B  B8  1  0.51954800  0.25000000  0.87500000  1
  B  B9  1  0.98045200  0.25000000  0.37500000  1
  B  B10  1  0.75000000  0.98045200  0.62500000  1
  B  B11  1  0.75000000  0.51954800  0.12500000  1
  B  B12  1  0.22934450  0.84933750  0.44007150  1
  B  B13  1  0.72934450  0.15066250  0.80992850  1
  B  B14  1  0.77065550  0.15066250  0.44007150  1
  B  B15  1  0.77065550  0.34933750  0.30992850  1
  B  B16  1  0.84933750  0.77065550  0.55992850  1
  B  B17  1  0.34933750  0.22934450  0.69007150  1
  B  B18  1  0.15066250  0.22934450  0.55992850  1
  B  B19  1  0.15066250  0.27065550  0.19007150  1
  B  B20  1  0.01954800  0.75000000  0.37500000  1
  B  B21  1  0.48045200  0.75000000  0.87500000  1
  B  B22  1  0.25000000  0.48045200  0.12500000  1
  B  B23  1  0.25000000  0.01954800  0.62500000  1
  B  B24  1  0.72934450  0.34933750  0.94007150  1
  B  B25  1  0.22934450  0.65066250  0.30992850  1
  B  B26  1  0.27065550  0.65066250  0.94007150  1
  B  B27  1  0.27065550  0.84933750  0.80992850  1
  B  B28  1  0.34933750  0.27065550  0.05992850  1
  B  B29  1  0.84933750  0.72934450  0.19007150  1
  B  B30  1  0.65066250  0.72934450  0.05992850  1
  B  B31  1  0.65066250  0.77065550  0.69007150  1
  O  O32  1  0.79659800  0.25000000  0.87500000  1
  O  O33  1  0.70340200  0.25000000  0.37500000  1
  O  O34  1  0.25000000  0.20340200  0.12500000  1
  O  O35  1  0.25000000  0.29659800  0.62500000  1
  O  O36  1  0.79982450  0.43833750  0.00918150  1
  O  O37  1  0.79982450  0.06166250  0.74081850  1
  O  O38  1  0.70017550  0.06166250  0.50918150  1
  O  O39  1  0.70017550  0.43833750  0.24081850  1
  O  O40  1  0.43833750  0.20017550  0.99081850  1
  O  O41  1  0.43833750  0.29982450  0.75918150  1
  O  O42  1  0.06166250  0.29982450  0.49081850  1
  O  O43  1  0.06166250  0.20017550  0.25918150  1
  O  O44  1  0.09966350  0.85607550  0.42653150  1
  O  O45  1  0.59966350  0.14392450  0.82346850  1
  O  O46  1  0.90033650  0.14392450  0.42653150  1
  O  O47  1  0.90033650  0.35607550  0.32346850  1
  O  O48  1  0.85607550  0.90033650  0.57346850  1
  O  O49  1  0.85607550  0.59966350  0.17653150  1
  O  O50  1  0.14392450  0.09966350  0.57346850  1
  O  O51  1  0.64392450  0.90033650  0.67653150  1
  O  O52  1  0.29659800  0.75000000  0.37500000  1
  O  O53  1  0.20340200  0.75000000  0.87500000  1
  O  O54  1  0.75000000  0.70340200  0.62500000  1
  O  O55  1  0.75000000  0.79659800  0.12500000  1
  O  O56  1  0.29982450  0.93833750  0.50918150  1
  O  O57  1  0.29982450  0.56166250  0.24081850  1
  O  O58  1  0.20017550  0.56166250  0.00918150  1
  O  O59  1  0.20017550  0.93833750  0.74081850  1
  O  O60  1  0.93833750  0.70017550  0.49081850  1
  O  O61  1  0.93833750  0.79982450  0.25918150  1
  O  O62  1  0.56166250  0.79982450  0.99081850  1
  O  O63  1  0.56166250  0.70017550  0.75918150  1
  O  O64  1  0.59966350  0.35607550  0.92653150  1
  O  O65  1  0.09966350  0.64392450  0.32346850  1
  O  O66  1  0.40033650  0.64392450  0.92653150  1
  O  O67  1  0.40033650  0.85607550  0.82346850  1
  O  O68  1  0.35607550  0.40033650  0.07346850  1
  O  O69  1  0.35607550  0.09966350  0.67653150  1
  O  O70  1  0.64392450  0.59966350  0.07346850  1
  O  O71  1  0.14392450  0.40033650  0.17653150  1
