# generated using pymatgen
data_Sr2GeO4
_symmetry_space_group_name_H-M   'P 1'
_cell_length_a   5.95225500
_cell_length_b   10.04933200
_cell_length_c   14.47679900
_cell_angle_alpha   90.00000000
_cell_angle_beta   90.00000000
_cell_angle_gamma   90.00000000
_symmetry_Int_Tables_number   1
_chemical_formula_structural   Sr2GeO4
_chemical_formula_sum   'Sr16 Ge8 O32'
_cell_volume   865.94691099
_cell_formula_units_Z   8
loop_
 _symmetry_equiv_pos_site_id
 _symmetry_equiv_pos_as_xyz
  1  'x, y, z'
loop_
 _atom_site_type_symbol
 _atom_site_label
 _atom_site_symmetry_multiplicity
 _atom_site_fract_x
 _atom_site_fract_y
 _atom_site_fract_z
 _atom_site_occupancy
  Sr  Sr0  1  0.78915900  0.42819700  0.29634200  1
  Sr  Sr1  1  0.71084100  0.42819700  0.79634200  1
  Sr  Sr2  1  0.79356400  0.70248500  0.12051500  1
  Sr  Sr3  1  0.72180000  0.06904000  0.54316300  1
  Sr  Sr4  1  0.20643600  0.20248500  0.87948500  1
  Sr  Sr5  1  0.70643600  0.70248500  0.62051500  1
  Sr  Sr6  1  0.27820000  0.56904000  0.45683700  1
  Sr  Sr7  1  0.22839200  0.29740500  0.62870600  1
  Sr  Sr8  1  0.27160800  0.29740500  0.12870600  1
  Sr  Sr9  1  0.72839200  0.79740500  0.87129400  1
  Sr  Sr10  1  0.28915900  0.92819700  0.20365800  1
  Sr  Sr11  1  0.77820000  0.06904000  0.04316300  1
  Sr  Sr12  1  0.21084100  0.92819700  0.70365800  1
  Sr  Sr13  1  0.29356400  0.20248500  0.37948500  1
  Sr  Sr14  1  0.77160800  0.79740500  0.37129400  1
  Sr  Sr15  1  0.22180000  0.56904000  0.95683700  1
  Ge  Ge16  1  0.72053400  0.08421100  0.76404200  1
  Ge  Ge17  1  0.72834500  0.41545900  0.02107200  1
  Ge  Ge18  1  0.77946600  0.08421100  0.26404200  1
  Ge  Ge19  1  0.22834500  0.91545900  0.47892800  1
  Ge  Ge20  1  0.77165500  0.41545900  0.52107200  1
  Ge  Ge21  1  0.27946600  0.58421100  0.23595800  1
  Ge  Ge22  1  0.27165500  0.91545900  0.97892800  1
  Ge  Ge23  1  0.22053400  0.58421100  0.73595800  1
  O  O24  1  0.28787700  0.06449300  0.54251700  1
  O  O25  1  0.17137800  0.95592000  0.36319000  1
  O  O26  1  0.04568300  0.80353100  0.99503900  1
  O  O27  1  0.53135400  0.13809400  0.20382900  1
  O  O28  1  0.97717000  0.84772300  0.52896600  1
  O  O29  1  0.01023500  0.70903700  0.74715100  1
  O  O30  1  0.64277800  0.93590000  0.70146600  1
  O  O31  1  0.48976500  0.70903700  0.24715100  1
  O  O32  1  0.98976500  0.20903700  0.25284900  1
  O  O33  1  0.54568300  0.30353100  0.50496100  1
  O  O34  1  0.02283000  0.34772300  0.47103400  1
  O  O35  1  0.46864600  0.63809400  0.79617100  1
  O  O36  1  0.68128700  0.05020600  0.37653100  1
  O  O37  1  0.96864600  0.13809400  0.70382900  1
  O  O38  1  0.45431700  0.80353100  0.49503900  1
  O  O39  1  0.81871300  0.05020600  0.87653100  1
  O  O40  1  0.03135400  0.63809400  0.29617100  1
  O  O41  1  0.18128700  0.55020600  0.12346900  1
  O  O42  1  0.52283000  0.84772300  0.02896600  1
  O  O43  1  0.47717000  0.34772300  0.97103400  1
  O  O44  1  0.82862200  0.45592000  0.63681000  1
  O  O45  1  0.35722200  0.43590000  0.29853400  1
  O  O46  1  0.85722200  0.93590000  0.20146600  1
  O  O47  1  0.21212300  0.06449300  0.04251700  1
  O  O48  1  0.71212300  0.56449300  0.45748300  1
  O  O49  1  0.95431700  0.30353100  0.00496100  1
  O  O50  1  0.31871300  0.55020600  0.62346900  1
  O  O51  1  0.51023500  0.20903700  0.75284900  1
  O  O52  1  0.67137800  0.45592000  0.13681000  1
  O  O53  1  0.14277800  0.43590000  0.79853400  1
  O  O54  1  0.32862200  0.95592000  0.86319000  1
  O  O55  1  0.78787700  0.56449300  0.95748300  1
