# generated using pymatgen
data_CsLi3F4
_symmetry_space_group_name_H-M   'P 1'
_cell_length_a   10.34968800
_cell_length_b   5.65265600
_cell_length_c   7.98233879
_cell_angle_alpha   90.00000000
_cell_angle_beta   111.89300022
_cell_angle_gamma   90.00000000
_symmetry_Int_Tables_number   1
_chemical_formula_structural   CsLi3F4
_chemical_formula_sum   'Cs4 Li12 F16'
_cell_volume   433.31391320
_cell_formula_units_Z   4
loop_
 _symmetry_equiv_pos_site_id
 _symmetry_equiv_pos_as_xyz
  1  'x, y, z'
loop_
 _atom_site_type_symbol
 _atom_site_label
 _atom_site_symmetry_multiplicity
 _atom_site_fract_x
 _atom_site_fract_y
 _atom_site_fract_z
 _atom_site_occupancy
  Cs  Cs0  1  0.83245400  0.50000000  0.73243800  1
  Cs  Cs1  1  0.66754600  0.00000000  0.26756200  1
  Cs  Cs2  1  0.33245400  0.00000000  0.73243800  1
  Cs  Cs3  1  0.16754600  0.50000000  0.26756200  1
  Li  Li4  1  0.50067300  0.50000000  0.30978500  1
  Li  Li5  1  0.60805100  0.00000000  0.67170200  1
  Li  Li6  1  0.99932700  0.00000000  0.69021500  1
  Li  Li7  1  0.89194900  0.50000000  0.32829800  1
  Li  Li8  1  0.79470100  0.00000000  0.96325800  1
  Li  Li9  1  0.70529900  0.50000000  0.03674200  1
  Li  Li10  1  0.00067300  0.00000000  0.30978500  1
  Li  Li11  1  0.10805100  0.50000000  0.67170200  1
  Li  Li12  1  0.49932700  0.50000000  0.69021500  1
  Li  Li13  1  0.39194900  0.00000000  0.32829800  1
  Li  Li14  1  0.29470100  0.50000000  0.96325800  1
  Li  Li15  1  0.20529900  0.00000000  0.03674200  1
  F  F16  1  0.00000000  0.25035700  0.50000000  1
  F  F17  1  0.87959350  0.74974550  0.13509100  1
  F  F18  1  0.00000000  0.74964300  0.50000000  1
  F  F19  1  0.81087500  0.00000000  0.72232000  1
  F  F20  1  0.62040650  0.24974550  0.86490900  1
  F  F21  1  0.68912500  0.50000000  0.27768000  1
  F  F22  1  0.87959350  0.25025450  0.13509100  1
  F  F23  1  0.62040650  0.75025450  0.86490900  1
  F  F24  1  0.50000000  0.75035700  0.50000000  1
  F  F25  1  0.37959350  0.24974550  0.13509100  1
  F  F26  1  0.50000000  0.24964300  0.50000000  1
  F  F27  1  0.31087500  0.50000000  0.72232000  1
  F  F28  1  0.12040650  0.74974550  0.86490900  1
  F  F29  1  0.18912500  0.00000000  0.27768000  1
  F  F30  1  0.37959350  0.75025450  0.13509100  1
  F  F31  1  0.12040650  0.25025450  0.86490900  1
