# generated using pymatgen
data_ReTeS
_symmetry_space_group_name_H-M   'P 1'
_cell_length_a   10.19342800
_cell_length_b   10.19342800
_cell_length_c   10.19342800
_cell_angle_alpha   90.00000000
_cell_angle_beta   90.00000000
_cell_angle_gamma   90.00000000
_symmetry_Int_Tables_number   1
_chemical_formula_structural   ReTeS
_chemical_formula_sum   'Re16 Te16 S16'
_cell_volume   1059.15806873
_cell_formula_units_Z   16
loop_
 _symmetry_equiv_pos_site_id
 _symmetry_equiv_pos_as_xyz
  1  'x, y, z'
loop_
 _atom_site_type_symbol
 _atom_site_label
 _atom_site_symmetry_multiplicity
 _atom_site_fract_x
 _atom_site_fract_y
 _atom_site_fract_z
 _atom_site_occupancy
  Re  Re0  1  0.15239200  0.34760800  0.65239200  1
  Re  Re1  1  0.15239200  0.15239200  0.84760800  1
  Re  Re2  1  0.34760800  0.34760800  0.84760800  1
  Re  Re3  1  0.34760800  0.15239200  0.65239200  1
  Re  Re4  1  0.15239200  0.84760800  0.15239200  1
  Re  Re5  1  0.15239200  0.65239200  0.34760800  1
  Re  Re6  1  0.34760800  0.84760800  0.34760800  1
  Re  Re7  1  0.34760800  0.65239200  0.15239200  1
  Re  Re8  1  0.65239200  0.34760800  0.15239200  1
  Re  Re9  1  0.65239200  0.15239200  0.34760800  1
  Re  Re10  1  0.84760800  0.34760800  0.34760800  1
  Re  Re11  1  0.84760800  0.15239200  0.15239200  1
  Re  Re12  1  0.65239200  0.84760800  0.65239200  1
  Re  Re13  1  0.65239200  0.65239200  0.84760800  1
  Re  Re14  1  0.84760800  0.84760800  0.84760800  1
  Re  Re15  1  0.84760800  0.65239200  0.65239200  1
  Te  Te16  1  0.12220900  0.37779100  0.37779100  1
  Te  Te17  1  0.12220900  0.12220900  0.12220900  1
  Te  Te18  1  0.37779100  0.37779100  0.12220900  1
  Te  Te19  1  0.37779100  0.12220900  0.37779100  1
  Te  Te20  1  0.12220900  0.87779100  0.87779100  1
  Te  Te21  1  0.12220900  0.62220900  0.62220900  1
  Te  Te22  1  0.37779100  0.87779100  0.62220900  1
  Te  Te23  1  0.37779100  0.62220900  0.87779100  1
  Te  Te24  1  0.62220900  0.37779100  0.87779100  1
  Te  Te25  1  0.62220900  0.12220900  0.62220900  1
  Te  Te26  1  0.87779100  0.37779100  0.62220900  1
  Te  Te27  1  0.87779100  0.12220900  0.87779100  1
  Te  Te28  1  0.62220900  0.87779100  0.37779100  1
  Te  Te29  1  0.62220900  0.62220900  0.12220900  1
  Te  Te30  1  0.87779100  0.87779100  0.12220900  1
  Te  Te31  1  0.87779100  0.62220900  0.37779100  1
  S  S32  1  0.37856400  0.12143600  0.87856400  1
  S  S33  1  0.87856400  0.37856400  0.12143600  1
  S  S34  1  0.62143600  0.12143600  0.12143600  1
  S  S35  1  0.12143600  0.37856400  0.87856400  1
  S  S36  1  0.37856400  0.62143600  0.37856400  1
  S  S37  1  0.87856400  0.87856400  0.62143600  1
  S  S38  1  0.62143600  0.62143600  0.62143600  1
  S  S39  1  0.12143600  0.87856400  0.37856400  1
  S  S40  1  0.87856400  0.12143600  0.37856400  1
  S  S41  1  0.37856400  0.37856400  0.62143600  1
  S  S42  1  0.12143600  0.12143600  0.62143600  1
  S  S43  1  0.62143600  0.37856400  0.37856400  1
  S  S44  1  0.87856400  0.62143600  0.87856400  1
  S  S45  1  0.37856400  0.87856400  0.12143600  1
  S  S46  1  0.12143600  0.62143600  0.12143600  1
  S  S47  1  0.62143600  0.87856400  0.87856400  1
