# generated using pymatgen
data_CdAs2S2(OF3)4
_symmetry_space_group_name_H-M   'P 1'
_cell_length_a   9.17210600
_cell_length_b   15.77266600
_cell_length_c   18.56598600
_cell_angle_alpha   90.00000000
_cell_angle_beta   90.00000000
_cell_angle_gamma   90.00000000
_symmetry_Int_Tables_number   1
_chemical_formula_structural   CdAs2S2(OF3)4
_chemical_formula_sum   'Cd8 As16 S16 O32 F96'
_cell_volume   2685.91454230
_cell_formula_units_Z   8
loop_
 _symmetry_equiv_pos_site_id
 _symmetry_equiv_pos_as_xyz
  1  'x, y, z'
loop_
 _atom_site_type_symbol
 _atom_site_label
 _atom_site_symmetry_multiplicity
 _atom_site_fract_x
 _atom_site_fract_y
 _atom_site_fract_z
 _atom_site_occupancy
  Cd  Cd0  1  0.13020400  0.25000000  0.75000000  1
  Cd  Cd1  1  0.88020400  0.00000000  0.50000000  1
  Cd  Cd2  1  0.63020400  0.25000000  0.25000000  1
  Cd  Cd3  1  0.38020400  0.00000000  0.00000000  1
  Cd  Cd4  1  0.63020400  0.75000000  0.75000000  1
  Cd  Cd5  1  0.38020400  0.50000000  0.50000000  1
  Cd  Cd6  1  0.13020400  0.75000000  0.25000000  1
  Cd  Cd7  1  0.88020400  0.50000000  0.00000000  1
  As  As8  1  0.20913650  0.16044650  0.55597000  1
  As  As9  1  0.70913650  0.83955350  0.94403000  1
  As  As10  1  0.45913650  0.08955350  0.80597000  1
  As  As11  1  0.95913650  0.91044650  0.69403000  1
  As  As12  1  0.70913650  0.16044650  0.05597000  1
  As  As13  1  0.20913650  0.83955350  0.44403000  1
  As  As14  1  0.95913650  0.08955350  0.30597000  1
  As  As15  1  0.45913650  0.91044650  0.19403000  1
  As  As16  1  0.70913650  0.66044650  0.55597000  1
  As  As17  1  0.20913650  0.33955350  0.94403000  1
  As  As18  1  0.95913650  0.58955350  0.80597000  1
  As  As19  1  0.45913650  0.41044650  0.69403000  1
  As  As20  1  0.20913650  0.66044650  0.05597000  1
  As  As21  1  0.70913650  0.33955350  0.44403000  1
  As  As22  1  0.45913650  0.58955350  0.30597000  1
  As  As23  1  0.95913650  0.41044650  0.19403000  1
  S  S24  1  0.94304750  0.08890900  0.85283150  1
  S  S25  1  0.19304750  0.83890900  0.89716850  1
  S  S26  1  0.44304750  0.91109100  0.64716850  1
  S  S27  1  0.19304750  0.66109100  0.60283150  1
  S  S28  1  0.44304750  0.08890900  0.35283150  1
  S  S29  1  0.69304750  0.83890900  0.39716850  1
  S  S30  1  0.94304750  0.91109100  0.14716850  1
  S  S31  1  0.69304750  0.66109100  0.10283150  1
  S  S32  1  0.44304750  0.58890900  0.85283150  1
  S  S33  1  0.69304750  0.33890900  0.89716850  1
  S  S34  1  0.94304750  0.41109100  0.64716850  1
  S  S35  1  0.69304750  0.16109100  0.60283150  1
  S  S36  1  0.94304750  0.58890900  0.35283150  1
  S  S37  1  0.19304750  0.33890900  0.39716850  1
  S  S38  1  0.44304750  0.41109100  0.14716850  1
  S  S39  1  0.19304750  0.16109100  0.10283150  1
  O  O40  1  0.21772850  0.90623900  0.95069150  1
  O  O41  1  0.06286850  0.43192550  0.60050200  1
  O  O42  1  0.46772850  0.84376100  0.70069150  1
  O  O43  1  0.96772850  0.15623900  0.79930850  1
  O  O44  1  0.71772850  0.09376100  0.54930850  1
  O  O45  1  0.31286850  0.81807450  0.85050200  1
  O  O46  1  0.06286850  0.06807450  0.89949800  1
  O  O47  1  0.31286850  0.68192550  0.64949800  1
  O  O48  1  0.71772850  0.90623900  0.45069150  1
  O  O49  1  0.56286850  0.43192550  0.10050200  1
  O  O50  1  0.96772850  0.84376100  0.20069150  1
  O  O51  1  0.46772850  0.15623900  0.29930850  1
  O  O52  1  0.21772850  0.09376100  0.04930850  1
  O  O53  1  0.81286850  0.81807450  0.35050200  1
  O  O54  1  0.56286850  0.06807450  0.39949800  1
  O  O55  1  0.81286850  0.68192550  0.14949800  1
  O  O56  1  0.71772850  0.40623900  0.95069150  1
  O  O57  1  0.56286850  0.93192550  0.60050200  1
  O  O58  1  0.96772850  0.34376100  0.70069150  1
  O  O59  1  0.46772850  0.65623900  0.79930850  1
  O  O60  1  0.21772850  0.59376100  0.54930850  1
  O  O61  1  0.81286850  0.31807450  0.85050200  1
  O  O62  1  0.56286850  0.56807450  0.89949800  1
  O  O63  1  0.81286850  0.18192550  0.64949800  1
  O  O64  1  0.21772850  0.40623900  0.45069150  1
  O  O65  1  0.06286850  0.93192550  0.10050200  1
  O  O66  1  0.46772850  0.34376100  0.20069150  1
  O  O67  1  0.96772850  0.65623900  0.29930850  1
  O  O68  1  0.71772850  0.59376100  0.04930850  1
  O  O69  1  0.31286850  0.31807450  0.35050200  1
  O  O70  1  0.06286850  0.56807450  0.39949800  1
  O  O71  1  0.31286850  0.18192550  0.14949800  1
  F  F72  1  0.42111750  0.08736600  0.90258350  1
  F  F73  1  0.73597250  0.15639800  0.96185350  1
  F  F74  1  0.30934750  0.16481150  0.79836400  1
  F  F75  1  0.82630200  0.92551950  0.93036050  1
  F  F76  1  0.17111750  0.16263400  0.65258350  1
  F  F77  1  0.07630200  0.82448050  0.68036050  1
  F  F78  1  0.23597250  0.84360200  0.53814650  1
  F  F79  1  0.55934750  0.91481150  0.95163600  1
  F  F80  1  0.83146700  0.99280800  0.70431700  1
  F  F81  1  0.35118050  0.26711450  0.93249200  1
  F  F82  1  0.92111750  0.91263400  0.59741650  1
  F  F83  1  0.05934750  0.08518850  0.54836400  1
  F  F84  1  0.67111750  0.83736600  0.84741650  1
  F  F85  1  0.60118050  0.01711450  0.81750800  1
  F  F86  1  0.57630200  0.17551950  0.81963950  1
  F  F87  1  0.08146700  0.24280800  0.54568300  1
  F  F88  1  0.48597250  0.09360200  0.71185350  1
  F  F89  1  0.98597250  0.90639800  0.78814650  1
  F  F90  1  0.32630200  0.07448050  0.56963950  1
  F  F91  1  0.30934750  0.33518850  0.70163600  1
  F  F92  1  0.85118050  0.73288550  0.56750800  1
  F  F93  1  0.58146700  0.75719200  0.95431700  1
  F  F94  1  0.10118050  0.98288550  0.68249200  1
  F  F95  1  0.33146700  0.00719200  0.79568300  1
  F  F96  1  0.92111750  0.08736600  0.40258350  1
  F  F97  1  0.23597250  0.15639800  0.46185350  1
  F  F98  1  0.80934750  0.16481150  0.29836400  1
  F  F99  1  0.32630200  0.92551950  0.43036050  1
  F  F100  1  0.67111750  0.16263400  0.15258350  1
  F  F101  1  0.57630200  0.82448050  0.18036050  1
  F  F102  1  0.73597250  0.84360200  0.03814650  1
  F  F103  1  0.05934750  0.91481150  0.45163600  1
  F  F104  1  0.33146700  0.99280800  0.20431700  1
  F  F105  1  0.85118050  0.26711450  0.43249200  1
  F  F106  1  0.42111750  0.91263400  0.09741650  1
  F  F107  1  0.55934750  0.08518850  0.04836400  1
  F  F108  1  0.17111750  0.83736600  0.34741650  1
  F  F109  1  0.10118050  0.01711450  0.31750800  1
  F  F110  1  0.07630200  0.17551950  0.31963950  1
  F  F111  1  0.58146700  0.24280800  0.04568300  1
  F  F112  1  0.98597250  0.09360200  0.21185350  1
  F  F113  1  0.48597250  0.90639800  0.28814650  1
  F  F114  1  0.82630200  0.07448050  0.06963950  1
  F  F115  1  0.80934750  0.33518850  0.20163600  1
  F  F116  1  0.35118050  0.73288550  0.06750800  1
  F  F117  1  0.08146700  0.75719200  0.45431700  1
  F  F118  1  0.60118050  0.98288550  0.18249200  1
  F  F119  1  0.83146700  0.00719200  0.29568300  1
  F  F120  1  0.92111750  0.58736600  0.90258350  1
  F  F121  1  0.23597250  0.65639800  0.96185350  1
  F  F122  1  0.80934750  0.66481150  0.79836400  1
  F  F123  1  0.32630200  0.42551950  0.93036050  1
  F  F124  1  0.67111750  0.66263400  0.65258350  1
  F  F125  1  0.57630200  0.32448050  0.68036050  1
  F  F126  1  0.73597250  0.34360200  0.53814650  1
  F  F127  1  0.05934750  0.41481150  0.95163600  1
  F  F128  1  0.33146700  0.49280800  0.70431700  1
  F  F129  1  0.85118050  0.76711450  0.93249200  1
  F  F130  1  0.42111750  0.41263400  0.59741650  1
  F  F131  1  0.55934750  0.58518850  0.54836400  1
  F  F132  1  0.17111750  0.33736600  0.84741650  1
  F  F133  1  0.10118050  0.51711450  0.81750800  1
  F  F134  1  0.07630200  0.67551950  0.81963950  1
  F  F135  1  0.58146700  0.74280800  0.54568300  1
  F  F136  1  0.98597250  0.59360200  0.71185350  1
  F  F137  1  0.48597250  0.40639800  0.78814650  1
  F  F138  1  0.82630200  0.57448050  0.56963950  1
  F  F139  1  0.80934750  0.83518850  0.70163600  1
  F  F140  1  0.35118050  0.23288550  0.56750800  1
  F  F141  1  0.08146700  0.25719200  0.95431700  1
  F  F142  1  0.60118050  0.48288550  0.68249200  1
  F  F143  1  0.83146700  0.50719200  0.79568300  1
  F  F144  1  0.42111750  0.58736600  0.40258350  1
  F  F145  1  0.73597250  0.65639800  0.46185350  1
  F  F146  1  0.30934750  0.66481150  0.29836400  1
  F  F147  1  0.82630200  0.42551950  0.43036050  1
  F  F148  1  0.17111750  0.66263400  0.15258350  1
  F  F149  1  0.07630200  0.32448050  0.18036050  1
  F  F150  1  0.23597250  0.34360200  0.03814650  1
  F  F151  1  0.55934750  0.41481150  0.45163600  1
  F  F152  1  0.83146700  0.49280800  0.20431700  1
  F  F153  1  0.35118050  0.76711450  0.43249200  1
  F  F154  1  0.92111750  0.41263400  0.09741650  1
  F  F155  1  0.05934750  0.58518850  0.04836400  1
  F  F156  1  0.67111750  0.33736600  0.34741650  1
  F  F157  1  0.60118050  0.51711450  0.31750800  1
  F  F158  1  0.57630200  0.67551950  0.31963950  1
  F  F159  1  0.08146700  0.74280800  0.04568300  1
  F  F160  1  0.48597250  0.59360200  0.21185350  1
  F  F161  1  0.98597250  0.40639800  0.28814650  1
  F  F162  1  0.32630200  0.57448050  0.06963950  1
  F  F163  1  0.30934750  0.83518850  0.20163600  1
  F  F164  1  0.85118050  0.23288550  0.06750800  1
  F  F165  1  0.58146700  0.25719200  0.45431700  1
  F  F166  1  0.10118050  0.48288550  0.18249200  1
  F  F167  1  0.33146700  0.50719200  0.29568300  1
