# generated using pymatgen
data_Li2PtO3
_symmetry_space_group_name_H-M   'P 1'
_cell_length_a   5.27534400
_cell_length_b   9.12467000
_cell_length_c   29.02091571
_cell_angle_alpha   90.00000000
_cell_angle_beta   90.01965211
_cell_angle_gamma   90.00000000
_symmetry_Int_Tables_number   1
_chemical_formula_structural   Li2PtO3
_chemical_formula_sum   'Li48 Pt24 O72'
_cell_volume   1396.94413252
_cell_formula_units_Z   24
loop_
 _symmetry_equiv_pos_site_id
 _symmetry_equiv_pos_as_xyz
  1  'x, y, z'
loop_
 _atom_site_type_symbol
 _atom_site_label
 _atom_site_symmetry_multiplicity
 _atom_site_fract_x
 _atom_site_fract_y
 _atom_site_fract_z
 _atom_site_occupancy
  Li  Li0  1  0.50000000  0.16673200  0.00000000  1
  Li  Li1  1  0.17111150  0.16599050  0.91682400  1
  Li  Li2  1  0.66348700  0.00104200  0.91656400  1
  Li  Li3  1  0.66715950  0.33283450  0.91687000  1
  Li  Li4  1  0.33277600  0.99982100  0.83341700  1
  Li  Li5  1  0.50020850  0.16442950  0.75000200  1
  Li  Li6  1  0.00054900  0.99990100  0.75010000  1
  Li  Li7  1  0.49974700  0.83571400  0.75004700  1
  Li  Li8  1  0.66667900  0.99999000  0.66667700  1
  Li  Li9  1  0.83333500  0.16411400  0.58333400  1
  Li  Li10  1  0.33330950  0.99998850  0.58333500  1
  Li  Li11  1  0.83334500  0.83587300  0.58333300  1
  Li  Li12  1  0.50000000  0.49999300  0.50000000  1
  Li  Li13  1  0.16665500  0.83587300  0.41666700  1
  Li  Li14  1  0.66669050  0.99998850  0.41666500  1
  Li  Li15  1  0.16666500  0.16411400  0.41666600  1
  Li  Li16  1  0.33332100  0.99999000  0.33332300  1
  Li  Li17  1  0.50025300  0.83571400  0.24995300  1
  Li  Li18  1  0.99945100  0.99990100  0.24990000  1
  Li  Li19  1  0.49979150  0.16442950  0.24999800  1
  Li  Li20  1  0.66722400  0.99982100  0.16658300  1
  Li  Li21  1  0.33651300  0.00104200  0.08343600  1
  Li  Li22  1  0.82888850  0.16599050  0.08317600  1
  Li  Li23  1  0.33284050  0.33283450  0.08313000  1
  Li  Li24  1  0.00000000  0.66673200  0.00000000  1
  Li  Li25  1  0.67111150  0.66599050  0.91682400  1
  Li  Li26  1  0.16348700  0.50104200  0.91656400  1
  Li  Li27  1  0.16715950  0.83283450  0.91687000  1
  Li  Li28  1  0.83277600  0.49982100  0.83341700  1
  Li  Li29  1  0.00020850  0.66442950  0.75000200  1
  Li  Li30  1  0.50054900  0.49990100  0.75010000  1
  Li  Li31  1  0.99974700  0.33571400  0.75004700  1
  Li  Li32  1  0.16667900  0.49999000  0.66667700  1
  Li  Li33  1  0.33333500  0.66411400  0.58333400  1
  Li  Li34  1  0.83330950  0.49998850  0.58333500  1
  Li  Li35  1  0.33334500  0.33587300  0.58333300  1
  Li  Li36  1  0.00000000  0.99999300  0.50000000  1
  Li  Li37  1  0.66665500  0.33587300  0.41666700  1
  Li  Li38  1  0.16669050  0.49998850  0.41666500  1
  Li  Li39  1  0.66666500  0.66411400  0.41666600  1
  Li  Li40  1  0.83332100  0.49999000  0.33332300  1
  Li  Li41  1  0.00025300  0.33571400  0.24995300  1
  Li  Li42  1  0.49945100  0.49990100  0.24990000  1
  Li  Li43  1  0.99979150  0.66442950  0.24999800  1
  Li  Li44  1  0.16722400  0.49982100  0.16658300  1
  Li  Li45  1  0.83651300  0.50104200  0.08343600  1
  Li  Li46  1  0.32888850  0.66599050  0.08317600  1
  Li  Li47  1  0.83284050  0.83283450  0.08313000  1
  Pt  Pt48  1  0.50000000  0.83342000  0.00000000  1
  Pt  Pt49  1  0.50000000  0.49993300  0.00000000  1
  Pt  Pt50  1  0.33351600  0.66670900  0.83337600  1
  Pt  Pt51  1  0.33360250  0.33336950  0.83337700  1
  Pt  Pt52  1  0.16663900  0.16662900  0.66668000  1
  Pt  Pt53  1  0.16664300  0.83336300  0.66668000  1
  Pt  Pt54  1  0.50000000  0.16663300  0.50000000  1
  Pt  Pt55  1  0.50000000  0.83335000  0.50000000  1
  Pt  Pt56  1  0.83336100  0.16662900  0.33332000  1
  Pt  Pt57  1  0.83335700  0.83336300  0.33332000  1
  Pt  Pt58  1  0.66648400  0.66670900  0.16662400  1
  Pt  Pt59  1  0.66639750  0.33336950  0.16662300  1
  Pt  Pt60  1  0.00000000  0.33342000  0.00000000  1
  Pt  Pt61  1  0.00000000  0.99993300  0.00000000  1
  Pt  Pt62  1  0.83351600  0.16670900  0.83337600  1
  Pt  Pt63  1  0.83360250  0.83336950  0.83337700  1
  Pt  Pt64  1  0.66663900  0.66662900  0.66668000  1
  Pt  Pt65  1  0.66664300  0.33336300  0.66668000  1
  Pt  Pt66  1  0.00000000  0.66663300  0.50000000  1
  Pt  Pt67  1  0.00000000  0.33335000  0.50000000  1
  Pt  Pt68  1  0.33336100  0.66662900  0.33332000  1
  Pt  Pt69  1  0.33335700  0.33336300  0.33332000  1
  Pt  Pt70  1  0.16648400  0.16670900  0.16662400  1
  Pt  Pt71  1  0.16639750  0.83336950  0.16662300  1
  O  O72  1  0.32557150  0.99301950  0.96080700  1
  O  O73  1  0.34684200  0.66686700  0.96133300  1
  O  O74  1  0.82607100  0.84017500  0.96126300  1
  O  O75  1  0.50722500  0.17395200  0.87259000  1
  O  O76  1  0.50709200  0.82638100  0.87208700  1
  O  O77  1  0.98622550  0.00011750  0.87217900  1
  O  O78  1  0.68136900  0.99977700  0.79413200  1
  O  O79  1  0.65936600  0.67355900  0.79466800  1
  O  O80  1  0.65976600  0.32641800  0.79461100  1
  O  O81  1  0.34001300  0.67377200  0.70539100  1
  O  O82  1  0.34002550  0.32618750  0.70539500  1
  O  O83  1  0.31904200  0.00000900  0.70598900  1
  O  O84  1  0.01437900  0.99999400  0.62735600  1
  O  O85  1  0.49320000  0.17381600  0.62796600  1
  O  O86  1  0.49319650  0.82618050  0.62796500  1
  O  O87  1  0.67341500  0.67379400  0.53871000  1
  O  O88  1  0.67341400  0.32619000  0.53870900  1
  O  O89  1  0.65228000  0.99999100  0.53931700  1
  O  O90  1  0.34772000  0.99999100  0.46068300  1
  O  O91  1  0.32658500  0.67379400  0.46129000  1
  O  O92  1  0.32658600  0.32619000  0.46129100  1
  O  O93  1  0.50680350  0.82618050  0.37203500  1
  O  O94  1  0.50680000  0.17381600  0.37203400  1
  O  O95  1  0.98562100  0.99999400  0.37264400  1
  O  O96  1  0.68095800  0.00000900  0.29401100  1
  O  O97  1  0.65997450  0.32618750  0.29460500  1
  O  O98  1  0.65998700  0.67377200  0.29460900  1
  O  O99  1  0.34023400  0.32641800  0.20538900  1
  O  O100  1  0.34063400  0.67355900  0.20533200  1
  O  O101  1  0.31863100  0.99977700  0.20586800  1
  O  O102  1  0.01377450  0.00011750  0.12782100  1
  O  O103  1  0.49277500  0.17395200  0.12741000  1
  O  O104  1  0.49290800  0.82638100  0.12791300  1
  O  O105  1  0.65315800  0.66686700  0.03866700  1
  O  O106  1  0.17392900  0.84017500  0.03873700  1
  O  O107  1  0.67442850  0.99301950  0.03919300  1
  O  O108  1  0.82557150  0.49301950  0.96080700  1
  O  O109  1  0.84684200  0.16686700  0.96133300  1
  O  O110  1  0.32607100  0.34017500  0.96126300  1
  O  O111  1  0.00722500  0.67395200  0.87259000  1
  O  O112  1  0.00709200  0.32638100  0.87208700  1
  O  O113  1  0.48622550  0.50011750  0.87217900  1
  O  O114  1  0.18136900  0.49977700  0.79413200  1
  O  O115  1  0.15936600  0.17355900  0.79466800  1
  O  O116  1  0.15976600  0.82641800  0.79461100  1
  O  O117  1  0.84001300  0.17377200  0.70539100  1
  O  O118  1  0.84002550  0.82618750  0.70539500  1
  O  O119  1  0.81904200  0.50000900  0.70598900  1
  O  O120  1  0.51437900  0.49999400  0.62735600  1
  O  O121  1  0.99320000  0.67381600  0.62796600  1
  O  O122  1  0.99319650  0.32618050  0.62796500  1
  O  O123  1  0.17341500  0.17379400  0.53871000  1
  O  O124  1  0.17341400  0.82619000  0.53870900  1
  O  O125  1  0.15228000  0.49999100  0.53931700  1
  O  O126  1  0.84772000  0.49999100  0.46068300  1
  O  O127  1  0.82658500  0.17379400  0.46129000  1
  O  O128  1  0.82658600  0.82619000  0.46129100  1
  O  O129  1  0.00680350  0.32618050  0.37203500  1
  O  O130  1  0.00680000  0.67381600  0.37203400  1
  O  O131  1  0.48562100  0.49999400  0.37264400  1
  O  O132  1  0.18095800  0.50000900  0.29401100  1
  O  O133  1  0.15997450  0.82618750  0.29460500  1
  O  O134  1  0.15998700  0.17377200  0.29460900  1
  O  O135  1  0.84023400  0.82641800  0.20538900  1
  O  O136  1  0.84063400  0.17355900  0.20533200  1
  O  O137  1  0.81863100  0.49977700  0.20586800  1
  O  O138  1  0.51377450  0.50011750  0.12782100  1
  O  O139  1  0.99277500  0.67395200  0.12741000  1
  O  O140  1  0.99290800  0.32638100  0.12791300  1
  O  O141  1  0.15315800  0.16686700  0.03866700  1
  O  O142  1  0.67392900  0.34017500  0.03873700  1
  O  O143  1  0.17442850  0.49301950  0.03919300  1
