# generated using pymatgen
data_Na2Ca3Ta2O9
_symmetry_space_group_name_H-M   'P 1'
_cell_length_a   5.68821983
_cell_length_b   5.68821983
_cell_length_c   24.56421546
_cell_angle_alpha   90.00000000
_cell_angle_beta   90.00000000
_cell_angle_gamma   120.00000000
_symmetry_Int_Tables_number   1
_chemical_formula_structural   Na2Ca3Ta2O9
_chemical_formula_sum   'Na6 Ca9 Ta6 O27'
_cell_volume   688.31347848
_cell_formula_units_Z   3
loop_
 _symmetry_equiv_pos_site_id
 _symmetry_equiv_pos_as_xyz
  1  'x, y, z'
loop_
 _atom_site_type_symbol
 _atom_site_label
 _atom_site_symmetry_multiplicity
 _atom_site_fract_x
 _atom_site_fract_y
 _atom_site_fract_z
 _atom_site_occupancy
  Na  Na0  1  0.00000000  0.00000000  0.19951400  1
  Na  Na1  1  0.66666667  0.33333333  0.13381933  1
  Na  Na2  1  0.66666667  0.33333333  0.53284733  1
  Na  Na3  1  0.33333333  0.66666667  0.46715267  1
  Na  Na4  1  0.33333333  0.66666667  0.86618067  1
  Na  Na5  1  0.00000000  0.00000000  0.80048600  1
  Ca  Ca6  1  0.33333333  0.66666667  0.03811767  1
  Ca  Ca7  1  0.33333333  0.66666667  0.16666667  1
  Ca  Ca8  1  0.33333333  0.66666667  0.29521567  1
  Ca  Ca9  1  0.00000000  0.00000000  0.37145100  1
  Ca  Ca10  1  0.00000000  0.00000000  0.50000000  1
  Ca  Ca11  1  1.00000000  0.00000000  0.62854900  1
  Ca  Ca12  1  0.66666667  0.33333333  0.70478433  1
  Ca  Ca13  1  0.66666667  0.33333333  0.83333333  1
  Ca  Ca14  1  0.66666667  0.33333333  0.96188233  1
  Ta  Ta15  1  0.00000000  0.00000000  0.06408600  1
  Ta  Ta16  1  0.66666667  0.33333333  0.26924733  1
  Ta  Ta17  1  0.66666667  0.33333333  0.39741933  1
  Ta  Ta18  1  0.33333333  0.66666667  0.60258067  1
  Ta  Ta19  1  0.33333333  0.66666667  0.73075267  1
  Ta  Ta20  1  0.00000000  0.00000000  0.93591400  1
  O  O21  1  0.08115767  0.76252433  0.10537633  1
  O  O22  1  0.42919100  0.41449100  0.22795700  1
  O  O23  1  0.23747567  0.31863333  0.10537633  1
  O  O24  1  0.58550900  0.01470000  0.22795700  1
  O  O25  1  0.68136667  0.91884233  0.10537633  1
  O  O26  1  0.00000000  0.74156900  0.00000000  1
  O  O27  1  0.25843100  0.25843100  0.00000000  1
  O  O28  1  0.74156900  0.00000000  0.00000000  1
  O  O29  1  0.98530000  0.57080900  0.22795700  1
  O  O30  1  0.74782433  0.09585767  0.43870967  1
  O  O31  1  0.09585767  0.74782433  0.56129033  1
  O  O32  1  0.90414233  0.65196667  0.43870967  1
  O  O33  1  0.25217567  0.34803333  0.56129033  1
  O  O34  1  0.34803333  0.25217567  0.43870967  1
  O  O35  1  0.66666667  0.07490233  0.33333333  1
  O  O36  1  0.92509767  0.59176433  0.33333333  1
  O  O37  1  0.40823567  0.33333333  0.33333333  1
  O  O38  1  0.65196667  0.90414233  0.56129033  1
  O  O39  1  0.41449100  0.42919100  0.77204300  1
  O  O40  1  0.76252433  0.08115767  0.89462367  1
  O  O41  1  0.57080900  0.98530000  0.77204300  1
  O  O42  1  0.91884233  0.68136667  0.89462367  1
  O  O43  1  0.01470000  0.58550900  0.77204300  1
  O  O44  1  0.33333333  0.40823567  0.66666667  1
  O  O45  1  0.59176433  0.92509767  0.66666667  1
  O  O46  1  0.07490233  0.66666667  0.66666667  1
  O  O47  1  0.31863333  0.23747567  0.89462367  1
