# generated using pymatgen
data_Mg2As2O7
_symmetry_space_group_name_H-M   'P 1'
_cell_length_a   6.62273600
_cell_length_b   8.68747600
_cell_length_c   4.84531105
_cell_angle_alpha   90.00000000
_cell_angle_beta   103.26130816
_cell_angle_gamma   90.00000000
_symmetry_Int_Tables_number   1
_chemical_formula_structural   Mg2As2O7
_chemical_formula_sum   'Mg4 As4 O14'
_cell_volume   271.34049871
_cell_formula_units_Z   2
loop_
 _symmetry_equiv_pos_site_id
 _symmetry_equiv_pos_as_xyz
  1  'x, y, z'
loop_
 _atom_site_type_symbol
 _atom_site_label
 _atom_site_symmetry_multiplicity
 _atom_site_fract_x
 _atom_site_fract_y
 _atom_site_fract_z
 _atom_site_occupancy
  Mg  Mg0  1  0.50000000  0.81072600  0.50000000  1
  Mg  Mg1  1  0.50000000  0.18927400  0.50000000  1
  Mg  Mg2  1  0.00000000  0.31072600  0.50000000  1
  Mg  Mg3  1  0.00000000  0.68927400  0.50000000  1
  As  As4  1  0.76388500  0.00000000  0.10079400  1
  As  As5  1  0.23611500  0.00000000  0.89920600  1
  As  As6  1  0.26388500  0.50000000  0.10079400  1
  As  As7  1  0.73611500  0.50000000  0.89920600  1
  O  O8  1  0.76600000  0.83543100  0.29306900  1
  O  O9  1  0.23400000  0.83543100  0.70693100  1
  O  O10  1  0.23400000  0.16456900  0.70693100  1
  O  O11  1  0.76600000  0.16456900  0.29306900  1
  O  O12  1  0.00000000  0.00000000  0.00000000  1
  O  O13  1  0.59476000  0.00000000  0.77415700  1
  O  O14  1  0.40524000  0.00000000  0.22584300  1
  O  O15  1  0.26600000  0.33543100  0.29306900  1
  O  O16  1  0.73400000  0.33543100  0.70693100  1
  O  O17  1  0.73400000  0.66456900  0.70693100  1
  O  O18  1  0.26600000  0.66456900  0.29306900  1
  O  O19  1  0.50000000  0.50000000  0.00000000  1
  O  O20  1  0.09476000  0.50000000  0.77415700  1
  O  O21  1  0.90524000  0.50000000  0.22584300  1
