# generated using pymatgen
data_Ca2Mg5Si8(O11F)2
_symmetry_space_group_name_H-M   'P 1'
_cell_length_a   9.93592000
_cell_length_b   18.21201800
_cell_length_c   5.32796317
_cell_angle_alpha   90.00000000
_cell_angle_beta   104.46284335
_cell_angle_gamma   90.00000000
_symmetry_Int_Tables_number   1
_chemical_formula_structural   Ca2Mg5Si8(O11F)2
_chemical_formula_sum   'Ca4 Mg10 Si16 O44 F4'
_cell_volume   933.55885433
_cell_formula_units_Z   2
loop_
 _symmetry_equiv_pos_site_id
 _symmetry_equiv_pos_as_xyz
  1  'x, y, z'
loop_
 _atom_site_type_symbol
 _atom_site_label
 _atom_site_symmetry_multiplicity
 _atom_site_fract_x
 _atom_site_fract_y
 _atom_site_fract_z
 _atom_site_occupancy
  Ca  Ca0  1  0.50000000  0.77759000  0.50000000  1
  Ca  Ca1  1  0.00000000  0.72241000  0.50000000  1
  Ca  Ca2  1  0.00000000  0.27759000  0.50000000  1
  Ca  Ca3  1  0.50000000  0.22241000  0.50000000  1
  Mg  Mg4  1  0.50000000  0.58845800  0.50000000  1
  Mg  Mg5  1  0.00000000  0.00000000  0.00000000  1
  Mg  Mg6  1  0.00000000  0.91154200  0.50000000  1
  Mg  Mg7  1  0.00000000  0.82326600  0.00000000  1
  Mg  Mg8  1  0.50000000  0.67673400  0.00000000  1
  Mg  Mg9  1  0.00000000  0.08845800  0.50000000  1
  Mg  Mg10  1  0.50000000  0.50000000  0.00000000  1
  Mg  Mg11  1  0.50000000  0.41154200  0.50000000  1
  Mg  Mg12  1  0.50000000  0.32326600  0.00000000  1
  Mg  Mg13  1  0.00000000  0.17673400  0.00000000  1
  Si  Si14  1  0.71857500  0.91643600  0.70426400  1
  Si  Si15  1  0.21119250  0.67073350  0.19673200  1
  Si  Si16  1  0.28142500  0.91643600  0.29573600  1
  Si  Si17  1  0.71119250  0.82926650  0.19673200  1
  Si  Si18  1  0.78142500  0.58356400  0.29573600  1
  Si  Si19  1  0.28880750  0.82926650  0.80326800  1
  Si  Si20  1  0.78880750  0.67073350  0.80326800  1
  Si  Si21  1  0.21857500  0.58356400  0.70426400  1
  Si  Si22  1  0.21857500  0.41643600  0.70426400  1
  Si  Si23  1  0.71119250  0.17073350  0.19673200  1
  Si  Si24  1  0.78142500  0.41643600  0.29573600  1
  Si  Si25  1  0.21119250  0.32926650  0.19673200  1
  Si  Si26  1  0.28142500  0.08356400  0.29573600  1
  Si  Si27  1  0.78880750  0.32926650  0.80326800  1
  Si  Si28  1  0.28880750  0.17073350  0.80326800  1
  Si  Si29  1  0.71857500  0.08356400  0.70426400  1
  O  O30  1  0.34661050  0.86548350  0.09866400  1
  O  O31  1  0.11221850  0.91512550  0.21761100  1
  O  O32  1  0.84454050  0.61942850  0.58555600  1
  O  O33  1  0.65545950  0.88057150  0.41444400  1
  O  O34  1  0.38126200  0.66999500  0.27588900  1
  O  O35  1  0.88126200  0.83000500  0.27588900  1
  O  O36  1  0.66002500  0.00000000  0.70742800  1
  O  O37  1  0.15545950  0.61942850  0.41444400  1
  O  O38  1  0.88778150  0.91512550  0.78238900  1
  O  O39  1  0.86562850  0.74793850  0.79226500  1
  O  O40  1  0.38778150  0.58487450  0.78238900  1
  O  O41  1  0.15338950  0.63451650  0.90133600  1
  O  O42  1  0.63437150  0.75206150  0.20773500  1
  O  O43  1  0.61221850  0.58487450  0.21761100  1
  O  O44  1  0.11873800  0.83000500  0.72411100  1
  O  O45  1  0.36562850  0.75206150  0.79226500  1
  O  O46  1  0.61873800  0.66999500  0.72411100  1
  O  O47  1  0.65338950  0.86548350  0.90133600  1
  O  O48  1  0.33997500  0.00000000  0.29257200  1
  O  O49  1  0.13437150  0.74793850  0.20773500  1
  O  O50  1  0.84661050  0.63451650  0.09866400  1
  O  O51  1  0.34454050  0.88057150  0.58555600  1
  O  O52  1  0.84661050  0.36548350  0.09866400  1
  O  O53  1  0.61221850  0.41512550  0.21761100  1
  O  O54  1  0.34454050  0.11942850  0.58555600  1
  O  O55  1  0.15545950  0.38057150  0.41444400  1
  O  O56  1  0.88126200  0.16999500  0.27588900  1
  O  O57  1  0.38126200  0.33000500  0.27588900  1
  O  O58  1  0.16002500  0.50000000  0.70742800  1
  O  O59  1  0.65545950  0.11942850  0.41444400  1
  O  O60  1  0.38778150  0.41512550  0.78238900  1
  O  O61  1  0.36562850  0.24793850  0.79226500  1
  O  O62  1  0.88778150  0.08487450  0.78238900  1
  O  O63  1  0.65338950  0.13451650  0.90133600  1
  O  O64  1  0.13437150  0.25206150  0.20773500  1
  O  O65  1  0.11221850  0.08487450  0.21761100  1
  O  O66  1  0.61873800  0.33000500  0.72411100  1
  O  O67  1  0.86562850  0.25206150  0.79226500  1
  O  O68  1  0.11873800  0.16999500  0.72411100  1
  O  O69  1  0.15338950  0.36548350  0.90133600  1
  O  O70  1  0.83997500  0.50000000  0.29257200  1
  O  O71  1  0.63437150  0.24793850  0.20773500  1
  O  O72  1  0.34661050  0.13451650  0.09866400  1
  O  O73  1  0.84454050  0.38057150  0.58555600  1
  F  F74  1  0.10117200  0.00000000  0.71165300  1
  F  F75  1  0.89882800  0.00000000  0.28834700  1
  F  F76  1  0.60117200  0.50000000  0.71165300  1
  F  F77  1  0.39882800  0.50000000  0.28834700  1
