# generated using pymatgen
data_Rb3As7
_symmetry_space_group_name_H-M   'P 1'
_cell_length_a   7.79722000
_cell_length_b   13.39777000
_cell_length_c   27.57310561
_cell_angle_alpha   90.00000000
_cell_angle_beta   91.82430936
_cell_angle_gamma   90.00000000
_symmetry_Int_Tables_number   1
_chemical_formula_structural   Rb3As7
_chemical_formula_sum   'Rb24 As56'
_cell_volume   2878.97444223
_cell_formula_units_Z   8
loop_
 _symmetry_equiv_pos_site_id
 _symmetry_equiv_pos_as_xyz
  1  'x, y, z'
loop_
 _atom_site_type_symbol
 _atom_site_label
 _atom_site_symmetry_multiplicity
 _atom_site_fract_x
 _atom_site_fract_y
 _atom_site_fract_z
 _atom_site_occupancy
  Rb  Rb0  1  0.10492600  0.04938900  0.90045900  1
  Rb  Rb1  1  0.18539200  0.89496300  0.73581200  1
  Rb  Rb2  1  0.18711100  0.44811500  0.04824100  1
  Rb  Rb3  1  0.18711100  0.05188500  0.54824100  1
  Rb  Rb4  1  0.29034600  0.02139600  0.37326100  1
  Rb  Rb5  1  0.58669200  0.37856200  0.29516600  1
  Rb  Rb6  1  0.81460800  0.10503700  0.26418800  1
  Rb  Rb7  1  0.39039700  0.15869100  0.06583100  1
  Rb  Rb8  1  0.89507400  0.54938900  0.59954100  1
  Rb  Rb9  1  0.81460800  0.39496300  0.76418800  1
  Rb  Rb10  1  0.81288900  0.94811500  0.45175900  1
  Rb  Rb11  1  0.10492600  0.45061100  0.40045900  1
  Rb  Rb12  1  0.89507400  0.95061100  0.09954100  1
  Rb  Rb13  1  0.60960300  0.84130900  0.93416900  1
  Rb  Rb14  1  0.70965400  0.97860400  0.62673900  1
  Rb  Rb15  1  0.41330800  0.87856200  0.20483400  1
  Rb  Rb16  1  0.60960300  0.65869100  0.43416900  1
  Rb  Rb17  1  0.81288900  0.55188500  0.95175900  1
  Rb  Rb18  1  0.58669200  0.12143800  0.79516600  1
  Rb  Rb19  1  0.29034600  0.47860400  0.87326100  1
  Rb  Rb20  1  0.18539200  0.60503700  0.23581200  1
  Rb  Rb21  1  0.41330800  0.62143800  0.70483400  1
  Rb  Rb22  1  0.39039700  0.34130900  0.56583100  1
  Rb  Rb23  1  0.70965400  0.52139600  0.12673900  1
  As  As24  1  0.81058500  0.60707500  0.31172300  1
  As  As25  1  0.98301600  0.19759800  0.42101400  1
  As  As26  1  0.72136200  0.15884900  0.53216300  1
  As  As27  1  0.26054800  0.31243500  0.77058400  1
  As  As28  1  0.18941500  0.10707500  0.18827700  1
  As  As29  1  0.30622200  0.80373500  0.60932600  1
  As  As30  1  0.69377800  0.19626500  0.39067400  1
  As  As31  1  0.54415900  0.71666500  0.30177400  1
  As  As32  1  0.73945200  0.81243500  0.72941600  1
  As  As33  1  0.45241100  0.84173500  0.06743200  1
  As  As34  1  0.27863800  0.65884900  0.96783700  1
  As  As35  1  0.05992600  0.13193200  0.68624700  1
  As  As36  1  0.91997400  0.66827900  0.72651900  1
  As  As37  1  0.97748800  0.20898300  0.14941000  1
  As  As38  1  0.63487800  0.87522200  0.33222900  1
  As  As39  1  0.76536000  0.41710600  0.48285300  1
  As  As40  1  0.45584100  0.28333500  0.69822600  1
  As  As41  1  0.81058500  0.89292500  0.81172300  1
  As  As42  1  0.01698400  0.69759800  0.07898600  1
  As  As43  1  0.30622200  0.69626500  0.10932600  1
  As  As44  1  0.76536000  0.08289400  0.98285300  1
  As  As45  1  0.94321300  0.22966700  0.00147800  1
  As  As46  1  0.97748800  0.29101700  0.64941000  1
  As  As47  1  0.02251200  0.79101700  0.85059000  1
  As  As48  1  0.69377800  0.30373500  0.89067400  1
  As  As49  1  0.94007400  0.86806800  0.31375300  1
  As  As50  1  0.05992600  0.36806800  0.18624700  1
  As  As51  1  0.54758900  0.15826500  0.93256800  1
  As  As52  1  0.02251200  0.70898300  0.35059000  1
  As  As53  1  0.18941500  0.39292500  0.68827700  1
  As  As54  1  0.08002600  0.16827900  0.77348100  1
  As  As55  1  0.36512200  0.12477800  0.66777100  1
  As  As56  1  0.26054800  0.18756500  0.27058400  1
  As  As57  1  0.08002600  0.33172100  0.27348100  1
  As  As58  1  0.45241100  0.65826500  0.56743200  1
  As  As59  1  0.36512200  0.37522200  0.16777100  1
  As  As60  1  0.23464000  0.58289400  0.51714700  1
  As  As61  1  0.54758900  0.34173500  0.43256800  1
  As  As62  1  0.63487800  0.62477800  0.83222900  1
  As  As63  1  0.23464000  0.91710600  0.01714700  1
  As  As64  1  0.05678700  0.77033300  0.99852200  1
  As  As65  1  0.48398800  0.66504200  0.03323100  1
  As  As66  1  0.01698400  0.80240200  0.57898600  1
  As  As67  1  0.54415900  0.78333500  0.80177400  1
  As  As68  1  0.91997400  0.83172100  0.22651900  1
  As  As69  1  0.73945200  0.68756500  0.22941600  1
  As  As70  1  0.51601200  0.33495800  0.96676900  1
  As  As71  1  0.72136200  0.34115100  0.03216300  1
  As  As72  1  0.05678700  0.72966700  0.49852200  1
  As  As73  1  0.27863800  0.84115100  0.46783700  1
  As  As74  1  0.94321300  0.27033300  0.50147800  1
  As  As75  1  0.98301600  0.30240200  0.92101400  1
  As  As76  1  0.94007400  0.63193200  0.81375300  1
  As  As77  1  0.48398800  0.83495800  0.53323100  1
  As  As78  1  0.51601200  0.16504200  0.46676900  1
  As  As79  1  0.45584100  0.21666500  0.19822600  1
