# generated using pymatgen
data_RbRe3Br10
_symmetry_space_group_name_H-M   'P 1'
_cell_length_a   15.52513800
_cell_length_b   11.08990200
_cell_length_c   10.67065839
_cell_angle_alpha   90.00000000
_cell_angle_beta   92.32661319
_cell_angle_gamma   90.00000000
_symmetry_Int_Tables_number   1
_chemical_formula_structural   RbRe3Br10
_chemical_formula_sum   'Rb4 Re12 Br40'
_cell_volume   1835.67686522
_cell_formula_units_Z   4
loop_
 _symmetry_equiv_pos_site_id
 _symmetry_equiv_pos_as_xyz
  1  'x, y, z'
loop_
 _atom_site_type_symbol
 _atom_site_label
 _atom_site_symmetry_multiplicity
 _atom_site_fract_x
 _atom_site_fract_y
 _atom_site_fract_z
 _atom_site_occupancy
  Rb  Rb0  1  0.50000000  0.71094600  0.00000000  1
  Rb  Rb1  1  0.50000000  0.28905400  0.00000000  1
  Rb  Rb2  1  0.00000000  0.21094600  0.00000000  1
  Rb  Rb3  1  0.00000000  0.78905400  0.00000000  1
  Re  Re4  1  0.70224250  0.88921550  0.37332800  1
  Re  Re5  1  0.29775750  0.88921550  0.62667200  1
  Re  Re6  1  0.70224250  0.11078450  0.37332800  1
  Re  Re7  1  0.29775750  0.11078450  0.62667200  1
  Re  Re8  1  0.76164700  0.00000000  0.19397500  1
  Re  Re9  1  0.23835300  0.00000000  0.80602500  1
  Re  Re10  1  0.20224250  0.38921550  0.37332800  1
  Re  Re11  1  0.79775750  0.38921550  0.62667200  1
  Re  Re12  1  0.20224250  0.61078450  0.37332800  1
  Re  Re13  1  0.79775750  0.61078450  0.62667200  1
  Re  Re14  1  0.26164700  0.50000000  0.19397500  1
  Re  Re15  1  0.73835300  0.50000000  0.80602500  1
  Br  Br16  1  0.55419850  0.15580950  0.29962800  1
  Br  Br17  1  0.08243600  0.00000000  0.73795800  1
  Br  Br18  1  0.91756400  0.00000000  0.26204200  1
  Br  Br19  1  0.83884700  0.00000000  0.96564600  1
  Br  Br20  1  0.23918900  0.23167100  0.81048500  1
  Br  Br21  1  0.16350700  0.83878900  0.49682200  1
  Br  Br22  1  0.44580150  0.84419050  0.70037200  1
  Br  Br23  1  0.64351800  0.00000000  0.56331400  1
  Br  Br24  1  0.83649300  0.83878900  0.50317800  1
  Br  Br25  1  0.76081100  0.76832900  0.18951500  1
  Br  Br26  1  0.44580150  0.15580950  0.70037200  1
  Br  Br27  1  0.55419850  0.84419050  0.29962800  1
  Br  Br28  1  0.36731700  0.00000000  0.95415500  1
  Br  Br29  1  0.23918900  0.76832900  0.81048500  1
  Br  Br30  1  0.16115300  0.00000000  0.03435400  1
  Br  Br31  1  0.16350700  0.16121100  0.49682200  1
  Br  Br32  1  0.63268300  0.00000000  0.04584500  1
  Br  Br33  1  0.76081100  0.23167100  0.18951500  1
  Br  Br34  1  0.35648200  0.00000000  0.43668600  1
  Br  Br35  1  0.83649300  0.16121100  0.50317800  1
  Br  Br36  1  0.05419850  0.65580950  0.29962800  1
  Br  Br37  1  0.58243600  0.50000000  0.73795800  1
  Br  Br38  1  0.41756400  0.50000000  0.26204200  1
  Br  Br39  1  0.33884700  0.50000000  0.96564600  1
  Br  Br40  1  0.73918900  0.73167100  0.81048500  1
  Br  Br41  1  0.66350700  0.33878900  0.49682200  1
  Br  Br42  1  0.94580150  0.34419050  0.70037200  1
  Br  Br43  1  0.14351800  0.50000000  0.56331400  1
  Br  Br44  1  0.33649300  0.33878900  0.50317800  1
  Br  Br45  1  0.26081100  0.26832900  0.18951500  1
  Br  Br46  1  0.94580150  0.65580950  0.70037200  1
  Br  Br47  1  0.05419850  0.34419050  0.29962800  1
  Br  Br48  1  0.86731700  0.50000000  0.95415500  1
  Br  Br49  1  0.73918900  0.26832900  0.81048500  1
  Br  Br50  1  0.66115300  0.50000000  0.03435400  1
  Br  Br51  1  0.66350700  0.66121100  0.49682200  1
  Br  Br52  1  0.13268300  0.50000000  0.04584500  1
  Br  Br53  1  0.26081100  0.73167100  0.18951500  1
  Br  Br54  1  0.85648200  0.50000000  0.43668600  1
  Br  Br55  1  0.33649300  0.66121100  0.50317800  1
