# generated using pymatgen
data_Cu3SbS3
_symmetry_space_group_name_H-M   'P 1'
_cell_length_a   7.84357100
_cell_length_b   10.26947000
_cell_length_c   13.40463261
_cell_angle_alpha   90.00000000
_cell_angle_beta   90.26614191
_cell_angle_gamma   90.00000000
_symmetry_Int_Tables_number   1
_chemical_formula_structural   Cu3SbS3
_chemical_formula_sum   'Cu24 Sb8 S24'
_cell_volume   1079.72235417
_cell_formula_units_Z   8
loop_
 _symmetry_equiv_pos_site_id
 _symmetry_equiv_pos_as_xyz
  1  'x, y, z'
loop_
 _atom_site_type_symbol
 _atom_site_label
 _atom_site_symmetry_multiplicity
 _atom_site_fract_x
 _atom_site_fract_y
 _atom_site_fract_z
 _atom_site_occupancy
  Cu  Cu0  1  0.80501900  0.59764100  0.91940500  1
  Cu  Cu1  1  0.30710400  0.89581300  0.82990400  1
  Cu  Cu2  1  0.06136000  0.03946100  0.13542000  1
  Cu  Cu3  1  0.15747200  0.90210200  0.29819300  1
  Cu  Cu4  1  0.06136000  0.46053900  0.63542000  1
  Cu  Cu5  1  0.93864000  0.96053900  0.86458000  1
  Cu  Cu6  1  0.80501900  0.90235900  0.41940500  1
  Cu  Cu7  1  0.56550100  0.47093400  0.10083900  1
  Cu  Cu8  1  0.69289600  0.39581300  0.67009600  1
  Cu  Cu9  1  0.93864000  0.53946100  0.36458000  1
  Cu  Cu10  1  0.84252800  0.09789800  0.70180700  1
  Cu  Cu11  1  0.65122100  0.60109100  0.45240100  1
  Cu  Cu12  1  0.43449900  0.97093400  0.39916100  1
  Cu  Cu13  1  0.34877900  0.39890900  0.54759900  1
  Cu  Cu14  1  0.84252800  0.40210200  0.20180700  1
  Cu  Cu15  1  0.43449900  0.52906600  0.89916100  1
  Cu  Cu16  1  0.34877900  0.10109100  0.04759900  1
  Cu  Cu17  1  0.19498100  0.09764100  0.58059500  1
  Cu  Cu18  1  0.56550100  0.02906600  0.60083900  1
  Cu  Cu19  1  0.19498100  0.40235900  0.08059500  1
  Cu  Cu20  1  0.30710400  0.60418700  0.32990400  1
  Cu  Cu21  1  0.15747200  0.59789800  0.79819300  1
  Cu  Cu22  1  0.69289600  0.10418700  0.17009600  1
  Cu  Cu23  1  0.65122100  0.89890900  0.95240100  1
  Sb  Sb24  1  0.21343800  0.75493800  0.55524400  1
  Sb  Sb25  1  0.71698900  0.74715500  0.69553300  1
  Sb  Sb26  1  0.78656200  0.25493800  0.94475600  1
  Sb  Sb27  1  0.28301100  0.25284500  0.30446700  1
  Sb  Sb28  1  0.21343800  0.74506200  0.05524400  1
  Sb  Sb29  1  0.28301100  0.24715500  0.80446700  1
  Sb  Sb30  1  0.71698900  0.75284500  0.19553300  1
  Sb  Sb31  1  0.78656200  0.24506200  0.44475600  1
  S  S32  1  0.94921800  0.75499000  0.32676500  1
  S  S33  1  0.81786100  0.56606400  0.58822200  1
  S  S34  1  0.31730200  0.93040300  0.15932800  1
  S  S35  1  0.55442600  0.25010500  0.07393100  1
  S  S36  1  0.55442600  0.24989500  0.57393100  1
  S  S37  1  0.82623700  0.56999900  0.08742700  1
  S  S38  1  0.18213900  0.43393600  0.41177800  1
  S  S39  1  0.81786100  0.93393600  0.08822200  1
  S  S40  1  0.17376300  0.43000100  0.91257300  1
  S  S41  1  0.67054400  0.06653700  0.33564000  1
  S  S42  1  0.17376300  0.06999900  0.41257300  1
  S  S43  1  0.32945600  0.56653700  0.16436000  1
  S  S44  1  0.67054400  0.43346300  0.83564000  1
  S  S45  1  0.68269800  0.43040300  0.34067200  1
  S  S46  1  0.18213900  0.06606400  0.91177800  1
  S  S47  1  0.82623700  0.93000100  0.58742700  1
  S  S48  1  0.05078200  0.25499000  0.17323500  1
  S  S49  1  0.44557400  0.74989500  0.92606900  1
  S  S50  1  0.44557400  0.75010500  0.42606900  1
  S  S51  1  0.05078200  0.24501000  0.67323500  1
  S  S52  1  0.31730200  0.56959700  0.65932800  1
  S  S53  1  0.32945600  0.93346300  0.66436000  1
  S  S54  1  0.94921800  0.74501000  0.82676500  1
  S  S55  1  0.68269800  0.06959700  0.84067200  1
