# generated using pymatgen
data_NaBe2BO3F2
_symmetry_space_group_name_H-M   'P 1'
_cell_length_a   12.86658400
_cell_length_b   8.76624600
_cell_length_c   7.64204371
_cell_angle_alpha   90.00000000
_cell_angle_beta   113.33540827
_cell_angle_gamma   90.00000000
_symmetry_Int_Tables_number   1
_chemical_formula_structural   NaBe2BO3F2
_chemical_formula_sum   'Na8 Be16 B8 O24 F16'
_cell_volume   791.45194847
_cell_formula_units_Z   8
loop_
 _symmetry_equiv_pos_site_id
 _symmetry_equiv_pos_as_xyz
  1  'x, y, z'
loop_
 _atom_site_type_symbol
 _atom_site_label
 _atom_site_symmetry_multiplicity
 _atom_site_fract_x
 _atom_site_fract_y
 _atom_site_fract_z
 _atom_site_occupancy
  Na  Na0  1  0.50000000  0.68470000  0.00000000  1
  Na  Na1  1  0.50000000  0.83847900  0.50000000  1
  Na  Na2  1  0.50000000  0.09695400  0.00000000  1
  Na  Na3  1  0.50000000  0.24001300  0.50000000  1
  Na  Na4  1  0.00000000  0.18470000  0.00000000  1
  Na  Na5  1  0.00000000  0.33847900  0.50000000  1
  Na  Na6  1  0.00000000  0.59695400  0.00000000  1
  Na  Na7  1  0.00000000  0.74001300  0.50000000  1
  Be  Be8  1  0.72179400  0.07360400  0.80443800  1
  Be  Be9  1  0.19068600  0.10189900  0.80139700  1
  Be  Be10  1  0.18288750  0.82493350  0.29959700  1
  Be  Be11  1  0.28454850  0.85269050  0.69603700  1
  Be  Be12  1  0.80931400  0.10189900  0.19860300  1
  Be  Be13  1  0.71545150  0.85269050  0.30396300  1
  Be  Be14  1  0.27820600  0.07360400  0.19556200  1
  Be  Be15  1  0.81711250  0.82493350  0.70040300  1
  Be  Be16  1  0.22179400  0.57360400  0.80443800  1
  Be  Be17  1  0.69068600  0.60189900  0.80139700  1
  Be  Be18  1  0.68288750  0.32493350  0.29959700  1
  Be  Be19  1  0.78454850  0.35269050  0.69603700  1
  Be  Be20  1  0.30931400  0.60189900  0.19860300  1
  Be  Be21  1  0.21545150  0.35269050  0.30396300  1
  Be  Be22  1  0.77820600  0.57360400  0.19556200  1
  Be  Be23  1  0.31711250  0.32493350  0.70040300  1
  B  B24  1  0.78497450  0.09076250  0.52228800  1
  B  B25  1  0.22770050  0.83410250  0.98580800  1
  B  B26  1  0.77229950  0.83410250  0.01419200  1
  B  B27  1  0.21502550  0.09076250  0.47771200  1
  B  B28  1  0.28497450  0.59076250  0.52228800  1
  B  B29  1  0.72770050  0.33410250  0.98580800  1
  B  B30  1  0.27229950  0.33410250  0.01419200  1
  B  B31  1  0.71502550  0.59076250  0.47771200  1
  O  O32  1  0.27739100  0.25271800  0.86316300  1
  O  O33  1  0.26544000  0.74658700  0.50851400  1
  O  O34  1  0.72260900  0.25271800  0.13683700  1
  O  O35  1  0.26187850  0.25784350  0.16443200  1
  O  O36  1  0.21069800  0.01138100  0.63063200  1
  O  O37  1  0.73456000  0.74658700  0.49148600  1
  O  O38  1  0.78930200  0.01138100  0.36936800  1
  O  O39  1  0.20453550  0.01200350  0.31522300  1
  O  O40  1  0.77292350  0.99079750  0.01240800  1
  O  O41  1  0.73812150  0.25784350  0.83556800  1
  O  O42  1  0.79546450  0.01200350  0.68477700  1
  O  O43  1  0.22707650  0.99079750  0.98759200  1
  O  O44  1  0.77739100  0.75271800  0.86316300  1
  O  O45  1  0.76544000  0.24658700  0.50851400  1
  O  O46  1  0.22260900  0.75271800  0.13683700  1
  O  O47  1  0.76187850  0.75784350  0.16443200  1
  O  O48  1  0.71069800  0.51138100  0.63063200  1
  O  O49  1  0.23456000  0.24658700  0.49148600  1
  O  O50  1  0.28930200  0.51138100  0.36936800  1
  O  O51  1  0.70453550  0.51200350  0.31522300  1
  O  O52  1  0.27292350  0.49079750  0.01240800  1
  O  O53  1  0.23812150  0.75784350  0.83556800  1
  O  O54  1  0.29546450  0.51200350  0.68477700  1
  O  O55  1  0.72707650  0.49079750  0.98759200  1
  F  F56  1  0.58905450  0.88931550  0.19430400  1
  F  F57  1  0.41094550  0.88931550  0.80569600  1
  F  F58  1  0.43207200  0.65800200  0.25423100  1
  F  F59  1  0.59564600  0.03821100  0.69024200  1
  F  F60  1  0.44168350  0.28302550  0.74639100  1
  F  F61  1  0.55831650  0.28302550  0.25360900  1
  F  F62  1  0.40435400  0.03821100  0.30975800  1
  F  F63  1  0.56792800  0.65800200  0.74576900  1
  F  F64  1  0.08905450  0.38931550  0.19430400  1
  F  F65  1  0.91094550  0.38931550  0.80569600  1
  F  F66  1  0.93207200  0.15800200  0.25423100  1
  F  F67  1  0.09564600  0.53821100  0.69024200  1
  F  F68  1  0.94168350  0.78302550  0.74639100  1
  F  F69  1  0.05831650  0.78302550  0.25360900  1
  F  F70  1  0.90435400  0.53821100  0.30975800  1
  F  F71  1  0.06792800  0.15800200  0.74576900  1
