# generated using pymatgen
data_BeCl2
_symmetry_space_group_name_H-M   'P 1'
_cell_length_a   19.78871400
_cell_length_b   19.78871400
_cell_length_c   19.78871400
_cell_angle_alpha   90.00000000
_cell_angle_beta   90.00000000
_cell_angle_gamma   90.00000000
_symmetry_Int_Tables_number   1
_chemical_formula_structural   BeCl2
_chemical_formula_sum   'Be48 Cl96'
_cell_volume   7749.12587425
_cell_formula_units_Z   48
loop_
 _symmetry_equiv_pos_site_id
 _symmetry_equiv_pos_as_xyz
  1  'x, y, z'
loop_
 _atom_site_type_symbol
 _atom_site_label
 _atom_site_symmetry_multiplicity
 _atom_site_fract_x
 _atom_site_fract_y
 _atom_site_fract_z
 _atom_site_occupancy
  Be  Be0  1  0.93243250  0.45237450  0.19159550  1
  Be  Be1  1  0.43243250  0.30840450  0.04762550  1
  Be  Be2  1  0.45237450  0.93243250  0.19159550  1
  Be  Be3  1  0.30840450  0.04762550  0.43243250  1
  Be  Be4  1  0.06756750  0.54762550  0.19159550  1
  Be  Be5  1  0.93243250  0.19159550  0.45237450  1
  Be  Be6  1  0.56756750  0.30840450  0.95237450  1
  Be  Be7  1  0.45237450  0.19159550  0.93243250  1
  Be  Be8  1  0.30840450  0.95237450  0.56756750  1
  Be  Be9  1  0.30840450  0.56756750  0.95237450  1
  Be  Be10  1  0.54762550  0.06756750  0.19159550  1
  Be  Be11  1  0.04762550  0.43243250  0.30840450  1
  Be  Be12  1  0.54762550  0.19159550  0.06756750  1
  Be  Be13  1  0.19159550  0.93243250  0.45237450  1
  Be  Be14  1  0.56756750  0.95237450  0.30840450  1
  Be  Be15  1  0.95237450  0.30840450  0.56756750  1
  Be  Be16  1  0.43243250  0.04762550  0.30840450  1
  Be  Be17  1  0.06756750  0.19159550  0.54762550  1
  Be  Be18  1  0.19159550  0.45237450  0.93243250  1
  Be  Be19  1  0.95237450  0.56756750  0.30840450  1
  Be  Be20  1  0.19159550  0.06756750  0.54762550  1
  Be  Be21  1  0.30840450  0.43243250  0.04762550  1
  Be  Be22  1  0.19159550  0.54762550  0.06756750  1
  Be  Be23  1  0.04762550  0.30840450  0.43243250  1
  Be  Be24  1  0.43243250  0.95237450  0.69159550  1
  Be  Be25  1  0.93243250  0.80840450  0.54762550  1
  Be  Be26  1  0.95237450  0.43243250  0.69159550  1
  Be  Be27  1  0.80840450  0.54762550  0.93243250  1
  Be  Be28  1  0.56756750  0.04762550  0.69159550  1
  Be  Be29  1  0.43243250  0.69159550  0.95237450  1
  Be  Be30  1  0.06756750  0.80840450  0.45237450  1
  Be  Be31  1  0.95237450  0.69159550  0.43243250  1
  Be  Be32  1  0.80840450  0.45237450  0.06756750  1
  Be  Be33  1  0.80840450  0.06756750  0.45237450  1
  Be  Be34  1  0.04762550  0.56756750  0.69159550  1
  Be  Be35  1  0.54762550  0.93243250  0.80840450  1
  Be  Be36  1  0.04762550  0.69159550  0.56756750  1
  Be  Be37  1  0.69159550  0.43243250  0.95237450  1
  Be  Be38  1  0.06756750  0.45237450  0.80840450  1
  Be  Be39  1  0.45237450  0.80840450  0.06756750  1
  Be  Be40  1  0.93243250  0.54762550  0.80840450  1
  Be  Be41  1  0.56756750  0.69159550  0.04762550  1
  Be  Be42  1  0.69159550  0.95237450  0.43243250  1
  Be  Be43  1  0.45237450  0.06756750  0.80840450  1
  Be  Be44  1  0.69159550  0.56756750  0.04762550  1
  Be  Be45  1  0.80840450  0.93243250  0.54762550  1
  Be  Be46  1  0.69159550  0.04762550  0.56756750  1
  Be  Be47  1  0.54762550  0.80840450  0.93243250  1
  Cl  Cl48  1  0.50000000  0.13045400  0.00000000  1
  Cl  Cl49  1  0.51999150  0.25024850  0.88176850  1
  Cl  Cl50  1  0.38176850  0.24975150  0.98000850  1
  Cl  Cl51  1  0.48000850  0.11823150  0.25024850  1
  Cl  Cl52  1  0.00000000  0.50000000  0.36954600  1
  Cl  Cl53  1  0.39841850  0.13451750  0.86548250  1
  Cl  Cl54  1  0.10158150  0.36548250  0.36548250  1
  Cl  Cl55  1  0.86548250  0.39841850  0.13451750  1
  Cl  Cl56  1  0.38176850  0.98000850  0.24975150  1
  Cl  Cl57  1  0.98000850  0.38176850  0.24975150  1
  Cl  Cl58  1  0.13451750  0.86548250  0.39841850  1
  Cl  Cl59  1  0.51999150  0.88176850  0.25024850  1
  Cl  Cl60  1  0.36548250  0.10158150  0.36548250  1
  Cl  Cl61  1  0.24975150  0.98000850  0.38176850  1
  Cl  Cl62  1  0.61823150  0.01999150  0.24975150  1
  Cl  Cl63  1  0.60158150  0.13451750  0.13451750  1
  Cl  Cl64  1  0.25024850  0.51999150  0.88176850  1
  Cl  Cl65  1  0.13045400  0.00000000  0.50000000  1
  Cl  Cl66  1  0.86548250  0.13451750  0.39841850  1
  Cl  Cl67  1  0.61823150  0.24975150  0.01999150  1
  Cl  Cl68  1  0.88176850  0.51999150  0.25024850  1
  Cl  Cl69  1  0.00000000  0.36954600  0.50000000  1
  Cl  Cl70  1  0.00000000  0.50000000  0.13045400  1
  Cl  Cl71  1  0.98000850  0.24975150  0.38176850  1
  Cl  Cl72  1  0.13451750  0.39841850  0.86548250  1
  Cl  Cl73  1  0.25024850  0.48000850  0.11823150  1
  Cl  Cl74  1  0.36954600  0.50000000  0.00000000  1
  Cl  Cl75  1  0.48000850  0.25024850  0.11823150  1
  Cl  Cl76  1  0.36954600  0.00000000  0.50000000  1
  Cl  Cl77  1  0.24975150  0.38176850  0.98000850  1
  Cl  Cl78  1  0.11823150  0.48000850  0.25024850  1
  Cl  Cl79  1  0.50000000  0.36954600  0.00000000  1
  Cl  Cl80  1  0.01999150  0.24975150  0.61823150  1
  Cl  Cl81  1  0.00000000  0.13045400  0.50000000  1
  Cl  Cl82  1  0.39841850  0.86548250  0.13451750  1
  Cl  Cl83  1  0.13451750  0.60158150  0.13451750  1
  Cl  Cl84  1  0.88176850  0.25024850  0.51999150  1
  Cl  Cl85  1  0.24975150  0.01999150  0.61823150  1
  Cl  Cl86  1  0.13045400  0.50000000  0.00000000  1
  Cl  Cl87  1  0.25024850  0.88176850  0.51999150  1
  Cl  Cl88  1  0.01999150  0.61823150  0.24975150  1
  Cl  Cl89  1  0.50000000  0.00000000  0.13045400  1
  Cl  Cl90  1  0.36548250  0.36548250  0.10158150  1
  Cl  Cl91  1  0.25024850  0.11823150  0.48000850  1
  Cl  Cl92  1  0.13451750  0.13451750  0.60158150  1
  Cl  Cl93  1  0.24975150  0.61823150  0.01999150  1
  Cl  Cl94  1  0.11823150  0.25024850  0.48000850  1
  Cl  Cl95  1  0.50000000  0.00000000  0.36954600  1
  Cl  Cl96  1  0.00000000  0.63045400  0.50000000  1
  Cl  Cl97  1  0.01999150  0.75024850  0.38176850  1
  Cl  Cl98  1  0.88176850  0.74975150  0.48000850  1
  Cl  Cl99  1  0.98000850  0.61823150  0.75024850  1
  Cl  Cl100  1  0.50000000  0.00000000  0.86954600  1
  Cl  Cl101  1  0.89841850  0.63451750  0.36548250  1
  Cl  Cl102  1  0.60158150  0.86548250  0.86548250  1
  Cl  Cl103  1  0.36548250  0.89841850  0.63451750  1
  Cl  Cl104  1  0.88176850  0.48000850  0.74975150  1
  Cl  Cl105  1  0.48000850  0.88176850  0.74975150  1
  Cl  Cl106  1  0.63451750  0.36548250  0.89841850  1
  Cl  Cl107  1  0.01999150  0.38176850  0.75024850  1
  Cl  Cl108  1  0.86548250  0.60158150  0.86548250  1
  Cl  Cl109  1  0.74975150  0.48000850  0.88176850  1
  Cl  Cl110  1  0.11823150  0.51999150  0.74975150  1
  Cl  Cl111  1  0.10158150  0.63451750  0.63451750  1
  Cl  Cl112  1  0.75024850  0.01999150  0.38176850  1
  Cl  Cl113  1  0.63045400  0.50000000  0.00000000  1
  Cl  Cl114  1  0.36548250  0.63451750  0.89841850  1
  Cl  Cl115  1  0.11823150  0.74975150  0.51999150  1
  Cl  Cl116  1  0.38176850  0.01999150  0.75024850  1
  Cl  Cl117  1  0.50000000  0.86954600  0.00000000  1
  Cl  Cl118  1  0.50000000  0.00000000  0.63045400  1
  Cl  Cl119  1  0.48000850  0.74975150  0.88176850  1
  Cl  Cl120  1  0.63451750  0.89841850  0.36548250  1
  Cl  Cl121  1  0.75024850  0.98000850  0.61823150  1
  Cl  Cl122  1  0.86954600  0.00000000  0.50000000  1
  Cl  Cl123  1  0.98000850  0.75024850  0.61823150  1
  Cl  Cl124  1  0.86954600  0.50000000  0.00000000  1
  Cl  Cl125  1  0.74975150  0.88176850  0.48000850  1
  Cl  Cl126  1  0.61823150  0.98000850  0.75024850  1
  Cl  Cl127  1  0.00000000  0.86954600  0.50000000  1
  Cl  Cl128  1  0.51999150  0.74975150  0.11823150  1
  Cl  Cl129  1  0.50000000  0.63045400  0.00000000  1
  Cl  Cl130  1  0.89841850  0.36548250  0.63451750  1
  Cl  Cl131  1  0.63451750  0.10158150  0.63451750  1
  Cl  Cl132  1  0.38176850  0.75024850  0.01999150  1
  Cl  Cl133  1  0.74975150  0.51999150  0.11823150  1
  Cl  Cl134  1  0.63045400  0.00000000  0.50000000  1
  Cl  Cl135  1  0.75024850  0.38176850  0.01999150  1
  Cl  Cl136  1  0.51999150  0.11823150  0.74975150  1
  Cl  Cl137  1  0.00000000  0.50000000  0.63045400  1
  Cl  Cl138  1  0.86548250  0.86548250  0.60158150  1
  Cl  Cl139  1  0.75024850  0.61823150  0.98000850  1
  Cl  Cl140  1  0.63451750  0.63451750  0.10158150  1
  Cl  Cl141  1  0.74975150  0.11823150  0.51999150  1
  Cl  Cl142  1  0.61823150  0.75024850  0.98000850  1
  Cl  Cl143  1  0.00000000  0.50000000  0.86954600  1
