# generated using pymatgen
data_Ba3La2C5O15F2
_symmetry_space_group_name_H-M   'P 1'
_cell_length_a   21.70919000
_cell_length_b   5.16351800
_cell_length_c   13.45679931
_cell_angle_alpha   90.00000000
_cell_angle_beta   94.79319807
_cell_angle_gamma   90.00000000
_symmetry_Int_Tables_number   1
_chemical_formula_structural   Ba3La2C5O15F2
_chemical_formula_sum   'Ba12 La8 C20 O60 F8'
_cell_volume   1503.17521946
_cell_formula_units_Z   4
loop_
 _symmetry_equiv_pos_site_id
 _symmetry_equiv_pos_as_xyz
  1  'x, y, z'
loop_
 _atom_site_type_symbol
 _atom_site_label
 _atom_site_symmetry_multiplicity
 _atom_site_fract_x
 _atom_site_fract_y
 _atom_site_fract_z
 _atom_site_occupancy
  Ba  Ba0  1  0.68629100  0.00000000  0.09535400  1
  Ba  Ba1  1  0.00000000  0.00000000  0.00000000  1
  Ba  Ba2  1  0.81370900  0.50000000  0.90464600  1
  Ba  Ba3  1  0.69244700  0.50000000  0.60001300  1
  Ba  Ba4  1  0.80755300  0.00000000  0.39998700  1
  Ba  Ba5  1  0.00000000  0.50000000  0.50000000  1
  Ba  Ba6  1  0.18629100  0.50000000  0.09535400  1
  Ba  Ba7  1  0.50000000  0.50000000  0.00000000  1
  Ba  Ba8  1  0.31370900  0.00000000  0.90464600  1
  Ba  Ba9  1  0.19244700  0.00000000  0.60001300  1
  Ba  Ba10  1  0.30755300  0.50000000  0.39998700  1
  Ba  Ba11  1  0.50000000  0.00000000  0.50000000  1
  La  La12  1  0.60560700  0.50000000  0.28815100  1
  La  La13  1  0.89439300  0.00000000  0.71184900  1
  La  La14  1  0.60003600  0.00000000  0.81493700  1
  La  La15  1  0.89996400  0.50000000  0.18506300  1
  La  La16  1  0.10560700  0.00000000  0.28815100  1
  La  La17  1  0.39439300  0.50000000  0.71184900  1
  La  La18  1  0.10003600  0.50000000  0.81493700  1
  La  La19  1  0.39996400  0.00000000  0.18506300  1
  C  C20  1  0.54148000  0.00000000  0.19989400  1
  C  C21  1  0.54817500  0.50000000  0.64622600  1
  C  C22  1  0.74637900  0.50000000  0.27516900  1
  C  C23  1  0.65033800  0.00000000  0.46008200  1
  C  C24  1  0.95182500  0.00000000  0.35377400  1
  C  C25  1  0.95852000  0.50000000  0.80010600  1
  C  C26  1  0.84966200  0.50000000  0.53991800  1
  C  C27  1  0.66091400  0.50000000  0.90291800  1
  C  C28  1  0.83908600  0.00000000  0.09708200  1
  C  C29  1  0.75362100  0.00000000  0.72483100  1
  C  C30  1  0.04148000  0.50000000  0.19989400  1
  C  C31  1  0.04817500  0.00000000  0.64622600  1
  C  C32  1  0.24637900  0.00000000  0.27516900  1
  C  C33  1  0.15033800  0.50000000  0.46008200  1
  C  C34  1  0.45182500  0.50000000  0.35377400  1
  C  C35  1  0.45852000  0.00000000  0.80010600  1
  C  C36  1  0.34966200  0.00000000  0.53991800  1
  C  C37  1  0.16091400  0.00000000  0.90291800  1
  C  C38  1  0.33908600  0.50000000  0.09708200  1
  C  C39  1  0.25362100  0.50000000  0.72483100  1
  O  O40  1  0.78434800  0.21626900  0.72484500  1
  O  O41  1  0.79442000  0.50000000  0.49657100  1
  O  O42  1  0.71565200  0.28373100  0.27515500  1
  O  O43  1  0.99028800  0.00000000  0.61398700  1
  O  O44  1  0.89721400  0.00000000  0.13132300  1
  O  O45  1  0.98743100  0.71781300  0.81386700  1
  O  O46  1  0.90058300  0.50000000  0.76645500  1
  O  O47  1  0.57774200  0.28192000  0.65889300  1
  O  O48  1  0.98743100  0.28218700  0.81386700  1
  O  O49  1  0.57774200  0.71808000  0.65889300  1
  O  O50  1  0.62138200  0.21770200  0.44108200  1
  O  O51  1  0.71565200  0.71626900  0.27515500  1
  O  O52  1  0.92225800  0.21808000  0.34110700  1
  O  O53  1  0.87861800  0.28229800  0.55891800  1
  O  O54  1  0.60278600  0.50000000  0.86867700  1
  O  O55  1  0.81062150  0.78103350  0.08315600  1
  O  O56  1  0.51256900  0.78218700  0.18613300  1
  O  O57  1  0.68937850  0.71896650  0.91684400  1
  O  O58  1  0.87861800  0.71770200  0.55891800  1
  O  O59  1  0.50971200  0.50000000  0.38601300  1
  O  O60  1  0.80605900  0.50000000  0.27982100  1
  O  O61  1  0.51256900  0.21781300  0.18613300  1
  O  O62  1  0.59941700  0.00000000  0.23354500  1
  O  O63  1  0.70558000  0.00000000  0.50342900  1
  O  O64  1  0.92225800  0.78192000  0.34110700  1
  O  O65  1  0.78434800  0.78373100  0.72484500  1
  O  O66  1  0.68937850  0.28103350  0.91684400  1
  O  O67  1  0.62138200  0.78229800  0.44108200  1
  O  O68  1  0.69394100  0.00000000  0.72017900  1
  O  O69  1  0.81062150  0.21896650  0.08315600  1
  O  O70  1  0.28434800  0.71626900  0.72484500  1
  O  O71  1  0.29442000  0.00000000  0.49657100  1
  O  O72  1  0.21565200  0.78373100  0.27515500  1
  O  O73  1  0.49028800  0.50000000  0.61398700  1
  O  O74  1  0.39721400  0.50000000  0.13132300  1
  O  O75  1  0.48743100  0.21781300  0.81386700  1
  O  O76  1  0.40058300  0.00000000  0.76645500  1
  O  O77  1  0.07774200  0.78192000  0.65889300  1
  O  O78  1  0.48743100  0.78218700  0.81386700  1
  O  O79  1  0.07774200  0.21808000  0.65889300  1
  O  O80  1  0.12138200  0.71770200  0.44108200  1
  O  O81  1  0.21565200  0.21626900  0.27515500  1
  O  O82  1  0.42225800  0.71808000  0.34110700  1
  O  O83  1  0.37861800  0.78229800  0.55891800  1
  O  O84  1  0.10278600  0.00000000  0.86867700  1
  O  O85  1  0.31062150  0.28103350  0.08315600  1
  O  O86  1  0.01256900  0.28218700  0.18613300  1
  O  O87  1  0.18937850  0.21896650  0.91684400  1
  O  O88  1  0.37861800  0.21770200  0.55891800  1
  O  O89  1  0.00971200  0.00000000  0.38601300  1
  O  O90  1  0.30605900  0.00000000  0.27982100  1
  O  O91  1  0.01256900  0.71781300  0.18613300  1
  O  O92  1  0.09941700  0.50000000  0.23354500  1
  O  O93  1  0.20558000  0.50000000  0.50342900  1
  O  O94  1  0.42225800  0.28192000  0.34110700  1
  O  O95  1  0.28434800  0.28373100  0.72484500  1
  O  O96  1  0.18937850  0.78103350  0.91684400  1
  O  O97  1  0.12138200  0.28229800  0.44108200  1
  O  O98  1  0.19394100  0.50000000  0.72017900  1
  O  O99  1  0.31062150  0.71896650  0.08315600  1
  F  F100  1  0.57362600  0.00000000  0.98335700  1
  F  F101  1  0.62533600  0.50000000  0.11456700  1
  F  F102  1  0.92637400  0.50000000  0.01664300  1
  F  F103  1  0.87466400  0.00000000  0.88543300  1
  F  F104  1  0.07362600  0.50000000  0.98335700  1
  F  F105  1  0.12533600  0.00000000  0.11456700  1
  F  F106  1  0.42637400  0.00000000  0.01664300  1
  F  F107  1  0.37466400  0.50000000  0.88543300  1
