# generated using pymatgen
data_NbSe2SN2ClF6
_symmetry_space_group_name_H-M   'P 1'
_cell_length_a   10.67769700
_cell_length_b   8.54365700
_cell_length_c   13.71642766
_cell_angle_alpha   90.00000000
_cell_angle_beta   119.24295809
_cell_angle_gamma   90.00000000
_symmetry_Int_Tables_number   1
_chemical_formula_structural   NbSe2SN2ClF6
_chemical_formula_sum   'Nb4 Se8 S4 N8 Cl4 F24'
_cell_volume   1091.83182979
_cell_formula_units_Z   4
loop_
 _symmetry_equiv_pos_site_id
 _symmetry_equiv_pos_as_xyz
  1  'x, y, z'
loop_
 _atom_site_type_symbol
 _atom_site_label
 _atom_site_symmetry_multiplicity
 _atom_site_fract_x
 _atom_site_fract_y
 _atom_site_fract_z
 _atom_site_occupancy
  Nb  Nb0  1  0.76496100  0.80889000  0.67789200  1
  Nb  Nb1  1  0.23503900  0.19111000  0.32210800  1
  Nb  Nb2  1  0.23503900  0.30889000  0.82210800  1
  Nb  Nb3  1  0.76496100  0.69111000  0.17789200  1
  Se  Se4  1  0.30162100  0.82316500  0.02265000  1
  Se  Se5  1  0.31917000  0.90419100  0.63597700  1
  Se  Se6  1  0.68083000  0.40419100  0.86402300  1
  Se  Se7  1  0.69837900  0.32316500  0.47735000  1
  Se  Se8  1  0.30162100  0.67683500  0.52265000  1
  Se  Se9  1  0.68083000  0.09580900  0.36402300  1
  Se  Se10  1  0.31917000  0.59580900  0.13597700  1
  Se  Se11  1  0.69837900  0.17683500  0.97735000  1
  S  S12  1  0.05099400  0.77068200  0.04995400  1
  S  S13  1  0.94900600  0.27068200  0.45004600  1
  S  S14  1  0.05099400  0.72931800  0.54995400  1
  S  S15  1  0.94900600  0.22931800  0.95004600  1
  N  N16  1  0.14009600  0.88171100  0.61099000  1
  N  N17  1  0.87063800  0.37590500  0.49603200  1
  N  N18  1  0.85990400  0.11828900  0.38901000  1
  N  N19  1  0.14009600  0.61828900  0.11099000  1
  N  N20  1  0.87063800  0.12409500  0.99603200  1
  N  N21  1  0.85990400  0.38171100  0.88901000  1
  N  N22  1  0.12936200  0.62409500  0.50396800  1
  N  N23  1  0.12936200  0.87590500  0.00396800  1
  Cl  Cl24  1  0.54747400  0.18770800  0.18696500  1
  Cl  Cl25  1  0.54747400  0.31229200  0.68696500  1
  Cl  Cl26  1  0.45252600  0.68770800  0.31303500  1
  Cl  Cl27  1  0.45252600  0.81229200  0.81303500  1
  F  F28  1  0.44529500  0.34670600  0.89764000  1
  F  F29  1  0.03402100  0.23664400  0.25131300  1
  F  F30  1  0.20546400  0.51058200  0.75166700  1
  F  F31  1  0.20546400  0.98941800  0.25166700  1
  F  F32  1  0.75292800  0.71481100  0.80148500  1
  F  F33  1  0.22519600  0.40561700  0.94716800  1
  F  F34  1  0.24707200  0.28518900  0.19851500  1
  F  F35  1  0.77480400  0.90561700  0.55283200  1
  F  F36  1  0.71928800  0.60917900  0.60012400  1
  F  F37  1  0.55470500  0.84670600  0.60236000  1
  F  F38  1  0.28071200  0.39082100  0.39987600  1
  F  F39  1  0.03402100  0.26335600  0.75131300  1
  F  F40  1  0.55470500  0.65329400  0.10236000  1
  F  F41  1  0.79453600  0.01058200  0.74833300  1
  F  F42  1  0.71928800  0.89082100  0.10012400  1
  F  F43  1  0.24707200  0.21481100  0.69851500  1
  F  F44  1  0.96597900  0.76335600  0.74868700  1
  F  F45  1  0.44529500  0.15329400  0.39764000  1
  F  F46  1  0.79453600  0.48941800  0.24833300  1
  F  F47  1  0.22519600  0.09438300  0.44716800  1
  F  F48  1  0.28071200  0.10917900  0.89987600  1
  F  F49  1  0.96597900  0.73664400  0.24868700  1
  F  F50  1  0.77480400  0.59438300  0.05283200  1
  F  F51  1  0.75292800  0.78518900  0.30148500  1
