# generated using pymatgen
data_Ba2ZnSi2O7
_symmetry_space_group_name_H-M   'P 1'
_cell_length_a   8.54027800
_cell_length_b   10.88319000
_cell_length_c   8.55184037
_cell_angle_alpha   90.00000000
_cell_angle_beta   110.97142959
_cell_angle_gamma   90.00000000
_symmetry_Int_Tables_number   1
_chemical_formula_structural   Ba2ZnSi2O7
_chemical_formula_sum   'Ba8 Zn4 Si8 O28'
_cell_volume   742.20283747
_cell_formula_units_Z   4
loop_
 _symmetry_equiv_pos_site_id
 _symmetry_equiv_pos_as_xyz
  1  'x, y, z'
loop_
 _atom_site_type_symbol
 _atom_site_label
 _atom_site_symmetry_multiplicity
 _atom_site_fract_x
 _atom_site_fract_y
 _atom_site_fract_z
 _atom_site_occupancy
  Ba  Ba0  1  0.22658500  0.95800700  0.47397100  1
  Ba  Ba1  1  0.22658500  0.04199300  0.97397100  1
  Ba  Ba2  1  0.77341500  0.95800700  0.02602900  1
  Ba  Ba3  1  0.77341500  0.04199300  0.52602900  1
  Ba  Ba4  1  0.72658500  0.45800700  0.47397100  1
  Ba  Ba5  1  0.72658500  0.54199300  0.97397100  1
  Ba  Ba6  1  0.27341500  0.45800700  0.02602900  1
  Ba  Ba7  1  0.27341500  0.54199300  0.52602900  1
  Zn  Zn8  1  0.50000000  0.75845600  0.25000000  1
  Zn  Zn9  1  0.50000000  0.24154400  0.75000000  1
  Zn  Zn10  1  0.00000000  0.25845600  0.25000000  1
  Zn  Zn11  1  0.00000000  0.74154400  0.75000000  1
  Si  Si12  1  0.61382650  0.21857750  0.13724800  1
  Si  Si13  1  0.38617350  0.21857750  0.36275200  1
  Si  Si14  1  0.38617350  0.78142250  0.86275200  1
  Si  Si15  1  0.61382650  0.78142250  0.63724800  1
  Si  Si16  1  0.11382650  0.71857750  0.13724800  1
  Si  Si17  1  0.88617350  0.71857750  0.36275200  1
  Si  Si18  1  0.88617350  0.28142250  0.86275200  1
  Si  Si19  1  0.11382650  0.28142250  0.63724800  1
  O  O20  1  0.47195650  0.14750950  0.54372800  1
  O  O21  1  0.80001950  0.84307550  0.73475100  1
  O  O22  1  0.60905900  0.36744600  0.13257200  1
  O  O23  1  0.39094100  0.36744600  0.36742800  1
  O  O24  1  0.50000000  0.16632800  0.25000000  1
  O  O25  1  0.19998050  0.15692450  0.26524900  1
  O  O26  1  0.50000000  0.83367200  0.75000000  1
  O  O27  1  0.80001950  0.15692450  0.23475100  1
  O  O28  1  0.47195650  0.85249050  0.04372800  1
  O  O29  1  0.39094100  0.63255400  0.86742800  1
  O  O30  1  0.52804350  0.85249050  0.45627200  1
  O  O31  1  0.60905900  0.63255400  0.63257200  1
  O  O32  1  0.19998050  0.84307550  0.76524900  1
  O  O33  1  0.52804350  0.14750950  0.95627200  1
  O  O34  1  0.97195650  0.64750950  0.54372800  1
  O  O35  1  0.30001950  0.34307550  0.73475100  1
  O  O36  1  0.10905900  0.86744600  0.13257200  1
  O  O37  1  0.89094100  0.86744600  0.36742800  1
  O  O38  1  0.00000000  0.66632800  0.25000000  1
  O  O39  1  0.69998050  0.65692450  0.26524900  1
  O  O40  1  0.00000000  0.33367200  0.75000000  1
  O  O41  1  0.30001950  0.65692450  0.23475100  1
  O  O42  1  0.97195650  0.35249050  0.04372800  1
  O  O43  1  0.89094100  0.13255400  0.86742800  1
  O  O44  1  0.02804350  0.35249050  0.45627200  1
  O  O45  1  0.10905900  0.13255400  0.63257200  1
  O  O46  1  0.69998050  0.34307550  0.76524900  1
  O  O47  1  0.02804350  0.64750950  0.95627200  1
