# generated using pymatgen
data_Co2(GeSe)3
_symmetry_space_group_name_H-M   'P 1'
_cell_length_a   11.84179287
_cell_length_b   11.84179287
_cell_length_c   14.52501580
_cell_angle_alpha   90.00000000
_cell_angle_beta   90.00000000
_cell_angle_gamma   120.00000000
_symmetry_Int_Tables_number   1
_chemical_formula_structural   Co2(GeSe)3
_chemical_formula_sum   'Co24 Ge36 Se36'
_cell_volume   1763.93332731
_cell_formula_units_Z   12
loop_
 _symmetry_equiv_pos_site_id
 _symmetry_equiv_pos_as_xyz
  1  'x, y, z'
loop_
 _atom_site_type_symbol
 _atom_site_label
 _atom_site_symmetry_multiplicity
 _atom_site_fract_x
 _atom_site_fract_y
 _atom_site_fract_z
 _atom_site_occupancy
  Co  Co0  1  0.00000000  0.00000000  0.25079200  1
  Co  Co1  1  0.00000000  0.00000000  0.74920800  1
  Co  Co2  1  0.83231767  0.66628133  0.41952433  1
  Co  Co3  1  0.83396367  0.16768233  0.41952433  1
  Co  Co4  1  0.33371867  0.16603633  0.41952433  1
  Co  Co5  1  0.66628133  0.83396367  0.58047567  1
  Co  Co6  1  0.16768233  0.33371867  0.58047567  1
  Co  Co7  1  0.16603633  0.83231767  0.58047567  1
  Co  Co8  1  0.66666667  0.33333333  0.58412533  1
  Co  Co9  1  0.66666667  0.33333333  0.08254133  1
  Co  Co10  1  0.49898433  0.99961467  0.75285767  1
  Co  Co11  1  0.50063033  0.50101567  0.75285767  1
  Co  Co12  1  0.00038533  0.49936967  0.75285767  1
  Co  Co13  1  0.33294800  0.16729700  0.91380900  1
  Co  Co14  1  0.83434900  0.66705200  0.91380900  1
  Co  Co15  1  0.83270300  0.16565100  0.91380900  1
  Co  Co16  1  0.33333333  0.66666667  0.91745867  1
  Co  Co17  1  0.33333333  0.66666667  0.41587467  1
  Co  Co18  1  0.16565100  0.33294800  0.08619100  1
  Co  Co19  1  0.16729700  0.83434900  0.08619100  1
  Co  Co20  1  0.66705200  0.83270300  0.08619100  1
  Co  Co21  1  0.99961467  0.50063033  0.24714233  1
  Co  Co22  1  0.50101567  0.00038533  0.24714233  1
  Co  Co23  1  0.49936967  0.49898433  0.24714233  1
  Ge  Ge24  1  0.60570833  0.72391667  0.72351967  1
  Ge  Ge25  1  0.11820833  0.39429167  0.72351967  1
  Ge  Ge26  1  0.27608333  0.88179167  0.72351967  1
  Ge  Ge27  1  0.39429167  0.27608333  0.27648033  1
  Ge  Ge28  1  0.88179167  0.60570833  0.27648033  1
  Ge  Ge29  1  0.72391667  0.11820833  0.27648033  1
  Ge  Ge30  1  0.16623567  0.16332833  0.66169133  1
  Ge  Ge31  1  0.99709267  0.83376433  0.66169133  1
  Ge  Ge32  1  0.83667167  0.00290733  0.66169133  1
  Ge  Ge33  1  0.83376433  0.83667167  0.33830867  1
  Ge  Ge34  1  0.00290733  0.16623567  0.33830867  1
  Ge  Ge35  1  0.16332833  0.99709267  0.33830867  1
  Ge  Ge36  1  0.27237500  0.05725000  0.05685300  1
  Ge  Ge37  1  0.78487500  0.72762500  0.05685300  1
  Ge  Ge38  1  0.94275000  0.21512500  0.05685300  1
  Ge  Ge39  1  0.06095833  0.60941667  0.60981367  1
  Ge  Ge40  1  0.54845833  0.93904167  0.60981367  1
  Ge  Ge41  1  0.39058333  0.45154167  0.60981367  1
  Ge  Ge42  1  0.83290233  0.49666167  0.99502467  1
  Ge  Ge43  1  0.66375933  0.16709767  0.99502467  1
  Ge  Ge44  1  0.50333833  0.33624067  0.99502467  1
  Ge  Ge45  1  0.50043100  0.17000500  0.67164200  1
  Ge  Ge46  1  0.66957400  0.49956900  0.67164200  1
  Ge  Ge47  1  0.82999500  0.33042600  0.67164200  1
  Ge  Ge48  1  0.93904167  0.39058333  0.39018633  1
  Ge  Ge49  1  0.45154167  0.06095833  0.39018633  1
  Ge  Ge50  1  0.60941667  0.54845833  0.39018633  1
  Ge  Ge51  1  0.72762500  0.94275000  0.94314700  1
  Ge  Ge52  1  0.21512500  0.27237500  0.94314700  1
  Ge  Ge53  1  0.05725000  0.78487500  0.94314700  1
  Ge  Ge54  1  0.49956900  0.82999500  0.32835800  1
  Ge  Ge55  1  0.33042600  0.50043100  0.32835800  1
  Ge  Ge56  1  0.17000500  0.66957400  0.32835800  1
  Ge  Ge57  1  0.16709767  0.50333833  0.00497533  1
  Ge  Ge58  1  0.33624067  0.83290233  0.00497533  1
  Ge  Ge59  1  0.49666167  0.66375933  0.00497533  1
  Se  Se60  1  0.82133033  0.83725567  0.83491267  1
  Se  Se61  1  0.01592533  0.17866967  0.83491267  1
  Se  Se62  1  0.16274433  0.98407467  0.83491267  1
  Se  Se63  1  0.17866967  0.16274433  0.16508733  1
  Se  Se64  1  0.98407467  0.82133033  0.16508733  1
  Se  Se65  1  0.83725567  0.01592533  0.16508733  1
  Se  Se66  1  0.71985700  0.93634400  0.43564100  1
  Se  Se67  1  0.21648700  0.28014300  0.43564100  1
  Se  Se68  1  0.06365600  0.78351300  0.43564100  1
  Se  Se69  1  0.28014300  0.06365600  0.56435900  1
  Se  Se70  1  0.78351300  0.71985700  0.56435900  1
  Se  Se71  1  0.93634400  0.21648700  0.56435900  1
  Se  Se72  1  0.48799700  0.17058900  0.16824600  1
  Se  Se73  1  0.68259200  0.51200300  0.16824600  1
  Se  Se74  1  0.82941100  0.31740800  0.16824600  1
  Se  Se75  1  0.84533633  0.49607767  0.49842067  1
  Se  Se76  1  0.65074133  0.15466367  0.49842067  1
  Se  Se77  1  0.50392233  0.34925867  0.49842067  1
  Se  Se78  1  0.38652367  0.26967733  0.76897433  1
  Se  Se79  1  0.88315367  0.61347633  0.76897433  1
  Se  Se80  1  0.73032267  0.11684633  0.76897433  1
  Se  Se81  1  0.94680967  0.39698933  0.89769233  1
  Se  Se82  1  0.45017967  0.05319033  0.89769233  1
  Se  Se83  1  0.60301067  0.54982033  0.89769233  1
  Se  Se84  1  0.15466367  0.50392233  0.50157933  1
  Se  Se85  1  0.34925867  0.84533633  0.50157933  1
  Se  Se86  1  0.49607767  0.65074133  0.50157933  1
  Se  Se87  1  0.51200300  0.82941100  0.83175400  1
  Se  Se88  1  0.31740800  0.48799700  0.83175400  1
  Se  Se89  1  0.17058900  0.68259200  0.83175400  1
  Se  Se90  1  0.05319033  0.60301067  0.10230767  1
  Se  Se91  1  0.54982033  0.94680967  0.10230767  1
  Se  Se92  1  0.39698933  0.45017967  0.10230767  1
  Se  Se93  1  0.61347633  0.73032267  0.23102567  1
  Se  Se94  1  0.11684633  0.38652367  0.23102567  1
  Se  Se95  1  0.26967733  0.88315367  0.23102567  1
