# generated using pymatgen
data_Ba(BSe3)2
_symmetry_space_group_name_H-M   'P 1'
_cell_length_a   7.78026600
_cell_length_b   11.47643000
_cell_length_c   10.64058500
_cell_angle_alpha   90.00000000
_cell_angle_beta   90.00000000
_cell_angle_gamma   90.00000000
_symmetry_Int_Tables_number   1
_chemical_formula_structural   Ba(BSe3)2
_chemical_formula_sum   'Ba4 B8 Se24'
_cell_volume   950.09440977
_cell_formula_units_Z   4
loop_
 _symmetry_equiv_pos_site_id
 _symmetry_equiv_pos_as_xyz
  1  'x, y, z'
loop_
 _atom_site_type_symbol
 _atom_site_label
 _atom_site_symmetry_multiplicity
 _atom_site_fract_x
 _atom_site_fract_y
 _atom_site_fract_z
 _atom_site_occupancy
  Ba  Ba0  1  0.50000000  0.00000000  0.50000000  1
  Ba  Ba1  1  0.00000000  0.00000000  0.00000000  1
  Ba  Ba2  1  0.00000000  0.50000000  0.50000000  1
  Ba  Ba3  1  0.50000000  0.50000000  0.00000000  1
  B  B4  1  0.50000000  0.88671400  0.00000000  1
  B  B5  1  0.50000000  0.11328600  0.00000000  1
  B  B6  1  0.50000000  0.61328600  0.50000000  1
  B  B7  1  0.50000000  0.38671400  0.50000000  1
  B  B8  1  0.00000000  0.38671400  0.00000000  1
  B  B9  1  0.00000000  0.61328600  0.00000000  1
  B  B10  1  0.00000000  0.11328600  0.50000000  1
  B  B11  1  0.00000000  0.88671400  0.50000000  1
  Se  Se12  1  0.68470000  0.79251400  0.09197500  1
  Se  Se13  1  0.40084900  0.00000000  0.13529100  1
  Se  Se14  1  0.31530000  0.79251400  0.90802500  1
  Se  Se15  1  0.68470000  0.70748600  0.40802500  1
  Se  Se16  1  0.31530000  0.29251400  0.59197500  1
  Se  Se17  1  0.68470000  0.20748600  0.09197500  1
  Se  Se18  1  0.31530000  0.70748600  0.59197500  1
  Se  Se19  1  0.31530000  0.20748600  0.90802500  1
  Se  Se20  1  0.09915100  0.00000000  0.63529100  1
  Se  Se21  1  0.59915100  0.00000000  0.86470900  1
  Se  Se22  1  0.90084900  0.00000000  0.36470900  1
  Se  Se23  1  0.68470000  0.29251400  0.40802500  1
  Se  Se24  1  0.18470000  0.29251400  0.09197500  1
  Se  Se25  1  0.90084900  0.50000000  0.13529100  1
  Se  Se26  1  0.81530000  0.29251400  0.90802500  1
  Se  Se27  1  0.18470000  0.20748600  0.40802500  1
  Se  Se28  1  0.81530000  0.79251400  0.59197500  1
  Se  Se29  1  0.18470000  0.70748600  0.09197500  1
  Se  Se30  1  0.81530000  0.20748600  0.59197500  1
  Se  Se31  1  0.81530000  0.70748600  0.90802500  1
  Se  Se32  1  0.59915100  0.50000000  0.63529100  1
  Se  Se33  1  0.09915100  0.50000000  0.86470900  1
  Se  Se34  1  0.40084900  0.50000000  0.36470900  1
  Se  Se35  1  0.18470000  0.79251400  0.40802500  1
