# generated using pymatgen
data_SiO2
_symmetry_space_group_name_H-M   'P 1'
_cell_length_a   9.88231400
_cell_length_b   20.78237200
_cell_length_c   19.94488100
_cell_angle_alpha   90.00000000
_cell_angle_beta   90.00000000
_cell_angle_gamma   90.00000000
_symmetry_Int_Tables_number   1
_chemical_formula_structural   SiO2
_chemical_formula_sum   'Si64 O128'
_cell_volume   4096.23828949
_cell_formula_units_Z   64
loop_
 _symmetry_equiv_pos_site_id
 _symmetry_equiv_pos_as_xyz
  1  'x, y, z'
loop_
 _atom_site_type_symbol
 _atom_site_label
 _atom_site_symmetry_multiplicity
 _atom_site_fract_x
 _atom_site_fract_y
 _atom_site_fract_z
 _atom_site_occupancy
  Si  Si0  1  0.77401050  0.26586650  0.10886900  1
  Si  Si1  1  0.95915150  0.32106350  0.82825600  1
  Si  Si2  1  0.60276950  0.07644750  0.05950700  1
  Si  Si3  1  0.65434100  0.34703000  0.50662700  1
  Si  Si4  1  0.54084850  0.17893650  0.17174400  1
  Si  Si5  1  0.34565900  0.34703000  0.00662700  1
  Si  Si6  1  0.22598950  0.26586650  0.60886900  1
  Si  Si7  1  0.15434100  0.15297000  0.50662700  1
  Si  Si8  1  0.72598950  0.23413350  0.60886900  1
  Si  Si9  1  0.04084850  0.32106350  0.32825600  1
  Si  Si10  1  0.04084850  0.32106350  0.17174400  1
  Si  Si11  1  0.77401050  0.26586650  0.39113100  1
  Si  Si12  1  0.89723050  0.42355250  0.55950700  1
  Si  Si13  1  0.95915150  0.32106350  0.67174400  1
  Si  Si14  1  0.54084850  0.17893650  0.32825600  1
  Si  Si15  1  0.72598950  0.23413350  0.89113100  1
  Si  Si16  1  0.89723050  0.42355250  0.94049300  1
  Si  Si17  1  0.84565900  0.15297000  0.49337300  1
  Si  Si18  1  0.10276950  0.42355250  0.05950700  1
  Si  Si19  1  0.15434100  0.15297000  0.99337300  1
  Si  Si20  1  0.65434100  0.34703000  0.99337300  1
  Si  Si21  1  0.45915150  0.17893650  0.67174400  1
  Si  Si22  1  0.27401050  0.23413350  0.39113100  1
  Si  Si23  1  0.39723050  0.07644750  0.55950700  1
  Si  Si24  1  0.27401050  0.23413350  0.10886900  1
  Si  Si25  1  0.60276950  0.07644750  0.44049300  1
  Si  Si26  1  0.39723050  0.07644750  0.94049300  1
  Si  Si27  1  0.34565900  0.34703000  0.49337300  1
  Si  Si28  1  0.45915150  0.17893650  0.82825600  1
  Si  Si29  1  0.10276950  0.42355250  0.44049300  1
  Si  Si30  1  0.22598950  0.26586650  0.89113100  1
  Si  Si31  1  0.84565900  0.15297000  0.00662700  1
  Si  Si32  1  0.27401050  0.76586650  0.10886900  1
  Si  Si33  1  0.45915150  0.82106350  0.82825600  1
  Si  Si34  1  0.10276950  0.57644750  0.05950700  1
  Si  Si35  1  0.15434100  0.84703000  0.50662700  1
  Si  Si36  1  0.04084850  0.67893650  0.17174400  1
  Si  Si37  1  0.84565900  0.84703000  0.00662700  1
  Si  Si38  1  0.72598950  0.76586650  0.60886900  1
  Si  Si39  1  0.65434100  0.65297000  0.50662700  1
  Si  Si40  1  0.22598950  0.73413350  0.60886900  1
  Si  Si41  1  0.54084850  0.82106350  0.32825600  1
  Si  Si42  1  0.54084850  0.82106350  0.17174400  1
  Si  Si43  1  0.27401050  0.76586650  0.39113100  1
  Si  Si44  1  0.39723050  0.92355250  0.55950700  1
  Si  Si45  1  0.45915150  0.82106350  0.67174400  1
  Si  Si46  1  0.04084850  0.67893650  0.32825600  1
  Si  Si47  1  0.22598950  0.73413350  0.89113100  1
  Si  Si48  1  0.39723050  0.92355250  0.94049300  1
  Si  Si49  1  0.34565900  0.65297000  0.49337300  1
  Si  Si50  1  0.60276950  0.92355250  0.05950700  1
  Si  Si51  1  0.65434100  0.65297000  0.99337300  1
  Si  Si52  1  0.15434100  0.84703000  0.99337300  1
  Si  Si53  1  0.95915150  0.67893650  0.67174400  1
  Si  Si54  1  0.77401050  0.73413350  0.39113100  1
  Si  Si55  1  0.89723050  0.57644750  0.55950700  1
  Si  Si56  1  0.77401050  0.73413350  0.10886900  1
  Si  Si57  1  0.10276950  0.57644750  0.44049300  1
  Si  Si58  1  0.89723050  0.57644750  0.94049300  1
  Si  Si59  1  0.84565900  0.84703000  0.49337300  1
  Si  Si60  1  0.95915150  0.67893650  0.82825600  1
  Si  Si61  1  0.60276950  0.92355250  0.44049300  1
  Si  Si62  1  0.72598950  0.76586650  0.89113100  1
  Si  Si63  1  0.34565900  0.65297000  0.00662700  1
  O  O64  1  0.39024400  0.20822300  0.15941200  1
  O  O65  1  0.40874400  0.00000000  0.92683300  1
  O  O66  1  0.65821850  0.28519050  0.55679300  1
  O  O67  1  0.74336750  0.40590350  0.96295700  1
  O  O68  1  0.60975600  0.20822300  0.84058800  1
  O  O69  1  0.34178150  0.28519050  0.05679300  1
  O  O70  1  0.21166950  0.17369250  0.43308800  1
  O  O71  1  0.75663250  0.09409650  0.46295700  1
  O  O72  1  0.34514950  0.23227750  0.65239500  1
  O  O73  1  0.15485050  0.26772250  0.15239500  1
  O  O74  1  0.05584700  0.34029900  0.25000000  1
  O  O75  1  0.44415300  0.15970100  0.75000000  1
  O  O76  1  0.15821850  0.21480950  0.55679300  1
  O  O77  1  0.93738200  0.38610100  0.87209100  1
  O  O78  1  0.75663250  0.09409650  0.03704300  1
  O  O79  1  0.21166950  0.17369250  0.06691200  1
  O  O80  1  0.43738200  0.11389900  0.62790900  1
  O  O81  1  0.15821850  0.21480950  0.94320700  1
  O  O82  1  0.40874400  0.00000000  0.57316700  1
  O  O83  1  0.94415300  0.34029900  0.75000000  1
  O  O84  1  0.24336750  0.09409650  0.53704300  1
  O  O85  1  0.50000000  0.37253200  0.00000000  1
  O  O86  1  0.50000000  0.09869350  0.50000000  1
  O  O87  1  0.71166950  0.32630750  0.06691200  1
  O  O88  1  0.34514950  0.23227750  0.84760500  1
  O  O89  1  0.93738200  0.38610100  0.62790900  1
  O  O90  1  0.39024400  0.20822300  0.34058800  1
  O  O91  1  0.24336750  0.09409650  0.96295700  1
  O  O92  1  0.65821850  0.28519050  0.94320700  1
  O  O93  1  0.00000000  0.12746800  0.50000000  1
  O  O94  1  0.71166950  0.32630750  0.43308800  1
  O  O95  1  0.43738200  0.11389900  0.87209100  1
  O  O96  1  0.15485050  0.26772250  0.34760500  1
  O  O97  1  0.28833050  0.32630750  0.56691200  1
  O  O98  1  0.84514950  0.26772250  0.65239500  1
  O  O99  1  0.25663250  0.40590350  0.03704300  1
  O  O100  1  0.50000000  0.09869350  0.00000000  1
  O  O101  1  0.74336750  0.40590350  0.53704300  1
  O  O102  1  0.56261800  0.11389900  0.37209100  1
  O  O103  1  0.59125600  0.00000000  0.07316700  1
  O  O104  1  0.89024400  0.29177700  0.15941200  1
  O  O105  1  0.50000000  0.37253200  0.50000000  1
  O  O106  1  0.10975600  0.29177700  0.84058800  1
  O  O107  1  0.06261800  0.38610100  0.12790900  1
  O  O108  1  0.65485050  0.23227750  0.15239500  1
  O  O109  1  0.84514950  0.26772250  0.84760500  1
  O  O110  1  0.84178150  0.21480950  0.05679300  1
  O  O111  1  0.84178150  0.21480950  0.44320700  1
  O  O112  1  0.65485050  0.23227750  0.34760500  1
  O  O113  1  0.06261800  0.38610100  0.37209100  1
  O  O114  1  0.78833050  0.17369250  0.93308800  1
  O  O115  1  0.60975600  0.20822300  0.65941200  1
  O  O116  1  0.00000000  0.40130650  0.50000000  1
  O  O117  1  0.78833050  0.17369250  0.56691200  1
  O  O118  1  0.28833050  0.32630750  0.93308800  1
  O  O119  1  0.59125600  0.00000000  0.42683300  1
  O  O120  1  0.10975600  0.29177700  0.65941200  1
  O  O121  1  0.56261800  0.11389900  0.12790900  1
  O  O122  1  0.25663250  0.40590350  0.46295700  1
  O  O123  1  0.55584700  0.15970100  0.25000000  1
  O  O124  1  0.89024400  0.29177700  0.34058800  1
  O  O125  1  0.34178150  0.28519050  0.44320700  1
  O  O126  1  0.00000000  0.12746800  0.00000000  1
  O  O127  1  0.00000000  0.40130650  0.00000000  1
  O  O128  1  0.89024400  0.70822300  0.15941200  1
  O  O129  1  0.90874400  0.50000000  0.92683300  1
  O  O130  1  0.15821850  0.78519050  0.55679300  1
  O  O131  1  0.24336750  0.90590350  0.96295700  1
  O  O132  1  0.10975600  0.70822300  0.84058800  1
  O  O133  1  0.84178150  0.78519050  0.05679300  1
  O  O134  1  0.71166950  0.67369250  0.43308800  1
  O  O135  1  0.25663250  0.59409650  0.46295700  1
  O  O136  1  0.84514950  0.73227750  0.65239500  1
  O  O137  1  0.65485050  0.76772250  0.15239500  1
  O  O138  1  0.55584700  0.84029900  0.25000000  1
  O  O139  1  0.94415300  0.65970100  0.75000000  1
  O  O140  1  0.65821850  0.71480950  0.55679300  1
  O  O141  1  0.43738200  0.88610100  0.87209100  1
  O  O142  1  0.25663250  0.59409650  0.03704300  1
  O  O143  1  0.71166950  0.67369250  0.06691200  1
  O  O144  1  0.93738200  0.61389900  0.62790900  1
  O  O145  1  0.65821850  0.71480950  0.94320700  1
  O  O146  1  0.90874400  0.50000000  0.57316700  1
  O  O147  1  0.44415300  0.84029900  0.75000000  1
  O  O148  1  0.74336750  0.59409650  0.53704300  1
  O  O149  1  0.00000000  0.87253200  0.00000000  1
  O  O150  1  0.00000000  0.59869350  0.50000000  1
  O  O151  1  0.21166950  0.82630750  0.06691200  1
  O  O152  1  0.84514950  0.73227750  0.84760500  1
  O  O153  1  0.43738200  0.88610100  0.62790900  1
  O  O154  1  0.89024400  0.70822300  0.34058800  1
  O  O155  1  0.74336750  0.59409650  0.96295700  1
  O  O156  1  0.15821850  0.78519050  0.94320700  1
  O  O157  1  0.50000000  0.62746800  0.50000000  1
  O  O158  1  0.21166950  0.82630750  0.43308800  1
  O  O159  1  0.93738200  0.61389900  0.87209100  1
  O  O160  1  0.65485050  0.76772250  0.34760500  1
  O  O161  1  0.78833050  0.82630750  0.56691200  1
  O  O162  1  0.34514950  0.76772250  0.65239500  1
  O  O163  1  0.75663250  0.90590350  0.03704300  1
  O  O164  1  0.00000000  0.59869350  0.00000000  1
  O  O165  1  0.24336750  0.90590350  0.53704300  1
  O  O166  1  0.06261800  0.61389900  0.37209100  1
  O  O167  1  0.09125600  0.50000000  0.07316700  1
  O  O168  1  0.39024400  0.79177700  0.15941200  1
  O  O169  1  0.00000000  0.87253200  0.50000000  1
  O  O170  1  0.60975600  0.79177700  0.84058800  1
  O  O171  1  0.56261800  0.88610100  0.12790900  1
  O  O172  1  0.15485050  0.73227750  0.15239500  1
  O  O173  1  0.34514950  0.76772250  0.84760500  1
  O  O174  1  0.34178150  0.71480950  0.05679300  1
  O  O175  1  0.34178150  0.71480950  0.44320700  1
  O  O176  1  0.15485050  0.73227750  0.34760500  1
  O  O177  1  0.56261800  0.88610100  0.37209100  1
  O  O178  1  0.28833050  0.67369250  0.93308800  1
  O  O179  1  0.10975600  0.70822300  0.65941200  1
  O  O180  1  0.50000000  0.90130650  0.50000000  1
  O  O181  1  0.28833050  0.67369250  0.56691200  1
  O  O182  1  0.78833050  0.82630750  0.93308800  1
  O  O183  1  0.09125600  0.50000000  0.42683300  1
  O  O184  1  0.60975600  0.79177700  0.65941200  1
  O  O185  1  0.06261800  0.61389900  0.12790900  1
  O  O186  1  0.75663250  0.90590350  0.46295700  1
  O  O187  1  0.05584700  0.65970100  0.25000000  1
  O  O188  1  0.39024400  0.79177700  0.34058800  1
  O  O189  1  0.84178150  0.78519050  0.44320700  1
  O  O190  1  0.50000000  0.62746800  0.00000000  1
  O  O191  1  0.50000000  0.90130650  0.00000000  1
