# generated using pymatgen
data_SrH9ClO5
_symmetry_space_group_name_H-M   'P 1'
_cell_length_a   5.96405100
_cell_length_b   7.45879351
_cell_length_c   7.75398697
_cell_angle_alpha   89.64765687
_cell_angle_beta   107.83073188
_cell_angle_gamma   92.21749072
_symmetry_Int_Tables_number   1
_chemical_formula_structural   SrH9ClO5
_chemical_formula_sum   'Sr2 H18 Cl2 O10'
_cell_volume   328.11265231
_cell_formula_units_Z   2
loop_
 _symmetry_equiv_pos_site_id
 _symmetry_equiv_pos_as_xyz
  1  'x, y, z'
loop_
 _atom_site_type_symbol
 _atom_site_label
 _atom_site_symmetry_multiplicity
 _atom_site_fract_x
 _atom_site_fract_y
 _atom_site_fract_z
 _atom_site_occupancy
  Sr  Sr0  1  0.17624400  0.04199600  0.28459900  1
  Sr  Sr1  1  0.82375600  0.95800400  0.71540100  1
  H  H2  1  0.11890000  0.31327500  0.79495300  1
  H  H3  1  0.88110000  0.68672500  0.20504700  1
  H  H4  1  0.30680300  0.19552900  0.94475000  1
  H  H5  1  0.69319700  0.80447100  0.05525000  1
  H  H6  1  0.54550300  0.29461100  0.60227600  1
  H  H7  1  0.45449700  0.70538900  0.39772400  1
  H  H8  1  0.36413000  0.18834700  0.68126300  1
  H  H9  1  0.63587000  0.81165300  0.31873700  1
  H  H10  1  0.09686700  0.71224000  0.54009700  1
  H  H11  1  0.90313300  0.28776000  0.45990300  1
  H  H12  1  0.29630000  0.82961000  0.67983400  1
  H  H13  1  0.70370000  0.17039000  0.32016600  1
  H  H14  1  0.31357300  0.82194600  0.94787900  1
  H  H15  1  0.68642700  0.17805400  0.05212100  1
  H  H16  1  0.13744600  0.71155400  0.02831400  1
  H  H17  1  0.86255400  0.28844600  0.97168600  1
  H  H18  1  0.45878900  0.32331900  0.17176700  1
  H  H19  1  0.54121100  0.67668100  0.82823300  1
  Cl  Cl20  1  0.15568500  0.49409600  0.28198200  1
  Cl  Cl21  1  0.84431500  0.50590400  0.71801800  1
  O  O22  1  0.19757100  0.19700300  0.81286400  1
  O  O23  1  0.80242900  0.80299700  0.18713600  1
  O  O24  1  0.46062000  0.17729300  0.59508900  1
  O  O25  1  0.53938000  0.82270700  0.40491100  1
  O  O26  1  0.14447900  0.83771700  0.57290400  1
  O  O27  1  0.85552100  0.16228300  0.42709600  1
  O  O28  1  0.17325300  0.83436600  0.99590700  1
  O  O29  1  0.82674700  0.16563400  0.00409300  1
  O  O30  1  0.47702600  0.19718800  0.14675800  1
  O  O31  1  0.52297400  0.80281200  0.85324200  1
