# generated using pymatgen
data_Er2SiSO4
_symmetry_space_group_name_H-M   'P 1'
_cell_length_a   10.73142800
_cell_length_b   12.38877000
_cell_length_c   6.85532600
_cell_angle_alpha   90.00000000
_cell_angle_beta   90.00000000
_cell_angle_gamma   90.00000000
_symmetry_Int_Tables_number   1
_chemical_formula_structural   Er2SiSO4
_chemical_formula_sum   'Er16 Si8 S8 O32'
_cell_volume   911.41006126
_cell_formula_units_Z   8
loop_
 _symmetry_equiv_pos_site_id
 _symmetry_equiv_pos_as_xyz
  1  'x, y, z'
loop_
 _atom_site_type_symbol
 _atom_site_label
 _atom_site_symmetry_multiplicity
 _atom_site_fract_x
 _atom_site_fract_y
 _atom_site_fract_z
 _atom_site_occupancy
  Er  Er0  1  0.50000000  0.82863900  0.02306500  1
  Er  Er1  1  0.75000000  0.93952900  0.75000000  1
  Er  Er2  1  0.50000000  0.32863900  0.47693500  1
  Er  Er3  1  0.25000000  0.06047100  0.25000000  1
  Er  Er4  1  0.75000000  0.06047100  0.25000000  1
  Er  Er5  1  0.50000000  0.67136100  0.52306500  1
  Er  Er6  1  0.50000000  0.17136100  0.97693500  1
  Er  Er7  1  0.25000000  0.93952900  0.75000000  1
  Er  Er8  1  0.00000000  0.32863900  0.02306500  1
  Er  Er9  1  0.25000000  0.43952900  0.75000000  1
  Er  Er10  1  0.00000000  0.82863900  0.47693500  1
  Er  Er11  1  0.75000000  0.56047100  0.25000000  1
  Er  Er12  1  0.25000000  0.56047100  0.25000000  1
  Er  Er13  1  0.00000000  0.17136100  0.52306500  1
  Er  Er14  1  0.00000000  0.67136100  0.97693500  1
  Er  Er15  1  0.75000000  0.43952900  0.75000000  1
  Si  Si16  1  0.75000000  0.18613600  0.75000000  1
  Si  Si17  1  0.25000000  0.81386400  0.25000000  1
  Si  Si18  1  0.25000000  0.18613600  0.75000000  1
  Si  Si19  1  0.75000000  0.81386400  0.25000000  1
  Si  Si20  1  0.25000000  0.68613600  0.75000000  1
  Si  Si21  1  0.75000000  0.31386400  0.25000000  1
  Si  Si22  1  0.75000000  0.68613600  0.75000000  1
  Si  Si23  1  0.25000000  0.31386400  0.25000000  1
  S  S24  1  0.50000000  0.00910400  0.25288300  1
  S  S25  1  0.50000000  0.49089600  0.75288300  1
  S  S26  1  0.50000000  0.50910400  0.24711700  1
  S  S27  1  0.50000000  0.99089600  0.74711700  1
  S  S28  1  0.00000000  0.50910400  0.25288300  1
  S  S29  1  0.00000000  0.99089600  0.75288300  1
  S  S30  1  0.00000000  0.00910400  0.24711700  1
  S  S31  1  0.00000000  0.49089600  0.74711700  1
  O  O32  1  0.62662600  0.23621200  0.23561200  1
  O  O33  1  0.62662600  0.76378800  0.76438800  1
  O  O34  1  0.72466550  0.89406750  0.06395100  1
  O  O35  1  0.77533450  0.89406750  0.43604900  1
  O  O36  1  0.37337400  0.23621200  0.23561200  1
  O  O37  1  0.62662600  0.73621200  0.26438800  1
  O  O38  1  0.22466550  0.89406750  0.43604900  1
  O  O39  1  0.37337400  0.73621200  0.26438800  1
  O  O40  1  0.37337400  0.76378800  0.76438800  1
  O  O41  1  0.27533450  0.89406750  0.06395100  1
  O  O42  1  0.37337400  0.26378800  0.73561200  1
  O  O43  1  0.27533450  0.10593250  0.93604900  1
  O  O44  1  0.22466550  0.10593250  0.56395100  1
  O  O45  1  0.62662600  0.26378800  0.73561200  1
  O  O46  1  0.72466550  0.10593250  0.93604900  1
  O  O47  1  0.77533450  0.10593250  0.56395100  1
  O  O48  1  0.12662600  0.73621200  0.23561200  1
  O  O49  1  0.12662600  0.26378800  0.76438800  1
  O  O50  1  0.22466550  0.39406750  0.06395100  1
  O  O51  1  0.27533450  0.39406750  0.43604900  1
  O  O52  1  0.87337400  0.73621200  0.23561200  1
  O  O53  1  0.12662600  0.23621200  0.26438800  1
  O  O54  1  0.72466550  0.39406750  0.43604900  1
  O  O55  1  0.87337400  0.23621200  0.26438800  1
  O  O56  1  0.87337400  0.26378800  0.76438800  1
  O  O57  1  0.77533450  0.39406750  0.06395100  1
  O  O58  1  0.87337400  0.76378800  0.73561200  1
  O  O59  1  0.77533450  0.60593250  0.93604900  1
  O  O60  1  0.72466550  0.60593250  0.56395100  1
  O  O61  1  0.12662600  0.76378800  0.73561200  1
  O  O62  1  0.22466550  0.60593250  0.93604900  1
  O  O63  1  0.27533450  0.60593250  0.56395100  1
