# generated using pymatgen
data_Ba2LaRuO6
_symmetry_space_group_name_H-M   'P 1'
_cell_length_a   10.55643600
_cell_length_b   6.08197000
_cell_length_c   6.15128768
_cell_angle_alpha   90.00000000
_cell_angle_beta   125.21881006
_cell_angle_gamma   90.00000000
_symmetry_Int_Tables_number   1
_chemical_formula_structural   Ba2LaRuO6
_chemical_formula_sum   'Ba4 La2 Ru2 O12'
_cell_volume   322.64585656
_cell_formula_units_Z   2
loop_
 _symmetry_equiv_pos_site_id
 _symmetry_equiv_pos_as_xyz
  1  'x, y, z'
loop_
 _atom_site_type_symbol
 _atom_site_label
 _atom_site_symmetry_multiplicity
 _atom_site_fract_x
 _atom_site_fract_y
 _atom_site_fract_z
 _atom_site_occupancy
  Ba  Ba0  1  0.24884300  0.00000000  0.24565000  1
  Ba  Ba1  1  0.75115700  0.00000000  0.75435000  1
  Ba  Ba2  1  0.74884300  0.50000000  0.24565000  1
  Ba  Ba3  1  0.25115700  0.50000000  0.75435000  1
  La  La4  1  0.50000000  0.50000000  0.50000000  1
  La  La5  1  0.00000000  0.00000000  0.50000000  1
  Ru  Ru6  1  0.00000000  0.50000000  0.00000000  1
  Ru  Ru7  1  0.50000000  0.00000000  0.00000000  1
  O  O8  1  0.22733000  0.50000000  0.27830000  1
  O  O9  1  0.77267000  0.50000000  0.72170000  1
  O  O10  1  0.52526250  0.22708650  0.79470700  1
  O  O11  1  0.47473750  0.77291350  0.20529300  1
  O  O12  1  0.52526250  0.77291350  0.79470700  1
  O  O13  1  0.47473750  0.22708650  0.20529300  1
  O  O14  1  0.72733000  0.00000000  0.27830000  1
  O  O15  1  0.27267000  0.00000000  0.72170000  1
  O  O16  1  0.02526250  0.72708650  0.79470700  1
  O  O17  1  0.97473750  0.27291350  0.20529300  1
  O  O18  1  0.02526250  0.27291350  0.79470700  1
  O  O19  1  0.97473750  0.72708650  0.20529300  1
