# generated using pymatgen
data_Nd4(SBr2)3
_symmetry_space_group_name_H-M   'P 1'
_cell_length_a   29.75700200
_cell_length_b   6.93048400
_cell_length_c   7.20698493
_cell_angle_alpha   90.00000000
_cell_angle_beta   94.66011209
_cell_angle_gamma   90.00000000
_symmetry_Int_Tables_number   1
_chemical_formula_structural   Nd4(SBr2)3
_chemical_formula_sum   'Nd16 S12 Br24'
_cell_volume   1481.38614861
_cell_formula_units_Z   4
loop_
 _symmetry_equiv_pos_site_id
 _symmetry_equiv_pos_as_xyz
  1  'x, y, z'
loop_
 _atom_site_type_symbol
 _atom_site_label
 _atom_site_symmetry_multiplicity
 _atom_site_fract_x
 _atom_site_fract_y
 _atom_site_fract_z
 _atom_site_occupancy
  Nd  Nd0  1  0.55700800  0.19031200  0.98507400  1
  Nd  Nd1  1  0.82894400  0.69313100  0.90615500  1
  Nd  Nd2  1  0.67105600  0.80686900  0.09384500  1
  Nd  Nd3  1  0.94299200  0.30968800  0.01492600  1
  Nd  Nd4  1  0.67105600  0.19313100  0.59384500  1
  Nd  Nd5  1  0.55700800  0.80968800  0.48507400  1
  Nd  Nd6  1  0.82894400  0.30686900  0.40615500  1
  Nd  Nd7  1  0.94299200  0.69031200  0.51492600  1
  Nd  Nd8  1  0.05700800  0.69031200  0.98507400  1
  Nd  Nd9  1  0.32894400  0.19313100  0.90615500  1
  Nd  Nd10  1  0.17105600  0.30686900  0.09384500  1
  Nd  Nd11  1  0.44299200  0.80968800  0.01492600  1
  Nd  Nd12  1  0.17105600  0.69313100  0.59384500  1
  Nd  Nd13  1  0.05700800  0.30968800  0.48507400  1
  Nd  Nd14  1  0.32894400  0.80686900  0.40615500  1
  Nd  Nd15  1  0.44299200  0.19031200  0.51492600  1
  S  S16  1  0.61645250  0.94886350  0.79075600  1
  S  S17  1  0.00000000  0.44960500  0.75000000  1
  S  S18  1  0.88354750  0.44886350  0.70924400  1
  S  S19  1  0.88354750  0.55113650  0.20924400  1
  S  S20  1  0.61645250  0.05113650  0.29075600  1
  S  S21  1  0.00000000  0.55039500  0.25000000  1
  S  S22  1  0.11645250  0.44886350  0.79075600  1
  S  S23  1  0.50000000  0.94960500  0.75000000  1
  S  S24  1  0.38354750  0.94886350  0.70924400  1
  S  S25  1  0.38354750  0.05113650  0.20924400  1
  S  S26  1  0.11645250  0.55113650  0.29075600  1
  S  S27  1  0.50000000  0.05039500  0.25000000  1
  Br  Br28  1  0.55176250  0.60695250  0.11002000  1
  Br  Br29  1  0.94823750  0.89304750  0.88998000  1
  Br  Br30  1  0.65598700  0.59425500  0.44558000  1
  Br  Br31  1  0.76509750  0.41715350  0.68521200  1
  Br  Br32  1  0.84401300  0.09425500  0.05442000  1
  Br  Br33  1  0.84401300  0.90574500  0.55442000  1
  Br  Br34  1  0.94823750  0.10695250  0.38998000  1
  Br  Br35  1  0.55176250  0.39304750  0.61002000  1
  Br  Br36  1  0.65598700  0.40574500  0.94558000  1
  Br  Br37  1  0.73490250  0.91715350  0.81478800  1
  Br  Br38  1  0.76509750  0.58284650  0.18521200  1
  Br  Br39  1  0.73490250  0.08284650  0.31478800  1
  Br  Br40  1  0.05176250  0.10695250  0.11002000  1
  Br  Br41  1  0.44823750  0.39304750  0.88998000  1
  Br  Br42  1  0.15598700  0.09425500  0.44558000  1
  Br  Br43  1  0.26509750  0.91715350  0.68521200  1
  Br  Br44  1  0.34401300  0.59425500  0.05442000  1
  Br  Br45  1  0.34401300  0.40574500  0.55442000  1
  Br  Br46  1  0.44823750  0.60695250  0.38998000  1
  Br  Br47  1  0.05176250  0.89304750  0.61002000  1
  Br  Br48  1  0.15598700  0.90574500  0.94558000  1
  Br  Br49  1  0.23490250  0.41715350  0.81478800  1
  Br  Br50  1  0.26509750  0.08284650  0.18521200  1
  Br  Br51  1  0.23490250  0.58284650  0.31478800  1
