# generated using pymatgen
data_CsIn3
_symmetry_space_group_name_H-M   'P 1'
_cell_length_a   7.25076600
_cell_length_b   7.25076600
_cell_length_c   17.17271800
_cell_angle_alpha   90.00000000
_cell_angle_beta   90.00000000
_cell_angle_gamma   90.00000000
_symmetry_Int_Tables_number   1
_chemical_formula_structural   CsIn3
_chemical_formula_sum   'Cs6 In18'
_cell_volume   902.83173733
_cell_formula_units_Z   6
loop_
 _symmetry_equiv_pos_site_id
 _symmetry_equiv_pos_as_xyz
  1  'x, y, z'
loop_
 _atom_site_type_symbol
 _atom_site_label
 _atom_site_symmetry_multiplicity
 _atom_site_fract_x
 _atom_site_fract_y
 _atom_site_fract_z
 _atom_site_occupancy
  Cs  Cs0  1  0.00000000  0.00000000  0.00000000  1
  Cs  Cs1  1  0.00000000  0.50000000  0.12762100  1
  Cs  Cs2  1  0.00000000  0.50000000  0.37237900  1
  Cs  Cs3  1  0.50000000  0.50000000  0.50000000  1
  Cs  Cs4  1  0.50000000  0.00000000  0.62762100  1
  Cs  Cs5  1  0.50000000  0.00000000  0.87237900  1
  In  In6  1  0.50000000  0.50000000  0.00000000  1
  In  In7  1  0.50000000  0.19688800  0.10876500  1
  In  In8  1  0.69688800  0.00000000  0.39123500  1
  In  In9  1  0.30311200  0.00000000  0.39123500  1
  In  In10  1  0.50000000  0.80311200  0.10876500  1
  In  In11  1  0.50000000  0.29329900  0.27916000  1
  In  In12  1  0.79329900  0.00000000  0.22084000  1
  In  In13  1  0.20670100  0.00000000  0.22084000  1
  In  In14  1  0.50000000  0.70670100  0.27916000  1
  In  In15  1  0.00000000  0.00000000  0.50000000  1
  In  In16  1  0.00000000  0.69688800  0.60876500  1
  In  In17  1  0.19688800  0.50000000  0.89123500  1
  In  In18  1  0.80311200  0.50000000  0.89123500  1
  In  In19  1  0.00000000  0.30311200  0.60876500  1
  In  In20  1  0.00000000  0.79329900  0.77916000  1
  In  In21  1  0.29329900  0.50000000  0.72084000  1
  In  In22  1  0.70670100  0.50000000  0.72084000  1
  In  In23  1  0.00000000  0.20670100  0.77916000  1
