# generated using pymatgen
data_KUN3O11
_symmetry_space_group_name_H-M   'P 1'
_cell_length_a   13.81381200
_cell_length_b   9.78564400
_cell_length_c   8.15060405
_cell_angle_alpha   90.00000000
_cell_angle_beta   116.30431404
_cell_angle_gamma   90.00000000
_symmetry_Int_Tables_number   1
_chemical_formula_structural   KUN3O11
_chemical_formula_sum   'K4 U4 N12 O44'
_cell_volume   987.68920409
_cell_formula_units_Z   4
loop_
 _symmetry_equiv_pos_site_id
 _symmetry_equiv_pos_as_xyz
  1  'x, y, z'
loop_
 _atom_site_type_symbol
 _atom_site_label
 _atom_site_symmetry_multiplicity
 _atom_site_fract_x
 _atom_site_fract_y
 _atom_site_fract_z
 _atom_site_occupancy
  K  K0  1  0.75000000  0.75000000  0.50000000  1
  K  K1  1  0.25000000  0.75000000  0.00000000  1
  K  K2  1  0.25000000  0.25000000  0.50000000  1
  K  K3  1  0.75000000  0.25000000  0.00000000  1
  U  U4  1  0.00000000  0.23856800  0.75000000  1
  U  U5  1  0.00000000  0.76143200  0.25000000  1
  U  U6  1  0.50000000  0.73856800  0.75000000  1
  U  U7  1  0.50000000  0.26143200  0.25000000  1
  N  N8  1  0.34032500  0.58497900  0.43507300  1
  N  N9  1  0.65967500  0.58497900  0.06492700  1
  N  N10  1  0.34032500  0.41502100  0.93507300  1
  N  N11  1  0.65967500  0.41502100  0.56492700  1
  N  N12  1  0.00000000  0.46172600  0.25000000  1
  N  N13  1  0.00000000  0.53827400  0.75000000  1
  N  N14  1  0.84032500  0.08497900  0.43507300  1
  N  N15  1  0.15967500  0.08497900  0.06492700  1
  N  N16  1  0.84032500  0.91502100  0.93507300  1
  N  N17  1  0.15967500  0.91502100  0.56492700  1
  N  N18  1  0.50000000  0.96172600  0.25000000  1
  N  N19  1  0.50000000  0.03827400  0.75000000  1
  O  O20  1  0.27111200  0.47793600  0.80633800  1
  O  O21  1  0.27111200  0.52206400  0.30633800  1
  O  O22  1  0.00000000  0.33632300  0.25000000  1
  O  O23  1  0.40504400  0.47397400  0.08568500  1
  O  O24  1  0.07054550  0.46747450  0.88280200  1
  O  O25  1  0.09554450  0.23919250  0.65547600  1
  O  O26  1  0.92945450  0.53252550  0.11719800  1
  O  O27  1  0.40504400  0.52602600  0.58568500  1
  O  O28  1  0.72888800  0.47793600  0.69366200  1
  O  O29  1  0.90445550  0.76080750  0.34452400  1
  O  O30  1  0.09554450  0.76080750  0.15547600  1
  O  O31  1  0.14624300  0.78471800  0.57031900  1
  O  O32  1  0.07054550  0.53252550  0.38280200  1
  O  O33  1  0.92945450  0.46747450  0.61719800  1
  O  O34  1  0.90445550  0.23919250  0.84452400  1
  O  O35  1  0.59495600  0.47397400  0.41431500  1
  O  O36  1  0.59495600  0.52602600  0.91431500  1
  O  O37  1  0.72888800  0.52206400  0.19366200  1
  O  O38  1  0.85375700  0.78471800  0.92968100  1
  O  O39  1  0.14624300  0.21528200  0.07031900  1
  O  O40  1  0.85375700  0.21528200  0.42968100  1
  O  O41  1  0.00000000  0.66367700  0.75000000  1
  O  O42  1  0.77111200  0.97793600  0.80633800  1
  O  O43  1  0.77111200  0.02206400  0.30633800  1
  O  O44  1  0.50000000  0.83632300  0.25000000  1
  O  O45  1  0.90504400  0.97397400  0.08568500  1
  O  O46  1  0.57054550  0.96747450  0.88280200  1
  O  O47  1  0.59554450  0.73919250  0.65547600  1
  O  O48  1  0.42945450  0.03252550  0.11719800  1
  O  O49  1  0.90504400  0.02602600  0.58568500  1
  O  O50  1  0.22888800  0.97793600  0.69366200  1
  O  O51  1  0.40445550  0.26080750  0.34452400  1
  O  O52  1  0.59554450  0.26080750  0.15547600  1
  O  O53  1  0.64624300  0.28471800  0.57031900  1
  O  O54  1  0.57054550  0.03252550  0.38280200  1
  O  O55  1  0.42945450  0.96747450  0.61719800  1
  O  O56  1  0.40445550  0.73919250  0.84452400  1
  O  O57  1  0.09495600  0.97397400  0.41431500  1
  O  O58  1  0.09495600  0.02602600  0.91431500  1
  O  O59  1  0.22888800  0.02206400  0.19366200  1
  O  O60  1  0.35375700  0.28471800  0.92968100  1
  O  O61  1  0.64624300  0.71528200  0.07031900  1
  O  O62  1  0.35375700  0.71528200  0.42968100  1
  O  O63  1  0.50000000  0.16367700  0.75000000  1
