# generated using pymatgen
data_Ga2Os
_symmetry_space_group_name_H-M   'P 1'
_cell_length_a   4.78451800
_cell_length_b   8.34523600
_cell_length_c   8.79235400
_cell_angle_alpha   90.00000000
_cell_angle_beta   90.00000000
_cell_angle_gamma   90.00000000
_symmetry_Int_Tables_number   1
_chemical_formula_structural   Ga2Os
_chemical_formula_sum   'Ga16 Os8'
_cell_volume   351.06051137
_cell_formula_units_Z   8
loop_
 _symmetry_equiv_pos_site_id
 _symmetry_equiv_pos_as_xyz
  1  'x, y, z'
loop_
 _atom_site_type_symbol
 _atom_site_label
 _atom_site_symmetry_multiplicity
 _atom_site_fract_x
 _atom_site_fract_y
 _atom_site_fract_z
 _atom_site_occupancy
  Ga  Ga0  1  0.25000000  0.91823900  0.75000000  1
  Ga  Ga1  1  0.25000000  0.58176100  0.75000000  1
  Ga  Ga2  1  0.00000000  0.83176100  0.00000000  1
  Ga  Ga3  1  0.50000000  0.66823900  0.00000000  1
  Ga  Ga4  1  0.25000000  0.41823900  0.25000000  1
  Ga  Ga5  1  0.25000000  0.08176100  0.25000000  1
  Ga  Ga6  1  0.00000000  0.33176100  0.50000000  1
  Ga  Ga7  1  0.50000000  0.16823900  0.50000000  1
  Ga  Ga8  1  0.75000000  0.91823900  0.25000000  1
  Ga  Ga9  1  0.75000000  0.58176100  0.25000000  1
  Ga  Ga10  1  0.50000000  0.83176100  0.50000000  1
  Ga  Ga11  1  0.00000000  0.66823900  0.50000000  1
  Ga  Ga12  1  0.75000000  0.41823900  0.75000000  1
  Ga  Ga13  1  0.75000000  0.08176100  0.75000000  1
  Ga  Ga14  1  0.50000000  0.33176100  0.00000000  1
  Ga  Ga15  1  0.00000000  0.16823900  0.00000000  1
  Os  Os16  1  0.75000000  0.75000000  0.75000000  1
  Os  Os17  1  0.50000000  0.00000000  0.00000000  1
  Os  Os18  1  0.75000000  0.25000000  0.25000000  1
  Os  Os19  1  0.50000000  0.50000000  0.50000000  1
  Os  Os20  1  0.25000000  0.75000000  0.25000000  1
  Os  Os21  1  0.00000000  0.00000000  0.50000000  1
  Os  Os22  1  0.25000000  0.25000000  0.75000000  1
  Os  Os23  1  0.00000000  0.50000000  0.00000000  1
