# generated using pymatgen
data_KZnB(PO4)2
_symmetry_space_group_name_H-M   'P 1'
_cell_length_a   12.83333600
_cell_length_b   12.94755600
_cell_length_c   8.52347199
_cell_angle_alpha   90.00000000
_cell_angle_beta   91.32061640
_cell_angle_gamma   90.00000000
_symmetry_Int_Tables_number   1
_chemical_formula_structural   KZnB(PO4)2
_chemical_formula_sum   'K8 Zn8 B8 P16 O64'
_cell_volume   1415.88678889
_cell_formula_units_Z   8
loop_
 _symmetry_equiv_pos_site_id
 _symmetry_equiv_pos_as_xyz
  1  'x, y, z'
loop_
 _atom_site_type_symbol
 _atom_site_label
 _atom_site_symmetry_multiplicity
 _atom_site_fract_x
 _atom_site_fract_y
 _atom_site_fract_z
 _atom_site_occupancy
  K  K0  1  0.50000000  0.46949200  0.25000000  1
  K  K1  1  0.50000000  0.53050800  0.75000000  1
  K  K2  1  0.50000000  0.90229600  0.75000000  1
  K  K3  1  0.50000000  0.09770400  0.25000000  1
  K  K4  1  0.00000000  0.96949200  0.25000000  1
  K  K5  1  0.00000000  0.03050800  0.75000000  1
  K  K6  1  0.00000000  0.40229600  0.75000000  1
  K  K7  1  0.00000000  0.59770400  0.25000000  1
  Zn  Zn8  1  0.62378000  0.31013500  0.56121800  1
  Zn  Zn9  1  0.37622000  0.31013500  0.93878200  1
  Zn  Zn10  1  0.62378000  0.68986500  0.06121800  1
  Zn  Zn11  1  0.37622000  0.68986500  0.43878200  1
  Zn  Zn12  1  0.12378000  0.81013500  0.56121800  1
  Zn  Zn13  1  0.87622000  0.81013500  0.93878200  1
  Zn  Zn14  1  0.12378000  0.18986500  0.06121800  1
  Zn  Zn15  1  0.87622000  0.18986500  0.43878200  1
  B  B16  1  0.68574950  0.89029950  0.42629500  1
  B  B17  1  0.31425050  0.89029950  0.07370500  1
  B  B18  1  0.31425050  0.10970050  0.57370500  1
  B  B19  1  0.68574950  0.10970050  0.92629500  1
  B  B20  1  0.18574950  0.39029950  0.42629500  1
  B  B21  1  0.81425050  0.39029950  0.07370500  1
  B  B22  1  0.81425050  0.60970050  0.57370500  1
  B  B23  1  0.18574950  0.60970050  0.92629500  1
  P  P24  1  0.37107650  0.68170950  0.05935600  1
  P  P25  1  0.69275750  0.08142750  0.59252100  1
  P  P26  1  0.69275750  0.91857250  0.09252100  1
  P  P27  1  0.30724250  0.08142750  0.90747900  1
  P  P28  1  0.37107650  0.31829050  0.55935600  1
  P  P29  1  0.30724250  0.91857250  0.40747900  1
  P  P30  1  0.62892350  0.31829050  0.94064400  1
  P  P31  1  0.62892350  0.68170950  0.44064400  1
  P  P32  1  0.87107650  0.18170950  0.05935600  1
  P  P33  1  0.19275750  0.58142750  0.59252100  1
  P  P34  1  0.19275750  0.41857250  0.09252100  1
  P  P35  1  0.80724250  0.58142750  0.90747900  1
  P  P36  1  0.87107650  0.81829050  0.55935600  1
  P  P37  1  0.80724250  0.41857250  0.40747900  1
  P  P38  1  0.12892350  0.81829050  0.94064400  1
  P  P39  1  0.12892350  0.18170950  0.44064400  1
  O  O40  1  0.34683350  0.91869650  0.23520700  1
  O  O41  1  0.18875400  0.09130000  0.91550100  1
  O  O42  1  0.79831000  0.87224300  0.43338600  1
  O  O43  1  0.63536600  0.83404900  0.99698000  1
  O  O44  1  0.37524850  0.80006150  0.01933600  1
  O  O45  1  0.62475150  0.19993850  0.98066400  1
  O  O46  1  0.83123600  0.83903600  0.72325900  1
  O  O47  1  0.83123600  0.16096400  0.22325900  1
  O  O48  1  0.36463400  0.16595100  0.00302000  1
  O  O49  1  0.47974350  0.63751350  0.02936600  1
  O  O50  1  0.65316650  0.08130350  0.76479300  1
  O  O51  1  0.65316650  0.91869650  0.26479300  1
  O  O52  1  0.18875400  0.90870000  0.41550100  1
  O  O53  1  0.20169000  0.12775700  0.56661400  1
  O  O54  1  0.65122550  0.02542850  0.03109400  1
  O  O55  1  0.62475150  0.80006150  0.48066400  1
  O  O56  1  0.16876400  0.83903600  0.77674100  1
  O  O57  1  0.34877450  0.02542850  0.46890600  1
  O  O58  1  0.20169000  0.87224300  0.06661400  1
  O  O59  1  0.52025650  0.63751350  0.47063400  1
  O  O60  1  0.34683350  0.08130350  0.73520700  1
  O  O61  1  0.63536600  0.16595100  0.49698000  1
  O  O62  1  0.65122550  0.97457150  0.53109400  1
  O  O63  1  0.16876400  0.16096400  0.27674100  1
  O  O64  1  0.36463400  0.83404900  0.50302000  1
  O  O65  1  0.47974350  0.36248650  0.52936600  1
  O  O66  1  0.79831000  0.12775700  0.93338600  1
  O  O67  1  0.34877450  0.97457150  0.96890600  1
  O  O68  1  0.52025650  0.36248650  0.97063400  1
  O  O69  1  0.81124600  0.90870000  0.08449900  1
  O  O70  1  0.81124600  0.09130000  0.58449900  1
  O  O71  1  0.37524850  0.19993850  0.51933600  1
  O  O72  1  0.84683350  0.41869650  0.23520700  1
  O  O73  1  0.68875400  0.59130000  0.91550100  1
  O  O74  1  0.29831000  0.37224300  0.43338600  1
  O  O75  1  0.13536600  0.33404900  0.99698000  1
  O  O76  1  0.87524850  0.30006150  0.01933600  1
  O  O77  1  0.12475150  0.69993850  0.98066400  1
  O  O78  1  0.33123600  0.33903600  0.72325900  1
  O  O79  1  0.33123600  0.66096400  0.22325900  1
  O  O80  1  0.86463400  0.66595100  0.00302000  1
  O  O81  1  0.97974350  0.13751350  0.02936600  1
  O  O82  1  0.15316650  0.58130350  0.76479300  1
  O  O83  1  0.15316650  0.41869650  0.26479300  1
  O  O84  1  0.68875400  0.40870000  0.41550100  1
  O  O85  1  0.70169000  0.62775700  0.56661400  1
  O  O86  1  0.15122550  0.52542850  0.03109400  1
  O  O87  1  0.12475150  0.30006150  0.48066400  1
  O  O88  1  0.66876400  0.33903600  0.77674100  1
  O  O89  1  0.84877450  0.52542850  0.46890600  1
  O  O90  1  0.70169000  0.37224300  0.06661400  1
  O  O91  1  0.02025650  0.13751350  0.47063400  1
  O  O92  1  0.84683350  0.58130350  0.73520700  1
  O  O93  1  0.13536600  0.66595100  0.49698000  1
  O  O94  1  0.15122550  0.47457150  0.53109400  1
  O  O95  1  0.66876400  0.66096400  0.27674100  1
  O  O96  1  0.86463400  0.33404900  0.50302000  1
  O  O97  1  0.97974350  0.86248650  0.52936600  1
  O  O98  1  0.29831000  0.62775700  0.93338600  1
  O  O99  1  0.84877450  0.47457150  0.96890600  1
  O  O100  1  0.02025650  0.86248650  0.97063400  1
  O  O101  1  0.31124600  0.40870000  0.08449900  1
  O  O102  1  0.31124600  0.59130000  0.58449900  1
  O  O103  1  0.87524850  0.69993850  0.51933600  1
