# generated using pymatgen
data_LiCuO
_symmetry_space_group_name_H-M   'P 1'
_cell_length_a   8.50094600
_cell_length_b   8.50094600
_cell_length_c   3.92888000
_cell_angle_alpha   90.00000000
_cell_angle_beta   90.00000000
_cell_angle_gamma   90.00000000
_symmetry_Int_Tables_number   1
_chemical_formula_structural   LiCuO
_chemical_formula_sum   'Li8 Cu8 O8'
_cell_volume   283.92476776
_cell_formula_units_Z   8
loop_
 _symmetry_equiv_pos_site_id
 _symmetry_equiv_pos_as_xyz
  1  'x, y, z'
loop_
 _atom_site_type_symbol
 _atom_site_label
 _atom_site_symmetry_multiplicity
 _atom_site_fract_x
 _atom_site_fract_y
 _atom_site_fract_z
 _atom_site_occupancy
  Li  Li0  1  0.50000000  0.15147900  0.50000000  1
  Li  Li1  1  0.50000000  0.84852100  0.50000000  1
  Li  Li2  1  0.65147900  0.00000000  0.00000000  1
  Li  Li3  1  0.34852100  0.00000000  0.00000000  1
  Li  Li4  1  0.00000000  0.65147900  0.00000000  1
  Li  Li5  1  0.00000000  0.34852100  0.00000000  1
  Li  Li6  1  0.15147900  0.50000000  0.50000000  1
  Li  Li7  1  0.84852100  0.50000000  0.50000000  1
  Cu  Cu8  1  0.84244050  0.84244050  0.50000000  1
  Cu  Cu9  1  0.65755950  0.65755950  0.00000000  1
  Cu  Cu10  1  0.84244050  0.15755950  0.50000000  1
  Cu  Cu11  1  0.65755950  0.34244050  0.00000000  1
  Cu  Cu12  1  0.34244050  0.34244050  0.00000000  1
  Cu  Cu13  1  0.15755950  0.15755950  0.50000000  1
  Cu  Cu14  1  0.34244050  0.65755950  0.00000000  1
  Cu  Cu15  1  0.15755950  0.84244050  0.50000000  1
  O  O16  1  0.50000000  0.81038500  0.00000000  1
  O  O17  1  0.50000000  0.18961500  0.00000000  1
  O  O18  1  0.31038500  0.00000000  0.50000000  1
  O  O19  1  0.68961500  0.00000000  0.50000000  1
  O  O20  1  0.00000000  0.31038500  0.50000000  1
  O  O21  1  0.00000000  0.68961500  0.50000000  1
  O  O22  1  0.81038500  0.50000000  0.00000000  1
  O  O23  1  0.18961500  0.50000000  0.00000000  1
