# generated using pymatgen
data_CaTeO3
_symmetry_space_group_name_H-M   'P 1'
_cell_length_a   10.45599300
_cell_length_b   11.46656368
_cell_length_c   14.21803649
_cell_angle_alpha   78.07817309
_cell_angle_beta   85.12928182
_cell_angle_gamma   72.65453033
_symmetry_Int_Tables_number   1
_chemical_formula_structural   CaTeO3
_chemical_formula_sum   'Ca18 Te18 O54'
_cell_volume   1591.54807997
_cell_formula_units_Z   18
loop_
 _symmetry_equiv_pos_site_id
 _symmetry_equiv_pos_as_xyz
  1  'x, y, z'
loop_
 _atom_site_type_symbol
 _atom_site_label
 _atom_site_symmetry_multiplicity
 _atom_site_fract_x
 _atom_site_fract_y
 _atom_site_fract_z
 _atom_site_occupancy
  Ca  Ca0  1  0.90620200  0.37562300  0.56910200  1
  Ca  Ca1  1  0.39918800  0.62807400  0.08005600  1
  Ca  Ca2  1  0.25129300  0.41646000  0.26463400  1
  Ca  Ca3  1  0.72555500  0.11706500  0.75657800  1
  Ca  Ca4  1  0.88650600  0.96258800  0.31959100  1
  Ca  Ca5  1  0.05819400  0.14399200  0.40480600  1
  Ca  Ca6  1  0.45891000  0.06170900  0.34665000  1
  Ca  Ca7  1  0.06720000  0.63810100  0.42567100  1
  Ca  Ca8  1  0.60884200  0.36309200  0.92537000  1
  Ca  Ca9  1  0.43347700  0.12954400  0.07200200  1
  Ca  Ca10  1  0.28467200  0.87691700  0.23880500  1
  Ca  Ca11  1  0.92895800  0.86815500  0.59212100  1
  Ca  Ca12  1  0.81800800  0.03454700  0.02150500  1
  Ca  Ca13  1  0.75770400  0.57847400  0.74540400  1
  Ca  Ca14  1  0.53468000  0.93578700  0.64933000  1
  Ca  Ca15  1  0.19021700  0.96104400  0.97741800  1
  Ca  Ca16  1  0.13913700  0.03898100  0.67202300  1
  Ca  Ca17  1  0.57412700  0.86583200  0.92516700  1
  Te  Te18  1  0.61074300  0.82829100  0.16372300  1
  Te  Te19  1  0.61115400  0.25380900  0.19840800  1
  Te  Te20  1  0.74126900  0.15835400  0.52256600  1
  Te  Te21  1  0.40012100  0.16338100  0.83281900  1
  Te  Te22  1  0.10931500  0.56274300  0.67088200  1
  Te  Te23  1  0.22292600  0.47578300  0.97867800  1
  Te  Te24  1  0.24509200  0.84934600  0.46967600  1
  Te  Te25  1  0.06365200  0.17947700  0.13284700  1
  Te  Te26  1  0.03576200  0.73587800  0.14187700  1
  Te  Te27  1  0.27854100  0.26055400  0.52986000  1
  Te  Te28  1  0.52992900  0.45999700  0.64988700  1
  Te  Te29  1  0.88875500  0.44424700  0.32104100  1
  Te  Te30  1  0.78283200  0.51848000  0.02864600  1
  Te  Te31  1  0.45573700  0.53727000  0.36192400  1
  Te  Te32  1  0.69349100  0.75563600  0.48168900  1
  Te  Te33  1  0.39695500  0.72999300  0.80920300  1
  Te  Te34  1  0.94803000  0.82515200  0.86037000  1
  Te  Te35  1  0.96838800  0.26131900  0.85394700  1
  O  O36  1  0.70430900  0.74405400  0.61471000  1
  O  O37  1  0.68121900  0.49077900  0.58053200  1
  O  O38  1  0.39447300  0.49706800  0.94939900  1
  O  O39  1  0.43016500  0.51148500  0.23840100  1
  O  O40  1  0.21565400  0.51876300  0.10116800  1
  O  O41  1  0.48864600  0.94997400  0.22433200  1
  O  O42  1  0.10776500  0.23090700  0.53389000  1
  O  O43  1  0.52799300  0.20530800  0.89535800  1
  O  O44  1  0.00302400  0.10321700  0.25192200  1
  O  O45  1  0.87614000  0.05280900  0.45552800  1
  O  O46  1  0.11679700  0.95646900  0.53975400  1
  O  O47  1  0.09971200  0.12338700  0.81419700  1
  O  O48  1  0.61382200  0.49228100  0.05967200  1
  O  O49  1  0.71640300  0.01907400  0.61659500  1
  O  O50  1  0.07219000  0.62729000  0.26228500  1
  O  O51  1  0.63526200  0.94790700  0.05552700  1
  O  O52  1  0.92045800  0.37227300  0.73536700  1
  O  O53  1  0.29030900  0.51520700  0.41322300  1
  O  O54  1  0.36816300  0.04818400  0.94251200  1
  O  O55  1  0.57892800  0.48150500  0.76892200  1
  O  O56  1  0.67293700  0.09899800  0.28347800  1
  O  O57  1  0.33086100  0.24207000  0.40176500  1
  O  O58  1  0.05071700  0.49825700  0.57761100  1
  O  O59  1  0.35387200  0.09831800  0.59716200  1
  O  O60  1  0.25528000  0.30313400  0.00455100  1
  O  O61  1  0.06206400  0.34433600  0.29235900  1
  O  O62  1  0.00994400  0.89492000  0.95138300  1
  O  O63  1  0.94942700  0.65490200  0.72418900  1
  O  O64  1  0.79023900  0.47523100  0.90637700  1
  O  O65  1  0.98948500  0.91609200  0.74057100  1
  O  O66  1  0.27186200  0.98772200  0.37567500  1
  O  O67  1  0.56663100  0.91445200  0.46988000  1
  O  O68  1  0.90603500  0.87793300  0.17818500  1
  O  O69  1  0.81350300  0.19979700  0.87386400  1
  O  O70  1  0.99959700  0.10763600  0.04454200  1
  O  O71  1  0.23783700  0.06843100  0.13330800  1
  O  O72  1  0.85187200  0.18573800  0.61004900  1
  O  O73  1  0.33072600  0.87924400  0.72015800  1
  O  O74  1  0.12804300  0.82784200  0.38202400  1
  O  O75  1  0.77060100  0.92665300  0.86843900  1
  O  O76  1  0.84377700  0.31238700  0.40747000  1
  O  O77  1  0.91629400  0.52115100  0.41830100  1
  O  O78  1  0.43049500  0.24757000  0.20375500  1
  O  O79  1  0.74482000  0.69191500  0.00359900  1
  O  O80  1  0.57464900  0.74331900  0.80167400  1
  O  O81  1  0.64998100  0.20441900  0.07649900  1
  O  O82  1  0.35547800  0.78600000  0.92855100  1
  O  O83  1  0.19217200  0.79448200  0.12646500  1
  O  O84  1  0.47340000  0.79012900  0.10912000  1
  O  O85  1  0.85691100  0.79928900  0.44749600  1
  O  O86  1  0.52695100  0.03626400  0.78075900  1
  O  O87  1  0.13379500  0.70051800  0.57929000  1
  O  O88  1  0.42893000  0.71008600  0.33960600  1
  O  O89  1  0.55943600  0.28667000  0.66962600  1
