# generated using pymatgen
data_SiO2
_symmetry_space_group_name_H-M   'P 1'
_cell_length_a   8.46459400
_cell_length_b   14.58375600
_cell_length_c   20.62204000
_cell_angle_alpha   90.00000000
_cell_angle_beta   90.00000000
_cell_angle_gamma   90.00000000
_symmetry_Int_Tables_number   1
_chemical_formula_structural   SiO2
_chemical_formula_sum   'Si48 O96'
_cell_volume   2545.69955526
_cell_formula_units_Z   48
loop_
 _symmetry_equiv_pos_site_id
 _symmetry_equiv_pos_as_xyz
  1  'x, y, z'
loop_
 _atom_site_type_symbol
 _atom_site_label
 _atom_site_symmetry_multiplicity
 _atom_site_fract_x
 _atom_site_fract_y
 _atom_site_fract_z
 _atom_site_occupancy
  Si  Si0  1  0.31349900  0.56555150  0.06013100  1
  Si  Si1  1  0.68864300  0.55430050  0.67753100  1
  Si  Si2  1  0.81823400  0.75000000  0.01212200  1
  Si  Si3  1  0.31344100  0.25000000  0.12955500  1
  Si  Si4  1  0.68650100  0.06555150  0.93986900  1
  Si  Si5  1  0.68650100  0.56555150  0.06013100  1
  Si  Si6  1  0.81823400  0.25000000  0.98787800  1
  Si  Si7  1  0.31344100  0.75000000  0.87044500  1
  Si  Si8  1  0.18864300  0.44569950  0.17753100  1
  Si  Si9  1  0.81135700  0.44569950  0.17753100  1
  Si  Si10  1  0.18176600  0.75000000  0.01212200  1
  Si  Si11  1  0.68650100  0.43444850  0.93986900  1
  Si  Si12  1  0.68864300  0.44569950  0.32246900  1
  Si  Si13  1  0.68655900  0.75000000  0.87044500  1
  Si  Si14  1  0.31349900  0.43444850  0.93986900  1
  Si  Si15  1  0.31135700  0.55430050  0.67753100  1
  Si  Si16  1  0.81135700  0.55430050  0.82246900  1
  Si  Si17  1  0.68655900  0.25000000  0.12955500  1
  Si  Si18  1  0.68650100  0.93444850  0.06013100  1
  Si  Si19  1  0.31349900  0.93444850  0.06013100  1
  Si  Si20  1  0.18176600  0.25000000  0.98787800  1
  Si  Si21  1  0.31135700  0.44569950  0.32246900  1
  Si  Si22  1  0.18864300  0.55430050  0.82246900  1
  Si  Si23  1  0.31349900  0.06555150  0.93986900  1
  Si  Si24  1  0.81349900  0.06555150  0.56013100  1
  Si  Si25  1  0.18864300  0.05430050  0.17753100  1
  Si  Si26  1  0.31823400  0.25000000  0.51212200  1
  Si  Si27  1  0.81344100  0.75000000  0.62955500  1
  Si  Si28  1  0.18650100  0.56555150  0.43986900  1
  Si  Si29  1  0.18650100  0.06555150  0.56013100  1
  Si  Si30  1  0.31823400  0.75000000  0.48787800  1
  Si  Si31  1  0.81344100  0.25000000  0.37044500  1
  Si  Si32  1  0.68864300  0.94569950  0.67753100  1
  Si  Si33  1  0.31135700  0.94569950  0.67753100  1
  Si  Si34  1  0.68176600  0.25000000  0.51212200  1
  Si  Si35  1  0.18650100  0.93444850  0.43986900  1
  Si  Si36  1  0.18864300  0.94569950  0.82246900  1
  Si  Si37  1  0.18655900  0.25000000  0.37044500  1
  Si  Si38  1  0.81349900  0.93444850  0.43986900  1
  Si  Si39  1  0.81135700  0.05430050  0.17753100  1
  Si  Si40  1  0.31135700  0.05430050  0.32246900  1
  Si  Si41  1  0.18655900  0.75000000  0.62955500  1
  Si  Si42  1  0.18650100  0.43444850  0.56013100  1
  Si  Si43  1  0.81349900  0.43444850  0.56013100  1
  Si  Si44  1  0.68176600  0.75000000  0.48787800  1
  Si  Si45  1  0.81135700  0.94569950  0.82246900  1
  Si  Si46  1  0.68864300  0.05430050  0.32246900  1
  Si  Si47  1  0.81349900  0.56555150  0.43986900  1
  O  O48  1  0.21257850  0.34004000  0.94332350  1
  O  O49  1  0.78742150  0.65996000  0.05667650  1
  O  O50  1  0.75000000  0.53118550  0.75000000  1
  O  O51  1  0.72082800  0.51444750  0.12823200  1
  O  O52  1  0.00000000  0.75000000  0.98638100  1
  O  O53  1  0.50000000  0.75000000  0.85143700  1
  O  O54  1  0.22811350  0.66039000  0.84015050  1
  O  O55  1  0.78742150  0.15996000  0.94332350  1
  O  O56  1  0.00000000  0.53740450  0.82773600  1
  O  O57  1  0.72082800  0.48555250  0.87176800  1
  O  O58  1  0.77188650  0.33961000  0.15984950  1
  O  O59  1  0.50000000  0.46259550  0.32773600  1
  O  O60  1  0.50000000  0.59018000  0.05488150  1
  O  O61  1  0.78742150  0.34004000  0.94332350  1
  O  O62  1  0.22082800  0.51444750  0.37176800  1
  O  O63  1  0.50000000  0.90982000  0.05488150  1
  O  O64  1  0.21257850  0.15996000  0.94332350  1
  O  O65  1  0.25000000  0.46881450  0.25000000  1
  O  O66  1  0.25000000  0.53118550  0.75000000  1
  O  O67  1  0.77917200  0.51444750  0.37176800  1
  O  O68  1  0.22811350  0.33961000  0.15984950  1
  O  O69  1  0.21257850  0.65996000  0.05667650  1
  O  O70  1  0.29833350  0.25000000  0.05076150  1
  O  O71  1  0.73924300  0.50000000  0.00000000  1
  O  O72  1  0.21257850  0.84004000  0.05667650  1
  O  O73  1  0.50000000  0.40982000  0.94511850  1
  O  O74  1  0.50000000  0.25000000  0.14856300  1
  O  O75  1  0.26075700  0.00000000  0.00000000  1
  O  O76  1  0.73924300  0.00000000  0.00000000  1
  O  O77  1  0.70166650  0.75000000  0.94923850  1
  O  O78  1  0.70166650  0.25000000  0.05076150  1
  O  O79  1  0.78742150  0.84004000  0.05667650  1
  O  O80  1  0.27917200  0.51444750  0.12823200  1
  O  O81  1  0.22811350  0.83961000  0.84015050  1
  O  O82  1  0.26075700  0.50000000  0.00000000  1
  O  O83  1  0.00000000  0.46259550  0.17226400  1
  O  O84  1  0.50000000  0.53740450  0.67226400  1
  O  O85  1  0.50000000  0.09018000  0.94511850  1
  O  O86  1  0.00000000  0.25000000  0.01361900  1
  O  O87  1  0.27917200  0.48555250  0.87176800  1
  O  O88  1  0.77188650  0.16039000  0.15984950  1
  O  O89  1  0.77917200  0.48555250  0.62823200  1
  O  O90  1  0.22082800  0.48555250  0.62823200  1
  O  O91  1  0.75000000  0.46881450  0.25000000  1
  O  O92  1  0.29833350  0.75000000  0.94923850  1
  O  O93  1  0.77188650  0.83961000  0.84015050  1
  O  O94  1  0.77188650  0.66039000  0.84015050  1
  O  O95  1  0.22811350  0.16039000  0.15984950  1
  O  O96  1  0.71257850  0.84004000  0.44332350  1
  O  O97  1  0.28742150  0.15996000  0.55667650  1
  O  O98  1  0.25000000  0.03118550  0.25000000  1
  O  O99  1  0.22082800  0.01444750  0.62823200  1
  O  O100  1  0.50000000  0.25000000  0.48638100  1
  O  O101  1  0.00000000  0.25000000  0.35143700  1
  O  O102  1  0.72811350  0.16039000  0.34015050  1
  O  O103  1  0.28742150  0.65996000  0.44332350  1
  O  O104  1  0.50000000  0.03740450  0.32773600  1
  O  O105  1  0.22082800  0.98555250  0.37176800  1
  O  O106  1  0.27188650  0.83961000  0.65984950  1
  O  O107  1  0.00000000  0.96259550  0.82773600  1
  O  O108  1  0.00000000  0.09018000  0.55488150  1
  O  O109  1  0.28742150  0.84004000  0.44332350  1
  O  O110  1  0.72082800  0.01444750  0.87176800  1
  O  O111  1  0.00000000  0.40982000  0.55488150  1
  O  O112  1  0.71257850  0.65996000  0.44332350  1
  O  O113  1  0.75000000  0.96881450  0.75000000  1
  O  O114  1  0.75000000  0.03118550  0.25000000  1
  O  O115  1  0.27917200  0.01444750  0.87176800  1
  O  O116  1  0.72811350  0.83961000  0.65984950  1
  O  O117  1  0.71257850  0.15996000  0.55667650  1
  O  O118  1  0.79833350  0.75000000  0.55076150  1
  O  O119  1  0.23924300  0.00000000  0.50000000  1
  O  O120  1  0.71257850  0.34004000  0.55667650  1
  O  O121  1  0.00000000  0.90982000  0.44511850  1
  O  O122  1  0.00000000  0.75000000  0.64856300  1
  O  O123  1  0.76075700  0.50000000  0.50000000  1
  O  O124  1  0.23924300  0.50000000  0.50000000  1
  O  O125  1  0.20166650  0.25000000  0.44923850  1
  O  O126  1  0.20166650  0.75000000  0.55076150  1
  O  O127  1  0.28742150  0.34004000  0.55667650  1
  O  O128  1  0.77917200  0.01444750  0.62823200  1
  O  O129  1  0.72811350  0.33961000  0.34015050  1
  O  O130  1  0.76075700  0.00000000  0.50000000  1
  O  O131  1  0.50000000  0.96259550  0.67226400  1
  O  O132  1  0.00000000  0.03740450  0.17226400  1
  O  O133  1  0.00000000  0.59018000  0.44511850  1
  O  O134  1  0.50000000  0.75000000  0.51361900  1
  O  O135  1  0.77917200  0.98555250  0.37176800  1
  O  O136  1  0.27188650  0.66039000  0.65984950  1
  O  O137  1  0.27917200  0.98555250  0.12823200  1
  O  O138  1  0.72082800  0.98555250  0.12823200  1
  O  O139  1  0.25000000  0.96881450  0.75000000  1
  O  O140  1  0.79833350  0.25000000  0.44923850  1
  O  O141  1  0.27188650  0.33961000  0.34015050  1
  O  O142  1  0.27188650  0.16039000  0.34015050  1
  O  O143  1  0.72811350  0.66039000  0.65984950  1
