# generated using pymatgen
data_SiC
_symmetry_space_group_name_H-M   'P 1'
_cell_length_a   3.09470959
_cell_length_b   3.09470959
_cell_length_c   68.33205400
_cell_angle_alpha   90.00000000
_cell_angle_beta   90.00000000
_cell_angle_gamma   120.00000000
_symmetry_Int_Tables_number   1
_chemical_formula_structural   SiC
_chemical_formula_sum   'Si27 C27'
_cell_volume   566.75440935
_cell_formula_units_Z   27
loop_
 _symmetry_equiv_pos_site_id
 _symmetry_equiv_pos_as_xyz
  1  'x, y, z'
loop_
 _atom_site_type_symbol
 _atom_site_label
 _atom_site_symmetry_multiplicity
 _atom_site_fract_x
 _atom_site_fract_y
 _atom_site_fract_z
 _atom_site_occupancy
  Si  Si0  1  0.00000000  0.00000000  0.22221400  1
  Si  Si1  1  0.66666667  0.33333333  0.96295000  1
  Si  Si2  1  0.66666667  0.33333333  0.40737800  1
  Si  Si3  1  0.33333333  0.66666667  0.29626400  1
  Si  Si4  1  0.33333333  0.66666667  0.51848600  1
  Si  Si5  1  0.66666667  0.33333333  0.62959700  1
  Si  Si6  1  0.00000000  0.00000000  0.92589200  1
  Si  Si7  1  0.00000000  0.00000000  0.77776800  1
  Si  Si8  1  0.00000000  0.00000000  0.44443400  1
  Si  Si9  1  0.33333333  0.66666667  0.74070800  1
  Si  Si10  1  0.33333333  0.66666667  0.14813800  1
  Si  Si11  1  0.00000000  0.00000000  0.66665300  1
  Si  Si12  1  0.66666667  0.33333333  0.18517200  1
  Si  Si13  1  0.66666667  0.33333333  0.48148600  1
  Si  Si14  1  0.33333333  0.66666667  0.88889700  1
  Si  Si15  1  0.66666667  0.33333333  0.11107100  1
  Si  Si16  1  0.33333333  0.66666667  0.81479500  1
  Si  Si17  1  0.66666667  0.33333333  0.25926500  1
  Si  Si18  1  0.00000000  0.00000000  0.99998300  1
  Si  Si19  1  0.66666667  0.33333333  0.85183800  1
  Si  Si20  1  0.00000000  0.00000000  0.55554700  1
  Si  Si21  1  0.00000000  0.00000000  0.07407500  1
  Si  Si22  1  0.00000000  0.00000000  0.33332500  1
  Si  Si23  1  0.66666667  0.33333333  0.70370700  1
  Si  Si24  1  0.33333333  0.66666667  0.59260100  1
  Si  Si25  1  0.33333333  0.66666667  0.37038000  1
  Si  Si26  1  0.33333333  0.66666667  0.03702700  1
  C  C27  1  0.00000000  0.00000000  0.80562500  1
  C  C28  1  0.66666667  0.33333333  0.50926300  1
  C  C29  1  0.33333333  0.66666667  0.91667400  1
  C  C30  1  0.33333333  0.66666667  0.06488100  1
  C  C31  1  0.66666667  0.33333333  0.99081400  1
  C  C32  1  0.66666667  0.33333333  0.43515500  1
  C  C33  1  0.66666667  0.33333333  0.13885700  1
  C  C34  1  0.00000000  0.00000000  0.47229000  1
  C  C35  1  0.33333333  0.66666667  0.76849200  1
  C  C36  1  0.33333333  0.66666667  0.39815200  1
  C  C37  1  0.33333333  0.66666667  0.62037400  1
  C  C38  1  0.00000000  0.00000000  0.10185600  1
  C  C39  1  0.00000000  0.00000000  0.02773700  1
  C  C40  1  0.66666667  0.33333333  0.21292600  1
  C  C41  1  0.00000000  0.00000000  0.95367700  1
  C  C42  1  0.00000000  0.00000000  0.58339400  1
  C  C43  1  0.00000000  0.00000000  0.69450300  1
  C  C44  1  0.66666667  0.33333333  0.87969900  1
  C  C45  1  0.33333333  0.66666667  0.17599400  1
  C  C46  1  0.00000000  0.00000000  0.36117800  1
  C  C47  1  0.66666667  0.33333333  0.73147900  1
  C  C48  1  0.33333333  0.66666667  0.32404400  1
  C  C49  1  0.66666667  0.33333333  0.65736900  1
  C  C50  1  0.66666667  0.33333333  0.28704100  1
  C  C51  1  0.00000000  0.00000000  0.25007000  1
  C  C52  1  0.33333333  0.66666667  0.54625900  1
  C  C53  1  0.33333333  0.66666667  0.84255600  1
