# generated using pymatgen
data_BeF2
_symmetry_space_group_name_H-M   'P 1'
_cell_length_a   4.91690621
_cell_length_b   4.91690621
_cell_length_c   5.39057300
_cell_angle_alpha   90.00000000
_cell_angle_beta   90.00000000
_cell_angle_gamma   120.00000000
_symmetry_Int_Tables_number   1
_chemical_formula_structural   BeF2
_chemical_formula_sum   'Be3 F6'
_cell_volume   112.86243415
_cell_formula_units_Z   3
loop_
 _symmetry_equiv_pos_site_id
 _symmetry_equiv_pos_as_xyz
  1  'x, y, z'
loop_
 _atom_site_type_symbol
 _atom_site_label
 _atom_site_symmetry_multiplicity
 _atom_site_fract_x
 _atom_site_fract_y
 _atom_site_fract_z
 _atom_site_occupancy
  Be  Be0  1  0.50000000  0.50000000  0.33333333  1
  Be  Be1  1  0.00000000  0.50000000  0.66666667  1
  Be  Be2  1  0.50000000  0.00000000  0.00000000  1
  F  F3  1  0.58022100  0.79011050  0.16666667  1
  F  F4  1  0.79011050  0.58022100  0.50000000  1
  F  F5  1  0.20988950  0.41977900  0.50000000  1
  F  F6  1  0.20988950  0.79011050  0.83333333  1
  F  F7  1  0.79011050  0.20988950  0.83333333  1
  F  F8  1  0.41977900  0.20988950  0.16666667  1
