# generated using pymatgen
data_NaLi3GeO4
_symmetry_space_group_name_H-M   'P 1'
_cell_length_a   11.20568000
_cell_length_b   11.20568000
_cell_length_c   12.96003800
_cell_angle_alpha   90.00000000
_cell_angle_beta   90.00000000
_cell_angle_gamma   90.00000000
_symmetry_Int_Tables_number   1
_chemical_formula_structural   NaLi3GeO4
_chemical_formula_sum   'Na16 Li48 Ge16 O64'
_cell_volume   1627.35651640
_cell_formula_units_Z   16
loop_
 _symmetry_equiv_pos_site_id
 _symmetry_equiv_pos_as_xyz
  1  'x, y, z'
loop_
 _atom_site_type_symbol
 _atom_site_label
 _atom_site_symmetry_multiplicity
 _atom_site_fract_x
 _atom_site_fract_y
 _atom_site_fract_z
 _atom_site_occupancy
  Na  Na0  1  0.73721750  0.27492450  0.28097550  1
  Na  Na1  1  0.26278250  0.22507550  0.96902450  1
  Na  Na2  1  0.27492450  0.26278250  0.71902450  1
  Na  Na3  1  0.76278250  0.22507550  0.78097550  1
  Na  Na4  1  0.23721750  0.27492450  0.46902450  1
  Na  Na5  1  0.27492450  0.76278250  0.53097550  1
  Na  Na6  1  0.22507550  0.73721750  0.03097550  1
  Na  Na7  1  0.22507550  0.23721750  0.21902450  1
  Na  Na8  1  0.23721750  0.77492450  0.78097550  1
  Na  Na9  1  0.76278250  0.72507550  0.46902450  1
  Na  Na10  1  0.77492450  0.76278250  0.21902450  1
  Na  Na11  1  0.26278250  0.72507550  0.28097550  1
  Na  Na12  1  0.73721750  0.77492450  0.96902450  1
  Na  Na13  1  0.77492450  0.26278250  0.03097550  1
  Na  Na14  1  0.72507550  0.23721750  0.53097550  1
  Na  Na15  1  0.72507550  0.73721750  0.71902450  1
  Li  Li16  1  0.15669900  0.97892100  0.43115800  1
  Li  Li17  1  0.00579400  0.14171600  0.30547100  1
  Li  Li18  1  0.02865550  0.16205250  0.06147650  1
  Li  Li19  1  0.02865550  0.66205250  0.18852350  1
  Li  Li20  1  0.14171600  0.99420600  0.69452900  1
  Li  Li21  1  0.66205250  0.47134450  0.43852350  1
  Li  Li22  1  0.49420600  0.85828400  0.44452900  1
  Li  Li23  1  0.02107900  0.15669900  0.56884200  1
  Li  Li24  1  0.35828400  0.00579400  0.05547100  1
  Li  Li25  1  0.34330100  0.02107900  0.31884200  1
  Li  Li26  1  0.47892100  0.34330100  0.06884200  1
  Li  Li27  1  0.33794750  0.52865550  0.43852350  1
  Li  Li28  1  0.35828400  0.50579400  0.19452900  1
  Li  Li29  1  0.34330100  0.52107900  0.93115800  1
  Li  Li30  1  0.97134450  0.83794750  0.06147650  1
  Li  Li31  1  0.64171600  0.99420600  0.05547100  1
  Li  Li32  1  0.65669900  0.97892100  0.31884200  1
  Li  Li33  1  0.49420600  0.35828400  0.80547100  1
  Li  Li34  1  0.97134450  0.33794750  0.18852350  1
  Li  Li35  1  0.47892100  0.84330100  0.18115800  1
  Li  Li36  1  0.83794750  0.52865550  0.31147650  1
  Li  Li37  1  0.52107900  0.15669900  0.18115800  1
  Li  Li38  1  0.50579400  0.14171600  0.44452900  1
  Li  Li39  1  0.16205250  0.47134450  0.31147650  1
  Li  Li40  1  0.65669900  0.47892100  0.93115800  1
  Li  Li41  1  0.50579400  0.64171600  0.80547100  1
  Li  Li42  1  0.52865550  0.66205250  0.56147650  1
  Li  Li43  1  0.52865550  0.16205250  0.68852350  1
  Li  Li44  1  0.64171600  0.49420600  0.19452900  1
  Li  Li45  1  0.16205250  0.97134450  0.93852350  1
  Li  Li46  1  0.99420600  0.35828400  0.94452900  1
  Li  Li47  1  0.52107900  0.65669900  0.06884200  1
  Li  Li48  1  0.85828400  0.50579400  0.55547100  1
  Li  Li49  1  0.84330100  0.52107900  0.81884200  1
  Li  Li50  1  0.97892100  0.84330100  0.56884200  1
  Li  Li51  1  0.83794750  0.02865550  0.93852350  1
  Li  Li52  1  0.85828400  0.00579400  0.69452900  1
  Li  Li53  1  0.84330100  0.02107900  0.43115800  1
  Li  Li54  1  0.47134450  0.33794750  0.56147650  1
  Li  Li55  1  0.14171600  0.49420600  0.55547100  1
  Li  Li56  1  0.15669900  0.47892100  0.81884200  1
  Li  Li57  1  0.99420600  0.85828400  0.30547100  1
  Li  Li58  1  0.47134450  0.83794750  0.68852350  1
  Li  Li59  1  0.97892100  0.34330100  0.68115800  1
  Li  Li60  1  0.33794750  0.02865550  0.81147650  1
  Li  Li61  1  0.02107900  0.65669900  0.68115800  1
  Li  Li62  1  0.00579400  0.64171600  0.94452900  1
  Li  Li63  1  0.66205250  0.97134450  0.81147650  1
  Ge  Ge64  1  0.32289350  0.53434450  0.68133150  1
  Ge  Ge65  1  0.96565550  0.32289350  0.43133150  1
  Ge  Ge66  1  0.17710650  0.96565550  0.18133150  1
  Ge  Ge67  1  0.17710650  0.46565550  0.06866850  1
  Ge  Ge68  1  0.32289350  0.03434450  0.56866850  1
  Ge  Ge69  1  0.03434450  0.17710650  0.81866850  1
  Ge  Ge70  1  0.53434450  0.17710650  0.93133150  1
  Ge  Ge71  1  0.46565550  0.32289350  0.31866850  1
  Ge  Ge72  1  0.82289350  0.03434450  0.18133150  1
  Ge  Ge73  1  0.46565550  0.82289350  0.93133150  1
  Ge  Ge74  1  0.67710650  0.46565550  0.68133150  1
  Ge  Ge75  1  0.67710650  0.96565550  0.56866850  1
  Ge  Ge76  1  0.82289350  0.53434450  0.06866850  1
  Ge  Ge77  1  0.53434450  0.67710650  0.31866850  1
  Ge  Ge78  1  0.03434450  0.67710650  0.43133150  1
  Ge  Ge79  1  0.96565550  0.82289350  0.81866850  1
  O  O80  1  0.41892000  0.17078400  0.30872700  1
  O  O81  1  0.33433850  0.41146950  0.32469350  1
  O  O82  1  0.15090300  0.55050300  0.95488500  1
  O  O83  1  0.05949500  0.32835700  0.32061900  1
  O  O84  1  0.55949500  0.32835700  0.42938100  1
  O  O85  1  0.82835700  0.94050500  0.07061900  1
  O  O86  1  0.66566150  0.08853050  0.92530650  1
  O  O87  1  0.94050500  0.67164300  0.32061900  1
  O  O88  1  0.67078400  0.08108000  0.19127300  1
  O  O89  1  0.17164300  0.55949500  0.17938100  1
  O  O90  1  0.58108000  0.32921600  0.94127300  1
  O  O91  1  0.83433850  0.41146950  0.42530650  1
  O  O92  1  0.44949700  0.15090300  0.04511500  1
  O  O93  1  0.34909700  0.94949700  0.45488500  1
  O  O94  1  0.32921600  0.91892000  0.19127300  1
  O  O95  1  0.82835700  0.44050500  0.17938100  1
  O  O96  1  0.44050500  0.67164300  0.42938100  1
  O  O97  1  0.34909700  0.44949700  0.79511500  1
  O  O98  1  0.15090300  0.05050300  0.29511500  1
  O  O99  1  0.91146950  0.16566150  0.17530650  1
  O  O100  1  0.55050300  0.34909700  0.20488500  1
  O  O101  1  0.91892000  0.17078400  0.44127300  1
  O  O102  1  0.05050300  0.34909700  0.54511500  1
  O  O103  1  0.17078400  0.08108000  0.55872700  1
  O  O104  1  0.08853050  0.33433850  0.07469350  1
  O  O105  1  0.17164300  0.05949500  0.07061900  1
  O  O106  1  0.32921600  0.41892000  0.05872700  1
  O  O107  1  0.58853050  0.33433850  0.67530650  1
  O  O108  1  0.58108000  0.82921600  0.30872700  1
  O  O109  1  0.41146950  0.16566150  0.57469350  1
  O  O110  1  0.94949700  0.15090300  0.70488500  1
  O  O111  1  0.16566150  0.08853050  0.82469350  1
  O  O112  1  0.91892000  0.67078400  0.80872700  1
  O  O113  1  0.83433850  0.91146950  0.82469350  1
  O  O114  1  0.65090300  0.05050300  0.45488500  1
  O  O115  1  0.55949500  0.82835700  0.82061900  1
  O  O116  1  0.05949500  0.82835700  0.92938100  1
  O  O117  1  0.32835700  0.44050500  0.57061900  1
  O  O118  1  0.16566150  0.58853050  0.42530650  1
  O  O119  1  0.44050500  0.17164300  0.82061900  1
  O  O120  1  0.17078400  0.58108000  0.69127300  1
  O  O121  1  0.67164300  0.05949500  0.67938100  1
  O  O122  1  0.08108000  0.82921600  0.44127300  1
  O  O123  1  0.33433850  0.91146950  0.92530650  1
  O  O124  1  0.94949700  0.65090300  0.54511500  1
  O  O125  1  0.84909700  0.44949700  0.95488500  1
  O  O126  1  0.82921600  0.41892000  0.69127300  1
  O  O127  1  0.32835700  0.94050500  0.67938100  1
  O  O128  1  0.94050500  0.17164300  0.92938100  1
  O  O129  1  0.84909700  0.94949700  0.29511500  1
  O  O130  1  0.65090300  0.55050300  0.79511500  1
  O  O131  1  0.41146950  0.66566150  0.67530650  1
  O  O132  1  0.05050300  0.84909700  0.70488500  1
  O  O133  1  0.41892000  0.67078400  0.94127300  1
  O  O134  1  0.55050300  0.84909700  0.04511500  1
  O  O135  1  0.67078400  0.58108000  0.05872700  1
  O  O136  1  0.58853050  0.83433850  0.57469350  1
  O  O137  1  0.67164300  0.55949500  0.57061900  1
  O  O138  1  0.82921600  0.91892000  0.55872700  1
  O  O139  1  0.08853050  0.83433850  0.17530650  1
  O  O140  1  0.08108000  0.32921600  0.80872700  1
  O  O141  1  0.91146950  0.66566150  0.07469350  1
  O  O142  1  0.44949700  0.65090300  0.20488500  1
  O  O143  1  0.66566150  0.58853050  0.32469350  1
