# generated using pymatgen
data_AlPO4
_symmetry_space_group_name_H-M   'P 1'
_cell_length_a   13.86563599
_cell_length_b   13.86563599
_cell_length_c   20.19726600
_cell_angle_alpha   90.00000000
_cell_angle_beta   90.00000000
_cell_angle_gamma   120.00000000
_symmetry_Int_Tables_number   1
_chemical_formula_structural   AlPO4
_chemical_formula_sum   'Al24 P24 O96'
_cell_volume   3362.81368360
_cell_formula_units_Z   24
loop_
 _symmetry_equiv_pos_site_id
 _symmetry_equiv_pos_as_xyz
  1  'x, y, z'
loop_
 _atom_site_type_symbol
 _atom_site_label
 _atom_site_symmetry_multiplicity
 _atom_site_fract_x
 _atom_site_fract_y
 _atom_site_fract_z
 _atom_site_occupancy
  Al  Al0  1  0.56307600  0.66817200  0.32682700  1
  Al  Al1  1  0.99656800  0.22750100  0.57606800  1
  Al  Al2  1  0.23093300  0.00343200  0.57606800  1
  Al  Al3  1  0.56307600  0.89490400  0.17317300  1
  Al  Al4  1  0.99656800  0.76906700  0.92393200  1
  Al  Al5  1  0.10509600  0.43692400  0.32682700  1
  Al  Al6  1  0.66817200  0.56307600  0.82682700  1
  Al  Al7  1  0.23093300  0.22750100  0.92393200  1
  Al  Al8  1  0.22750100  0.99656800  0.07606800  1
  Al  Al9  1  0.77249900  0.76906700  0.57606800  1
  Al  Al10  1  0.77249900  0.00343200  0.92393200  1
  Al  Al11  1  0.89490400  0.33182800  0.82682700  1
  Al  Al12  1  0.66817200  0.10509600  0.67317300  1
  Al  Al13  1  0.33182800  0.43692400  0.17317300  1
  Al  Al14  1  0.43692400  0.33182800  0.67317300  1
  Al  Al15  1  0.33182800  0.89490400  0.32682700  1
  Al  Al16  1  0.89490400  0.56307600  0.67317300  1
  Al  Al17  1  0.00343200  0.77249900  0.42393200  1
  Al  Al18  1  0.43692400  0.10509600  0.82682700  1
  Al  Al19  1  0.10509600  0.66817200  0.17317300  1
  Al  Al20  1  0.76906700  0.99656800  0.42393200  1
  Al  Al21  1  0.00343200  0.23093300  0.07606800  1
  Al  Al22  1  0.76906700  0.77249900  0.07606800  1
  Al  Al23  1  0.22750100  0.23093300  0.42393200  1
  P  P24  1  0.00374900  0.23083100  0.92055100  1
  P  P25  1  0.10417800  0.43950600  0.17010700  1
  P  P26  1  0.99625100  0.76916900  0.07944900  1
  P  P27  1  0.89582200  0.33532800  0.67010700  1
  P  P28  1  0.33532800  0.89582200  0.17010700  1
  P  P29  1  0.77291800  0.00374900  0.07944900  1
  P  P30  1  0.76916900  0.77291800  0.92055100  1
  P  P31  1  0.43950600  0.33532800  0.82989300  1
  P  P32  1  0.76916900  0.99625100  0.57944900  1
  P  P33  1  0.23083100  0.00374900  0.42055100  1
  P  P34  1  0.89582200  0.56049400  0.82989300  1
  P  P35  1  0.23083100  0.22708200  0.07944900  1
  P  P36  1  0.56049400  0.89582200  0.32989300  1
  P  P37  1  0.22708200  0.99625100  0.92055100  1
  P  P38  1  0.77291800  0.76916900  0.42055100  1
  P  P39  1  0.66467200  0.56049400  0.67010700  1
  P  P40  1  0.22708200  0.23083100  0.57944900  1
  P  P41  1  0.56049400  0.66467200  0.17010700  1
  P  P42  1  0.33532800  0.43950600  0.32989300  1
  P  P43  1  0.00374900  0.77291800  0.57944900  1
  P  P44  1  0.43950600  0.10417800  0.67010700  1
  P  P45  1  0.10417800  0.66467200  0.32989300  1
  P  P46  1  0.99625100  0.22708200  0.42055100  1
  P  P47  1  0.66467200  0.10417800  0.82989300  1
  O  O48  1  0.30875200  0.32236100  0.12549900  1
  O  O49  1  0.67763900  0.69124800  0.37450100  1
  O  O50  1  0.45902300  0.90650900  0.34835500  1
  O  O51  1  0.91071000  0.80173100  0.58929600  1
  O  O52  1  0.30875200  0.98639100  0.37450100  1
  O  O53  1  0.24001000  0.12439300  0.09686400  1
  O  O54  1  0.69124800  0.67763900  0.87450100  1
  O  O55  1  0.00423400  0.26720800  0.99272200  1
  O  O56  1  0.59376200  0.66518900  0.24291200  1
  O  O57  1  0.54097700  0.09349100  0.65164500  1
  O  O58  1  0.32236100  0.01360900  0.87450100  1
  O  O59  1  0.73702600  0.73279200  0.49272200  1
  O  O60  1  0.69124800  0.01360900  0.62549900  1
  O  O61  1  0.40623800  0.07142700  0.74291200  1
  O  O62  1  0.45902300  0.55251400  0.15164500  1
  O  O63  1  0.75747900  0.53190100  0.65853700  1
  O  O64  1  0.09349100  0.55251400  0.34835500  1
  O  O65  1  0.24001000  0.11561700  0.40313600  1
  O  O66  1  0.24252100  0.77442200  0.15853700  1
  O  O67  1  0.31792100  0.34221200  0.37404600  1
  O  O68  1  0.34221200  0.31792100  0.87404600  1
  O  O69  1  0.54097700  0.44748600  0.84835500  1
  O  O70  1  0.26297400  0.26720800  0.50727800  1
  O  O71  1  0.26720800  0.00423400  0.49272200  1
  O  O72  1  0.89102100  0.80173100  0.91070400  1
  O  O73  1  0.98639100  0.67763900  0.62549900  1
  O  O74  1  0.01360900  0.32236100  0.37450100  1
  O  O75  1  0.01360900  0.69124800  0.12549900  1
  O  O76  1  0.10897900  0.91071000  0.41070400  1
  O  O77  1  0.91071000  0.10897900  0.91070400  1
  O  O78  1  0.09349100  0.54097700  0.15164500  1
  O  O79  1  0.65778800  0.97570900  0.37404600  1
  O  O80  1  0.87560700  0.11561700  0.09686400  1
  O  O81  1  0.68207900  0.02429100  0.87404600  1
  O  O82  1  0.66518900  0.07142700  0.75708800  1
  O  O83  1  0.22557800  0.75747900  0.34146300  1
  O  O84  1  0.32236100  0.30875200  0.62549900  1
  O  O85  1  0.26720800  0.26297400  0.00727800  1
  O  O86  1  0.24252100  0.46809900  0.34146300  1
  O  O87  1  0.53190100  0.77442200  0.34146300  1
  O  O88  1  0.19826900  0.10897900  0.58929600  1
  O  O89  1  0.66518900  0.59376200  0.74291200  1
  O  O90  1  0.88438300  0.12439300  0.40313600  1
  O  O91  1  0.75999000  0.88438300  0.59686400  1
  O  O92  1  0.08929000  0.89102100  0.08929600  1
  O  O93  1  0.08929000  0.19826900  0.41070400  1
  O  O94  1  0.99576600  0.26297400  0.49272200  1
  O  O95  1  0.34221200  0.02429100  0.62595400  1
  O  O96  1  0.19826900  0.08929000  0.91070400  1
  O  O97  1  0.88438300  0.75999000  0.09686400  1
  O  O98  1  0.90650900  0.44748600  0.65164500  1
  O  O99  1  0.80173100  0.89102100  0.41070400  1
  O  O100  1  0.22557800  0.46809900  0.15853700  1
  O  O101  1  0.44748600  0.54097700  0.34835500  1
  O  O102  1  0.33481100  0.40623800  0.25708800  1
  O  O103  1  0.73279200  0.73702600  0.99272200  1
  O  O104  1  0.33481100  0.92857300  0.24291200  1
  O  O105  1  0.97570900  0.31792100  0.62595400  1
  O  O106  1  0.55251400  0.45902300  0.65164500  1
  O  O107  1  0.67763900  0.98639100  0.12549900  1
  O  O108  1  0.40623800  0.33481100  0.75708800  1
  O  O109  1  0.00423400  0.73702600  0.50727800  1
  O  O110  1  0.98639100  0.30875200  0.87450100  1
  O  O111  1  0.80173100  0.91071000  0.08929600  1
  O  O112  1  0.87560700  0.75999000  0.40313600  1
  O  O113  1  0.89102100  0.08929000  0.58929600  1
  O  O114  1  0.46809900  0.22557800  0.65853700  1
  O  O115  1  0.59376200  0.92857300  0.25708800  1
  O  O116  1  0.11561700  0.24001000  0.90313600  1
  O  O117  1  0.75747900  0.22557800  0.84146300  1
  O  O118  1  0.92857300  0.59376200  0.75708800  1
  O  O119  1  0.10897900  0.19826900  0.08929600  1
  O  O120  1  0.07142700  0.66518900  0.25708800  1
  O  O121  1  0.26297400  0.99576600  0.99272200  1
  O  O122  1  0.44748600  0.90650900  0.15164500  1
  O  O123  1  0.12439300  0.88438300  0.90313600  1
  O  O124  1  0.02429100  0.34221200  0.12595400  1
  O  O125  1  0.07142700  0.40623800  0.24291200  1
  O  O126  1  0.99576600  0.73279200  0.00727800  1
  O  O127  1  0.90650900  0.45902300  0.84835500  1
  O  O128  1  0.12439300  0.24001000  0.59686400  1
  O  O129  1  0.11561700  0.87560700  0.59686400  1
  O  O130  1  0.97570900  0.65778800  0.87404600  1
  O  O131  1  0.31792100  0.97570900  0.12595400  1
  O  O132  1  0.77442200  0.24252100  0.65853700  1
  O  O133  1  0.73279200  0.99576600  0.50727800  1
  O  O134  1  0.65778800  0.68207900  0.12595400  1
  O  O135  1  0.73702600  0.00423400  0.00727800  1
  O  O136  1  0.02429100  0.68207900  0.37404600  1
  O  O137  1  0.68207900  0.65778800  0.62595400  1
  O  O138  1  0.77442200  0.53190100  0.84146300  1
  O  O139  1  0.53190100  0.75747900  0.15853700  1
  O  O140  1  0.55251400  0.09349100  0.84835500  1
  O  O141  1  0.75999000  0.87560700  0.90313600  1
  O  O142  1  0.92857300  0.33481100  0.74291200  1
  O  O143  1  0.46809900  0.24252100  0.84146300  1
