# generated using pymatgen
data_SiO2
_symmetry_space_group_name_H-M   'P 1'
_cell_length_a   4.74710600
_cell_length_b   8.16842300
_cell_length_c   8.60041600
_cell_angle_alpha   90.00000000
_cell_angle_beta   90.00000000
_cell_angle_gamma   90.00000000
_symmetry_Int_Tables_number   1
_chemical_formula_structural   SiO2
_chemical_formula_sum   'Si8 O16'
_cell_volume   333.49291154
_cell_formula_units_Z   8
loop_
 _symmetry_equiv_pos_site_id
 _symmetry_equiv_pos_as_xyz
  1  'x, y, z'
loop_
 _atom_site_type_symbol
 _atom_site_label
 _atom_site_symmetry_multiplicity
 _atom_site_fract_x
 _atom_site_fract_y
 _atom_site_fract_z
 _atom_site_occupancy
  Si  Si0  1  0.14483000  0.06303700  0.15898200  1
  Si  Si1  1  0.14483000  0.43696300  0.65898200  1
  Si  Si2  1  0.64483000  0.56303700  0.84101800  1
  Si  Si3  1  0.35517000  0.43696300  0.15898200  1
  Si  Si4  1  0.85517000  0.56303700  0.34101800  1
  Si  Si5  1  0.85517000  0.93696300  0.84101800  1
  Si  Si6  1  0.64483000  0.93696300  0.34101800  1
  Si  Si7  1  0.35517000  0.06303700  0.65898200  1
  O  O8  1  0.58596400  0.05348200  0.79987400  1
  O  O9  1  0.58596400  0.44651800  0.29987400  1
  O  O10  1  0.41403600  0.55348200  0.70012600  1
  O  O11  1  0.25000000  0.25000000  0.63904300  1
  O  O12  1  0.08596400  0.55348200  0.20012600  1
  O  O13  1  0.41403600  0.94651800  0.20012600  1
  O  O14  1  0.91403600  0.05348200  0.29987400  1
  O  O15  1  0.00000000  0.50000000  0.50000000  1
  O  O16  1  0.75000000  0.75000000  0.36095700  1
  O  O17  1  0.75000000  0.75000000  0.86095700  1
  O  O18  1  0.91403600  0.44651800  0.79987400  1
  O  O19  1  0.50000000  0.50000000  0.00000000  1
  O  O20  1  0.25000000  0.25000000  0.13904300  1
  O  O21  1  0.08596400  0.94651800  0.70012600  1
  O  O22  1  0.00000000  0.00000000  0.00000000  1
  O  O23  1  0.50000000  0.00000000  0.50000000  1
