# generated using pymatgen
data_KMgV3Cu4O13
_symmetry_space_group_name_H-M   'P 1'
_cell_length_a   8.37606700
_cell_length_b   6.08401000
_cell_length_c   10.97292210
_cell_angle_alpha   90.00000000
_cell_angle_beta   98.29212521
_cell_angle_gamma   90.00000000
_symmetry_Int_Tables_number   1
_chemical_formula_structural   KMgV3Cu4O13
_chemical_formula_sum   'K2 Mg2 V6 Cu8 O26'
_cell_volume   553.33504731
_cell_formula_units_Z   2
loop_
 _symmetry_equiv_pos_site_id
 _symmetry_equiv_pos_as_xyz
  1  'x, y, z'
loop_
 _atom_site_type_symbol
 _atom_site_label
 _atom_site_symmetry_multiplicity
 _atom_site_fract_x
 _atom_site_fract_y
 _atom_site_fract_z
 _atom_site_occupancy
  K  K0  1  0.01845800  0.75000000  0.90015000  1
  K  K1  1  0.98154200  0.25000000  0.09985000  1
  Mg  Mg2  1  0.69181600  0.25000000  0.85532100  1
  Mg  Mg3  1  0.30818400  0.75000000  0.14467900  1
  V  V4  1  0.63343500  0.75000000  0.99676500  1
  V  V5  1  0.32358700  0.25000000  0.37020800  1
  V  V6  1  0.36656500  0.25000000  0.00323500  1
  V  V7  1  0.96895300  0.75000000  0.29064300  1
  V  V8  1  0.67641300  0.75000000  0.62979200  1
  V  V9  1  0.03104700  0.25000000  0.70935700  1
  Cu  Cu10  1  0.39256500  0.99869800  0.73103600  1
  Cu  Cu11  1  0.60743500  0.49869800  0.26896400  1
  Cu  Cu12  1  0.90149100  0.25000000  0.39531700  1
  Cu  Cu13  1  0.09850900  0.75000000  0.60468300  1
  Cu  Cu14  1  0.60743500  0.00130200  0.26896400  1
  Cu  Cu15  1  0.35568200  0.75000000  0.44278100  1
  Cu  Cu16  1  0.64431800  0.25000000  0.55721900  1
  Cu  Cu17  1  0.39256500  0.50130200  0.73103600  1
  O  O18  1  0.88459100  0.25000000  0.57455500  1
  O  O19  1  0.11540900  0.75000000  0.42544500  1
  O  O20  1  0.65884000  0.25000000  0.37847000  1
  O  O21  1  0.34116000  0.75000000  0.62153000  1
  O  O22  1  0.40938400  0.25000000  0.52352200  1
  O  O23  1  0.59061600  0.75000000  0.47647800  1
  O  O24  1  0.07143000  0.75000000  0.16803800  1
  O  O25  1  0.92857000  0.25000000  0.83196200  1
  O  O26  1  0.15848400  0.01644100  0.72106600  1
  O  O27  1  0.84151600  0.51644100  0.27893400  1
  O  O28  1  0.84151600  0.98355900  0.27893400  1
  O  O29  1  0.15848400  0.48355900  0.72106600  1
  O  O30  1  0.87962800  0.75000000  0.63375200  1
  O  O31  1  0.12037200  0.25000000  0.36624800  1
  O  O32  1  0.56362800  0.75000000  0.15771800  1
  O  O33  1  0.43637200  0.25000000  0.84228200  1
  O  O34  1  0.25669300  0.01965700  0.02890700  1
  O  O35  1  0.74330700  0.51965700  0.97109300  1
  O  O36  1  0.53437300  0.25000000  0.10983700  1
  O  O37  1  0.46562700  0.75000000  0.89016300  1
  O  O38  1  0.37858700  0.50317600  0.29844000  1
  O  O39  1  0.62141300  0.00317600  0.70156000  1
  O  O40  1  0.62141300  0.49682400  0.70156000  1
  O  O41  1  0.37858700  0.99682400  0.29844000  1
  O  O42  1  0.25669300  0.48034300  0.02890700  1
  O  O43  1  0.74330700  0.98034300  0.97109300  1
