# generated using pymatgen
data_Ga4GeS4
_symmetry_space_group_name_H-M   'P 1'
_cell_length_a   11.63714700
_cell_length_b   11.63714700
_cell_length_c   11.63714700
_cell_angle_alpha   90.00000000
_cell_angle_beta   90.00000000
_cell_angle_gamma   90.00000000
_symmetry_Int_Tables_number   1
_chemical_formula_structural   Ga4GeS4
_chemical_formula_sum   'Ga32 Ge8 S32'
_cell_volume   1575.93957273
_cell_formula_units_Z   8
loop_
 _symmetry_equiv_pos_site_id
 _symmetry_equiv_pos_as_xyz
  1  'x, y, z'
loop_
 _atom_site_type_symbol
 _atom_site_label
 _atom_site_symmetry_multiplicity
 _atom_site_fract_x
 _atom_site_fract_y
 _atom_site_fract_z
 _atom_site_occupancy
  Ga  Ga0  1  0.22274000  0.77726000  0.27726000  1
  Ga  Ga1  1  0.22357800  0.53759700  0.06626200  1
  Ga  Ga2  1  0.43373800  0.77642200  0.03759700  1
  Ga  Ga3  1  0.46240300  0.56626200  0.27642200  1
  Ga  Ga4  1  0.53759700  0.06626200  0.22357800  1
  Ga  Ga5  1  0.56626200  0.27642200  0.46240300  1
  Ga  Ga6  1  0.72274000  0.72274000  0.72274000  1
  Ga  Ga7  1  0.72274000  0.77726000  0.22274000  1
  Ga  Ga8  1  0.72357800  0.96240300  0.93373800  1
  Ga  Ga9  1  0.72357800  0.53759700  0.43373800  1
  Ga  Ga10  1  0.77642200  0.03759700  0.43373800  1
  Ga  Ga11  1  0.77726000  0.27726000  0.22274000  1
  Ga  Ga12  1  0.93373800  0.72357800  0.96240300  1
  Ga  Ga13  1  0.93373800  0.77642200  0.46240300  1
  Ga  Ga14  1  0.96240300  0.93373800  0.72357800  1
  Ga  Ga15  1  0.96240300  0.56626200  0.22357800  1
  Ga  Ga16  1  0.03759700  0.43373800  0.77642200  1
  Ga  Ga17  1  0.03759700  0.06626200  0.27642200  1
  Ga  Ga18  1  0.06626200  0.22357800  0.53759700  1
  Ga  Ga19  1  0.06626200  0.27642200  0.03759700  1
  Ga  Ga20  1  0.22274000  0.72274000  0.77726000  1
  Ga  Ga21  1  0.22357800  0.96240300  0.56626200  1
  Ga  Ga22  1  0.27642200  0.46240300  0.56626200  1
  Ga  Ga23  1  0.27642200  0.03759700  0.06626200  1
  Ga  Ga24  1  0.27726000  0.22274000  0.77726000  1
  Ga  Ga25  1  0.27726000  0.27726000  0.27726000  1
  Ga  Ga26  1  0.43373800  0.72357800  0.53759700  1
  Ga  Ga27  1  0.46240300  0.93373800  0.77642200  1
  Ga  Ga28  1  0.53759700  0.43373800  0.72357800  1
  Ga  Ga29  1  0.56626200  0.22357800  0.96240300  1
  Ga  Ga30  1  0.77642200  0.46240300  0.93373800  1
  Ga  Ga31  1  0.77726000  0.22274000  0.72274000  1
  Ge  Ge32  1  0.09985100  0.90014900  0.40014900  1
  Ge  Ge33  1  0.59985100  0.59985100  0.59985100  1
  Ge  Ge34  1  0.59985100  0.90014900  0.09985100  1
  Ge  Ge35  1  0.90014900  0.40014900  0.09985100  1
  Ge  Ge36  1  0.09985100  0.59985100  0.90014900  1
  Ge  Ge37  1  0.40014900  0.09985100  0.90014900  1
  Ge  Ge38  1  0.40014900  0.40014900  0.40014900  1
  Ge  Ge39  1  0.90014900  0.09985100  0.59985100  1
  S  S40  1  0.41910900  0.58089100  0.08089100  1
  S  S41  1  0.58089100  0.08089100  0.41910900  1
  S  S42  1  0.91910900  0.91910900  0.91910900  1
  S  S43  1  0.91910900  0.58089100  0.41910900  1
  S  S44  1  0.08089100  0.41910900  0.58089100  1
  S  S45  1  0.08089100  0.08089100  0.08089100  1
  S  S46  1  0.08261800  0.24718600  0.83680900  1
  S  S47  1  0.08261800  0.25281400  0.33680900  1
  S  S48  1  0.16319100  0.58261800  0.25281400  1
  S  S49  1  0.16319100  0.91738200  0.75281400  1
  S  S50  1  0.24718600  0.83680900  0.08261800  1
  S  S51  1  0.24718600  0.66319100  0.58261800  1
  S  S52  1  0.25281400  0.16319100  0.58261800  1
  S  S53  1  0.25281400  0.33680900  0.08261800  1
  S  S54  1  0.33680900  0.08261800  0.25281400  1
  S  S55  1  0.33680900  0.41738200  0.75281400  1
  S  S56  1  0.41738200  0.75281400  0.33680900  1
  S  S57  1  0.41738200  0.74718600  0.83680900  1
  S  S58  1  0.41910900  0.91910900  0.58089100  1
  S  S59  1  0.58089100  0.41910900  0.91910900  1
  S  S60  1  0.58261800  0.25281400  0.16319100  1
  S  S61  1  0.58261800  0.24718600  0.66319100  1
  S  S62  1  0.66319100  0.58261800  0.24718600  1
  S  S63  1  0.66319100  0.91738200  0.74718600  1
  S  S64  1  0.74718600  0.66319100  0.91738200  1
  S  S65  1  0.74718600  0.83680900  0.41738200  1
  S  S66  1  0.75281400  0.16319100  0.91738200  1
  S  S67  1  0.75281400  0.33680900  0.41738200  1
  S  S68  1  0.83680900  0.08261800  0.24718600  1
  S  S69  1  0.83680900  0.41738200  0.74718600  1
  S  S70  1  0.91738200  0.74718600  0.66319100  1
  S  S71  1  0.91738200  0.75281400  0.16319100  1
