# generated using pymatgen
data_La6B(NO2)3
_symmetry_space_group_name_H-M   'P 1'
_cell_length_a   3.68158200
_cell_length_b   25.03835200
_cell_length_c   11.00787800
_cell_angle_alpha   90.00000000
_cell_angle_beta   90.00000000
_cell_angle_gamma   90.00000000
_symmetry_Int_Tables_number   1
_chemical_formula_structural   La6B(NO2)3
_chemical_formula_sum   'La24 B4 N12 O24'
_cell_volume   1014.71440628
_cell_formula_units_Z   4
loop_
 _symmetry_equiv_pos_site_id
 _symmetry_equiv_pos_as_xyz
  1  'x, y, z'
loop_
 _atom_site_type_symbol
 _atom_site_label
 _atom_site_symmetry_multiplicity
 _atom_site_fract_x
 _atom_site_fract_y
 _atom_site_fract_z
 _atom_site_occupancy
  La  La0  1  0.50000000  0.95244900  0.75000000  1
  La  La1  1  0.50000000  0.81280900  0.56924600  1
  La  La2  1  0.50000000  0.81280900  0.93075400  1
  La  La3  1  0.50000000  0.56794800  0.93457000  1
  La  La4  1  0.50000000  0.80074700  0.25000000  1
  La  La5  1  0.00000000  0.68719100  0.43075400  1
  La  La6  1  0.00000000  0.93205200  0.06543000  1
  La  La7  1  0.00000000  0.69925300  0.75000000  1
  La  La8  1  0.00000000  0.54755100  0.25000000  1
  La  La9  1  0.50000000  0.56794800  0.56543000  1
  La  La10  1  0.00000000  0.93205200  0.43457000  1
  La  La11  1  0.00000000  0.68719100  0.06924600  1
  La  La12  1  0.00000000  0.45244900  0.75000000  1
  La  La13  1  0.00000000  0.31280900  0.56924600  1
  La  La14  1  0.00000000  0.31280900  0.93075400  1
  La  La15  1  0.00000000  0.06794800  0.93457000  1
  La  La16  1  0.00000000  0.30074700  0.25000000  1
  La  La17  1  0.50000000  0.18719100  0.43075400  1
  La  La18  1  0.50000000  0.43205200  0.06543000  1
  La  La19  1  0.50000000  0.19925300  0.75000000  1
  La  La20  1  0.50000000  0.04755100  0.25000000  1
  La  La21  1  0.00000000  0.06794800  0.56543000  1
  La  La22  1  0.50000000  0.43205200  0.43457000  1
  La  La23  1  0.50000000  0.18719100  0.06924600  1
  B  B24  1  0.50000000  0.64036100  0.25000000  1
  B  B25  1  0.00000000  0.85963900  0.75000000  1
  B  B26  1  0.00000000  0.14036100  0.25000000  1
  B  B27  1  0.50000000  0.35963900  0.75000000  1
  N  N28  1  0.50000000  0.69938700  0.25000000  1
  N  N29  1  0.50000000  0.61072500  0.36608200  1
  N  N30  1  0.00000000  0.88927500  0.63391800  1
  N  N31  1  0.00000000  0.80061300  0.75000000  1
  N  N32  1  0.00000000  0.88927500  0.86608200  1
  N  N33  1  0.50000000  0.61072500  0.13391800  1
  N  N34  1  0.00000000  0.19938700  0.25000000  1
  N  N35  1  0.00000000  0.11072500  0.36608200  1
  N  N36  1  0.50000000  0.38927500  0.63391800  1
  N  N37  1  0.50000000  0.30061300  0.75000000  1
  N  N38  1  0.50000000  0.38927500  0.86608200  1
  N  N39  1  0.00000000  0.11072500  0.13391800  1
  O  O40  1  0.00000000  0.62349900  0.89359200  1
  O  O41  1  0.50000000  0.71742900  0.90812800  1
  O  O42  1  0.50000000  0.51293100  0.75000000  1
  O  O43  1  0.50000000  0.71742900  0.59187200  1
  O  O44  1  0.00000000  0.78257100  0.09187200  1
  O  O45  1  0.00000000  0.78257100  0.40812800  1
  O  O46  1  0.00000000  0.62349900  0.60640800  1
  O  O47  1  0.50000000  0.87650100  0.39359200  1
  O  O48  1  0.00000000  0.98706900  0.25000000  1
  O  O49  1  0.50000000  0.87650100  0.10640800  1
  O  O50  1  0.50000000  0.00000000  0.00000000  1
  O  O51  1  0.50000000  0.00000000  0.50000000  1
  O  O52  1  0.50000000  0.12349900  0.89359200  1
  O  O53  1  0.00000000  0.21742900  0.90812800  1
  O  O54  1  0.00000000  0.01293100  0.75000000  1
  O  O55  1  0.00000000  0.21742900  0.59187200  1
  O  O56  1  0.50000000  0.28257100  0.09187200  1
  O  O57  1  0.50000000  0.28257100  0.40812800  1
  O  O58  1  0.50000000  0.12349900  0.60640800  1
  O  O59  1  0.00000000  0.37650100  0.39359200  1
  O  O60  1  0.50000000  0.48706900  0.25000000  1
  O  O61  1  0.00000000  0.37650100  0.10640800  1
  O  O62  1  0.00000000  0.50000000  0.00000000  1
  O  O63  1  0.00000000  0.50000000  0.50000000  1
