# generated using pymatgen
data_La2C2N4O
_symmetry_space_group_name_H-M   'P 1'
_cell_length_a   13.57798600
_cell_length_b   6.28072600
_cell_length_c   6.14068267
_cell_angle_alpha   90.00000000
_cell_angle_beta   104.74557361
_cell_angle_gamma   90.00000000
_symmetry_Int_Tables_number   1
_chemical_formula_structural   La2C2N4O
_chemical_formula_sum   'La8 C8 N16 O4'
_cell_volume   506.42810125
_cell_formula_units_Z   4
loop_
 _symmetry_equiv_pos_site_id
 _symmetry_equiv_pos_as_xyz
  1  'x, y, z'
loop_
 _atom_site_type_symbol
 _atom_site_label
 _atom_site_symmetry_multiplicity
 _atom_site_fract_x
 _atom_site_fract_y
 _atom_site_fract_z
 _atom_site_occupancy
  La  La0  1  0.39973350  0.28496250  0.42451700  1
  La  La1  1  0.10026650  0.78496250  0.07548300  1
  La  La2  1  0.10026650  0.21503750  0.57548300  1
  La  La3  1  0.39973350  0.71503750  0.92451700  1
  La  La4  1  0.89973350  0.78496250  0.42451700  1
  La  La5  1  0.60026650  0.28496250  0.07548300  1
  La  La6  1  0.60026650  0.71503750  0.57548300  1
  La  La7  1  0.89973350  0.21503750  0.92451700  1
  C  C8  1  0.34743350  0.77380450  0.38852400  1
  C  C9  1  0.34743350  0.22619550  0.88852400  1
  C  C10  1  0.15256650  0.27380450  0.11147600  1
  C  C11  1  0.15256650  0.72619550  0.61147600  1
  C  C12  1  0.84743350  0.27380450  0.38852400  1
  C  C13  1  0.84743350  0.72619550  0.88852400  1
  C  C14  1  0.65256650  0.77380450  0.11147600  1
  C  C15  1  0.65256650  0.22619550  0.61147600  1
  N  N16  1  0.40783550  0.11719750  0.03101200  1
  N  N17  1  0.09216450  0.38280250  0.96898800  1
  N  N18  1  0.20846800  0.84133500  0.75354900  1
  N  N19  1  0.40783550  0.88280250  0.53101200  1
  N  N20  1  0.29153200  0.65866500  0.24645100  1
  N  N21  1  0.29153200  0.34133500  0.74645100  1
  N  N22  1  0.09216450  0.61719750  0.46898800  1
  N  N23  1  0.20846800  0.15866500  0.25354900  1
  N  N24  1  0.90783550  0.61719750  0.03101200  1
  N  N25  1  0.59216450  0.88280250  0.96898800  1
  N  N26  1  0.70846800  0.34133500  0.75354900  1
  N  N27  1  0.90783550  0.38280250  0.53101200  1
  N  N28  1  0.79153200  0.15866500  0.24645100  1
  N  N29  1  0.79153200  0.84133500  0.74645100  1
  N  N30  1  0.59216450  0.11719750  0.46898800  1
  N  N31  1  0.70846800  0.65866500  0.25354900  1
  O  O32  1  0.00000000  0.97389900  0.75000000  1
  O  O33  1  0.00000000  0.02610100  0.25000000  1
  O  O34  1  0.50000000  0.47389900  0.75000000  1
  O  O35  1  0.50000000  0.52610100  0.25000000  1
