# generated using pymatgen
data_Sr2LiCBr3N2
_symmetry_space_group_name_H-M   'P 1'
_cell_length_a   14.76228200
_cell_length_b   14.76228200
_cell_length_c   14.76228200
_cell_angle_alpha   90.00000000
_cell_angle_beta   90.00000000
_cell_angle_gamma   90.00000000
_symmetry_Int_Tables_number   1
_chemical_formula_structural   Sr2LiCBr3N2
_chemical_formula_sum   'Sr32 Li16 C16 Br48 N32'
_cell_volume   3217.06985973
_cell_formula_units_Z   16
loop_
 _symmetry_equiv_pos_site_id
 _symmetry_equiv_pos_as_xyz
  1  'x, y, z'
loop_
 _atom_site_type_symbol
 _atom_site_label
 _atom_site_symmetry_multiplicity
 _atom_site_fract_x
 _atom_site_fract_y
 _atom_site_fract_z
 _atom_site_occupancy
  Sr  Sr0  1  0.90361367  0.09638633  0.09638633  1
  Sr  Sr1  1  0.34638633  0.15361367  0.15361367  1
  Sr  Sr2  1  0.34638633  0.34638633  0.34638633  1
  Sr  Sr3  1  0.59638633  0.09638633  0.40361367  1
  Sr  Sr4  1  0.15361367  0.15361367  0.34638633  1
  Sr  Sr5  1  0.15361367  0.34638633  0.15361367  1
  Sr  Sr6  1  0.40361367  0.90361367  0.40361367  1
  Sr  Sr7  1  0.09638633  0.90361367  0.09638633  1
  Sr  Sr8  1  0.90361367  0.59638633  0.59638633  1
  Sr  Sr9  1  0.34638633  0.65361367  0.65361367  1
  Sr  Sr10  1  0.34638633  0.84638633  0.84638633  1
  Sr  Sr11  1  0.59638633  0.59638633  0.90361367  1
  Sr  Sr12  1  0.15361367  0.65361367  0.84638633  1
  Sr  Sr13  1  0.15361367  0.84638633  0.65361367  1
  Sr  Sr14  1  0.40361367  0.40361367  0.90361367  1
  Sr  Sr15  1  0.09638633  0.40361367  0.59638633  1
  Sr  Sr16  1  0.40361367  0.09638633  0.59638633  1
  Sr  Sr17  1  0.84638633  0.15361367  0.65361367  1
  Sr  Sr18  1  0.84638633  0.34638633  0.84638633  1
  Sr  Sr19  1  0.09638633  0.09638633  0.90361367  1
  Sr  Sr20  1  0.65361367  0.15361367  0.84638633  1
  Sr  Sr21  1  0.65361367  0.34638633  0.65361367  1
  Sr  Sr22  1  0.90361367  0.90361367  0.90361367  1
  Sr  Sr23  1  0.59638633  0.90361367  0.59638633  1
  Sr  Sr24  1  0.40361367  0.59638633  0.09638633  1
  Sr  Sr25  1  0.84638633  0.65361367  0.15361367  1
  Sr  Sr26  1  0.84638633  0.84638633  0.34638633  1
  Sr  Sr27  1  0.09638633  0.59638633  0.40361367  1
  Sr  Sr28  1  0.65361367  0.65361367  0.34638633  1
  Sr  Sr29  1  0.65361367  0.84638633  0.15361367  1
  Sr  Sr30  1  0.90361367  0.40361367  0.40361367  1
  Sr  Sr31  1  0.59638633  0.40361367  0.09638633  1
  Li  Li32  1  0.12500000  0.62500000  0.12500000  1
  Li  Li33  1  0.37500000  0.87500000  0.12500000  1
  Li  Li34  1  0.12500000  0.87500000  0.37500000  1
  Li  Li35  1  0.37500000  0.62500000  0.37500000  1
  Li  Li36  1  0.12500000  0.12500000  0.62500000  1
  Li  Li37  1  0.37500000  0.37500000  0.62500000  1
  Li  Li38  1  0.12500000  0.37500000  0.87500000  1
  Li  Li39  1  0.37500000  0.12500000  0.87500000  1
  Li  Li40  1  0.62500000  0.62500000  0.62500000  1
  Li  Li41  1  0.87500000  0.87500000  0.62500000  1
  Li  Li42  1  0.62500000  0.87500000  0.87500000  1
  Li  Li43  1  0.87500000  0.62500000  0.87500000  1
  Li  Li44  1  0.62500000  0.12500000  0.12500000  1
  Li  Li45  1  0.87500000  0.37500000  0.12500000  1
  Li  Li46  1  0.62500000  0.37500000  0.37500000  1
  Li  Li47  1  0.87500000  0.12500000  0.37500000  1
  C  C48  1  0.62500000  0.87500000  0.37500000  1
  C  C49  1  0.37500000  0.12500000  0.37500000  1
  C  C50  1  0.87500000  0.87500000  0.12500000  1
  C  C51  1  0.12500000  0.12500000  0.12500000  1
  C  C52  1  0.62500000  0.37500000  0.87500000  1
  C  C53  1  0.37500000  0.62500000  0.87500000  1
  C  C54  1  0.87500000  0.37500000  0.62500000  1
  C  C55  1  0.12500000  0.62500000  0.62500000  1
  C  C56  1  0.12500000  0.87500000  0.87500000  1
  C  C57  1  0.87500000  0.12500000  0.87500000  1
  C  C58  1  0.37500000  0.87500000  0.62500000  1
  C  C59  1  0.62500000  0.12500000  0.62500000  1
  C  C60  1  0.12500000  0.37500000  0.37500000  1
  C  C61  1  0.87500000  0.62500000  0.37500000  1
  C  C62  1  0.37500000  0.37500000  0.12500000  1
  C  C63  1  0.62500000  0.62500000  0.12500000  1
  Br  Br64  1  0.44594500  0.75000000  0.25000000  1
  Br  Br65  1  0.19594500  0.00000000  0.50000000  1
  Br  Br66  1  0.05405500  0.75000000  0.25000000  1
  Br  Br67  1  0.00000000  0.00000000  0.30405500  1
  Br  Br68  1  0.25000000  0.55405500  0.25000000  1
  Br  Br69  1  0.25000000  0.94594500  0.25000000  1
  Br  Br70  1  0.80405500  0.00000000  0.50000000  1
  Br  Br71  1  0.50000000  0.00000000  0.19594500  1
  Br  Br72  1  0.50000000  0.30405500  0.50000000  1
  Br  Br73  1  0.25000000  0.75000000  0.44594500  1
  Br  Br74  1  0.50000000  0.69594500  0.50000000  1
  Br  Br75  1  0.25000000  0.75000000  0.05405500  1
  Br  Br76  1  0.44594500  0.25000000  0.75000000  1
  Br  Br77  1  0.19594500  0.50000000  0.00000000  1
  Br  Br78  1  0.05405500  0.25000000  0.75000000  1
  Br  Br79  1  0.00000000  0.50000000  0.80405500  1
  Br  Br80  1  0.25000000  0.05405500  0.75000000  1
  Br  Br81  1  0.25000000  0.44594500  0.75000000  1
  Br  Br82  1  0.80405500  0.50000000  0.00000000  1
  Br  Br83  1  0.50000000  0.50000000  0.69594500  1
  Br  Br84  1  0.50000000  0.80405500  0.00000000  1
  Br  Br85  1  0.25000000  0.25000000  0.94594500  1
  Br  Br86  1  0.50000000  0.19594500  0.00000000  1
  Br  Br87  1  0.25000000  0.25000000  0.55405500  1
  Br  Br88  1  0.94594500  0.75000000  0.75000000  1
  Br  Br89  1  0.69594500  0.00000000  0.00000000  1
  Br  Br90  1  0.55405500  0.75000000  0.75000000  1
  Br  Br91  1  0.50000000  0.00000000  0.80405500  1
  Br  Br92  1  0.75000000  0.55405500  0.75000000  1
  Br  Br93  1  0.75000000  0.94594500  0.75000000  1
  Br  Br94  1  0.30405500  0.00000000  0.00000000  1
  Br  Br95  1  0.00000000  0.00000000  0.69594500  1
  Br  Br96  1  0.00000000  0.30405500  0.00000000  1
  Br  Br97  1  0.75000000  0.75000000  0.94594500  1
  Br  Br98  1  0.00000000  0.69594500  0.00000000  1
  Br  Br99  1  0.75000000  0.75000000  0.55405500  1
  Br  Br100  1  0.94594500  0.25000000  0.25000000  1
  Br  Br101  1  0.69594500  0.50000000  0.50000000  1
  Br  Br102  1  0.55405500  0.25000000  0.25000000  1
  Br  Br103  1  0.50000000  0.50000000  0.30405500  1
  Br  Br104  1  0.75000000  0.05405500  0.25000000  1
  Br  Br105  1  0.75000000  0.44594500  0.25000000  1
  Br  Br106  1  0.30405500  0.50000000  0.50000000  1
  Br  Br107  1  0.00000000  0.50000000  0.19594500  1
  Br  Br108  1  0.00000000  0.80405500  0.50000000  1
  Br  Br109  1  0.75000000  0.25000000  0.44594500  1
  Br  Br110  1  0.00000000  0.19594500  0.50000000  1
  Br  Br111  1  0.75000000  0.25000000  0.05405500  1
  N  N112  1  0.57672000  0.92328000  0.42328000  1
  N  N113  1  0.32672000  0.32672000  0.17328000  1
  N  N114  1  0.32672000  0.17328000  0.32672000  1
  N  N115  1  0.07672000  0.07672000  0.07672000  1
  N  N116  1  0.42328000  0.07672000  0.42328000  1
  N  N117  1  0.17328000  0.32672000  0.32672000  1
  N  N118  1  0.92328000  0.92328000  0.07672000  1
  N  N119  1  0.17328000  0.17328000  0.17328000  1
  N  N120  1  0.57672000  0.42328000  0.92328000  1
  N  N121  1  0.32672000  0.82672000  0.67328000  1
  N  N122  1  0.32672000  0.67328000  0.82672000  1
  N  N123  1  0.07672000  0.57672000  0.57672000  1
  N  N124  1  0.42328000  0.57672000  0.92328000  1
  N  N125  1  0.17328000  0.82672000  0.82672000  1
  N  N126  1  0.92328000  0.42328000  0.57672000  1
  N  N127  1  0.17328000  0.67328000  0.67328000  1
  N  N128  1  0.07672000  0.92328000  0.92328000  1
  N  N129  1  0.82672000  0.32672000  0.67328000  1
  N  N130  1  0.82672000  0.17328000  0.82672000  1
  N  N131  1  0.57672000  0.07672000  0.57672000  1
  N  N132  1  0.92328000  0.07672000  0.92328000  1
  N  N133  1  0.67328000  0.32672000  0.82672000  1
  N  N134  1  0.42328000  0.92328000  0.57672000  1
  N  N135  1  0.67328000  0.17328000  0.67328000  1
  N  N136  1  0.07672000  0.42328000  0.42328000  1
  N  N137  1  0.82672000  0.82672000  0.17328000  1
  N  N138  1  0.82672000  0.67328000  0.32672000  1
  N  N139  1  0.57672000  0.57672000  0.07672000  1
  N  N140  1  0.92328000  0.57672000  0.42328000  1
  N  N141  1  0.67328000  0.82672000  0.32672000  1
  N  N142  1  0.42328000  0.42328000  0.07672000  1
  N  N143  1  0.67328000  0.67328000  0.17328000  1
