# generated using pymatgen
data_CaU(SeO4)2
_symmetry_space_group_name_H-M   'P 1'
_cell_length_a   5.67427337
_cell_length_b   6.75244642
_cell_length_c   11.22934260
_cell_angle_alpha   103.96591764
_cell_angle_beta   93.62543612
_cell_angle_gamma   110.72598411
_symmetry_Int_Tables_number   1
_chemical_formula_structural   CaU(SeO4)2
_chemical_formula_sum   'Ca2 U2 Se4 O16'
_cell_volume   385.24218104
_cell_formula_units_Z   2
loop_
 _symmetry_equiv_pos_site_id
 _symmetry_equiv_pos_as_xyz
  1  'x, y, z'
loop_
 _atom_site_type_symbol
 _atom_site_label
 _atom_site_symmetry_multiplicity
 _atom_site_fract_x
 _atom_site_fract_y
 _atom_site_fract_z
 _atom_site_occupancy
  Ca  Ca0  1  0.23815859  0.80906356  0.43551864  1
  Ca  Ca1  1  0.76184141  0.19093644  0.56448136  1
  U  U2  1  0.99964275  0.09350592  0.16784306  1
  U  U3  1  0.00035725  0.90649408  0.83215694  1
  Se  Se4  1  0.18668406  0.68614347  0.12494172  1
  Se  Se5  1  0.38255798  0.35021980  0.35273721  1
  Se  Se6  1  0.81331594  0.31385653  0.87505828  1
  Se  Se7  1  0.61744202  0.64978020  0.64726279  1
  O  O8  1  0.07575552  0.84190023  0.02961169  1
  O  O9  1  0.95027992  0.42018351  0.16058079  1
  O  O10  1  0.64336719  0.92755159  0.25013631  1
  O  O11  1  0.92353581  0.22988755  0.74721552  1
  O  O12  1  0.48724247  0.18400171  0.43667783  1
  O  O13  1  0.90875798  0.86966258  0.65114152  1
  O  O14  1  0.35265427  0.25633914  0.09316643  1
  O  O15  1  0.64734573  0.74366086  0.90683357  1
  O  O16  1  0.51275753  0.81599829  0.56332217  1
  O  O17  1  0.35663281  0.07244841  0.74986369  1
  O  O18  1  0.09124202  0.13033742  0.34885848  1
  O  O19  1  0.04972008  0.57981649  0.83941921  1
  O  O20  1  0.78270061  0.55440874  0.54354950  1
  O  O21  1  0.92424448  0.15809977  0.97038831  1
  O  O22  1  0.21729939  0.44559126  0.45645050  1
  O  O23  1  0.07646419  0.77011245  0.25278448  1
