# generated using pymatgen
data_Bi2B8O15
_symmetry_space_group_name_H-M   'P 1'
_cell_length_a   4.37567900
_cell_length_b   22.65578600
_cell_length_c   6.54707125
_cell_angle_alpha   90.00000000
_cell_angle_beta   104.39436742
_cell_angle_gamma   90.00000000
_symmetry_Int_Tables_number   1
_chemical_formula_structural   Bi2B8O15
_chemical_formula_sum   'Bi4 B16 O30'
_cell_volume   628.66535861
_cell_formula_units_Z   2
loop_
 _symmetry_equiv_pos_site_id
 _symmetry_equiv_pos_as_xyz
  1  'x, y, z'
loop_
 _atom_site_type_symbol
 _atom_site_label
 _atom_site_symmetry_multiplicity
 _atom_site_fract_x
 _atom_site_fract_y
 _atom_site_fract_z
 _atom_site_occupancy
  Bi  Bi0  1  0.18260800  0.64739500  0.33748600  1
  Bi  Bi1  1  0.81739200  0.14739500  0.66251400  1
  Bi  Bi2  1  0.38661000  0.78216800  0.09956500  1
  Bi  Bi3  1  0.61339000  0.28216800  0.90043500  1
  B  B4  1  0.55567100  0.98826800  0.42939100  1
  B  B5  1  0.44432900  0.48826800  0.57060900  1
  B  B6  1  0.52879200  0.96336800  0.77918100  1
  B  B7  1  0.47120800  0.46336800  0.22081900  1
  B  B8  1  0.31281900  0.89680600  0.49149900  1
  B  B9  1  0.68718100  0.39680600  0.50850100  1
  B  B10  1  0.14361100  0.78778400  0.51783500  1
  B  B11  1  0.85638900  0.28778400  0.48216500  1
  B  B12  1  0.71990900  0.78596900  0.73383400  1
  B  B13  1  0.28009100  0.28596900  0.26616600  1
  B  B14  1  0.57178900  0.14401100  0.08578100  1
  B  B15  1  0.42821100  0.64401100  0.91421900  1
  B  B16  1  0.14868000  0.14723800  0.30076400  1
  B  B17  1  0.85132000  0.64723800  0.69923600  1
  B  B18  1  0.60294400  0.03198800  0.08738400  1
  B  B19  1  0.39705600  0.53198800  0.91261600  1
  O  O20  1  0.64438400  0.99951500  0.64460800  1
  O  O21  1  0.35561600  0.49951500  0.35539200  1
  O  O22  1  0.38663800  0.93832900  0.35335700  1
  O  O23  1  0.61336200  0.43832900  0.64664300  1
  O  O24  1  0.37341700  0.91137200  0.70548600  1
  O  O25  1  0.62658300  0.41137200  0.29451400  1
  O  O26  1  0.18703000  0.84508400  0.41072100  1
  O  O27  1  0.81297000  0.34508400  0.58927900  1
  O  O28  1  0.82965800  0.78641800  0.55619900  1
  O  O29  1  0.17034200  0.28641800  0.44380100  1
  O  O30  1  0.16529000  0.74336700  0.35606400  1
  O  O31  1  0.83471000  0.24336700  0.64393600  1
  O  O32  1  0.88971800  0.79037000  0.93934900  1
  O  O33  1  0.11028200  0.29037000  0.06065100  1
  O  O34  1  0.39438500  0.78103300  0.71575100  1
  O  O35  1  0.60561500  0.28103300  0.28424900  1
  O  O36  1  0.82368200  0.15183500  0.28337100  1
  O  O37  1  0.17631800  0.65183500  0.71662900  1
  O  O38  1  0.31756200  0.14171000  0.50638000  1
  O  O39  1  0.68243800  0.64171000  0.49362000  1
  O  O40  1  0.60090500  0.18630000  0.92068800  1
  O  O41  1  0.39909500  0.68630000  0.07931200  1
  O  O42  1  0.25878000  0.14876000  0.12410700  1
  O  O43  1  0.74122000  0.64876000  0.87589300  1
  O  O44  1  0.60195500  0.08442600  0.98871400  1
  O  O45  1  0.39804500  0.58442600  0.01128600  1
  O  O46  1  0.64041300  0.03016700  0.30483600  1
  O  O47  1  0.35958700  0.53016700  0.69516400  1
  O  O48  1  0.56563800  0.97813900  0.98470400  1
  O  O49  1  0.43436200  0.47813900  0.01529600  1
