# generated using pymatgen
data_K2ZrF6
_symmetry_space_group_name_H-M   'P 1'
_cell_length_a   6.66664800
_cell_length_b   11.67751800
_cell_length_c   7.08658730
_cell_angle_alpha   90.00000000
_cell_angle_beta   90.03476594
_cell_angle_gamma   90.00000000
_symmetry_Int_Tables_number   1
_chemical_formula_structural   K2ZrF6
_chemical_formula_sum   'K8 Zr4 F24'
_cell_volume   551.69002575
_cell_formula_units_Z   4
loop_
 _symmetry_equiv_pos_site_id
 _symmetry_equiv_pos_as_xyz
  1  'x, y, z'
loop_
 _atom_site_type_symbol
 _atom_site_label
 _atom_site_symmetry_multiplicity
 _atom_site_fract_x
 _atom_site_fract_y
 _atom_site_fract_z
 _atom_site_occupancy
  K  K0  1  0.51878700  0.15837000  0.50309500  1
  K  K1  1  0.48121300  0.15837000  0.99690500  1
  K  K2  1  0.98121300  0.34163000  0.49690500  1
  K  K3  1  0.01878700  0.34163000  0.00309500  1
  K  K4  1  0.01878700  0.65837000  0.50309500  1
  K  K5  1  0.98121300  0.65837000  0.99690500  1
  K  K6  1  0.48121300  0.84163000  0.49690500  1
  K  K7  1  0.51878700  0.84163000  0.00309500  1
  Zr  Zr8  1  0.50000000  0.45378700  0.75000000  1
  Zr  Zr9  1  0.00000000  0.04621300  0.25000000  1
  Zr  Zr10  1  0.00000000  0.95378700  0.75000000  1
  Zr  Zr11  1  0.50000000  0.54621300  0.25000000  1
  F  F12  1  0.46295650  0.40175150  0.04439600  1
  F  F13  1  0.53704350  0.40175150  0.45560400  1
  F  F14  1  0.03704350  0.09824850  0.95560400  1
  F  F15  1  0.96295650  0.09824850  0.54439600  1
  F  F16  1  0.69040300  0.30917900  0.77646200  1
  F  F17  1  0.30959700  0.30917900  0.72353800  1
  F  F18  1  0.78988250  0.48481950  0.21357200  1
  F  F19  1  0.21011750  0.48481950  0.28642800  1
  F  F20  1  0.71011750  0.01518050  0.78642800  1
  F  F21  1  0.28988250  0.01518050  0.71357200  1
  F  F22  1  0.19040300  0.19082100  0.27646200  1
  F  F23  1  0.80959700  0.19082100  0.22353800  1
  F  F24  1  0.96295650  0.90175150  0.04439600  1
  F  F25  1  0.03704350  0.90175150  0.45560400  1
  F  F26  1  0.53704350  0.59824850  0.95560400  1
  F  F27  1  0.46295650  0.59824850  0.54439600  1
  F  F28  1  0.19040300  0.80917900  0.77646200  1
  F  F29  1  0.80959700  0.80917900  0.72353800  1
  F  F30  1  0.28988250  0.98481950  0.21357200  1
  F  F31  1  0.71011750  0.98481950  0.28642800  1
  F  F32  1  0.21011750  0.51518050  0.78642800  1
  F  F33  1  0.78988250  0.51518050  0.71357200  1
  F  F34  1  0.69040300  0.69082100  0.27646200  1
  F  F35  1  0.30959700  0.69082100  0.22353800  1
