# generated using pymatgen
data_K3Bi2(PO4)3
_symmetry_space_group_name_H-M   'P 1'
_cell_length_a   13.90189200
_cell_length_b   13.61729400
_cell_length_c   6.93213846
_cell_angle_alpha   90.00000000
_cell_angle_beta   114.93861884
_cell_angle_gamma   90.00000000
_symmetry_Int_Tables_number   1
_chemical_formula_structural   K3Bi2(PO4)3
_chemical_formula_sum   'K12 Bi8 P12 O48'
_cell_volume   1189.93795065
_cell_formula_units_Z   4
loop_
 _symmetry_equiv_pos_site_id
 _symmetry_equiv_pos_as_xyz
  1  'x, y, z'
loop_
 _atom_site_type_symbol
 _atom_site_label
 _atom_site_symmetry_multiplicity
 _atom_site_fract_x
 _atom_site_fract_y
 _atom_site_fract_z
 _atom_site_occupancy
  K  K0  1  0.00000000  0.98704700  0.25000000  1
  K  K1  1  0.00000000  0.50000000  0.00000000  1
  K  K2  1  0.00000000  0.01295300  0.75000000  1
  K  K3  1  0.00000000  0.72578100  0.25000000  1
  K  K4  1  0.00000000  0.50000000  0.50000000  1
  K  K5  1  0.00000000  0.27421900  0.75000000  1
  K  K6  1  0.50000000  0.48704700  0.25000000  1
  K  K7  1  0.50000000  0.00000000  0.00000000  1
  K  K8  1  0.50000000  0.51295300  0.75000000  1
  K  K9  1  0.50000000  0.22578100  0.25000000  1
  K  K10  1  0.50000000  0.00000000  0.50000000  1
  K  K11  1  0.50000000  0.77421900  0.75000000  1
  Bi  Bi12  1  0.26182200  0.64778900  0.83040000  1
  Bi  Bi13  1  0.26182200  0.35221100  0.33040000  1
  Bi  Bi14  1  0.73817800  0.64778900  0.66960000  1
  Bi  Bi15  1  0.73817800  0.35221100  0.16960000  1
  Bi  Bi16  1  0.76182200  0.14778900  0.83040000  1
  Bi  Bi17  1  0.76182200  0.85221100  0.33040000  1
  Bi  Bi18  1  0.23817800  0.14778900  0.66960000  1
  Bi  Bi19  1  0.23817800  0.85221100  0.16960000  1
  P  P20  1  0.74271050  0.39535250  0.63720500  1
  P  P21  1  0.00000000  0.24558400  0.25000000  1
  P  P22  1  0.00000000  0.75441600  0.75000000  1
  P  P23  1  0.25728950  0.39535250  0.86279500  1
  P  P24  1  0.25728950  0.60464750  0.36279500  1
  P  P25  1  0.74271050  0.60464750  0.13720500  1
  P  P26  1  0.24271050  0.89535250  0.63720500  1
  P  P27  1  0.50000000  0.74558400  0.25000000  1
  P  P28  1  0.50000000  0.25441600  0.75000000  1
  P  P29  1  0.75728950  0.89535250  0.86279500  1
  P  P30  1  0.75728950  0.10464750  0.36279500  1
  P  P31  1  0.24271050  0.10464750  0.13720500  1
  O  O32  1  0.07075950  0.68826350  0.68161100  1
  O  O33  1  0.32541250  0.33970950  0.07630800  1
  O  O34  1  0.06525400  0.17509400  0.44111200  1
  O  O35  1  0.93474600  0.17509400  0.05888800  1
  O  O36  1  0.23382550  0.67756550  0.17103800  1
  O  O37  1  0.06525400  0.82490600  0.94111200  1
  O  O38  1  0.67483800  0.51836500  0.16015900  1
  O  O39  1  0.32516200  0.48163500  0.83984100  1
  O  O40  1  0.84672500  0.56847800  0.13298000  1
  O  O41  1  0.32541250  0.66029050  0.57630800  1
  O  O42  1  0.84672500  0.43152200  0.63298000  1
  O  O43  1  0.76617450  0.67756550  0.32896200  1
  O  O44  1  0.67483800  0.48163500  0.66015900  1
  O  O45  1  0.92924050  0.31173650  0.31838900  1
  O  O46  1  0.67458750  0.33970950  0.42369200  1
  O  O47  1  0.67458750  0.66029050  0.92369200  1
  O  O48  1  0.07075950  0.31173650  0.18161100  1
  O  O49  1  0.32516200  0.51836500  0.33984100  1
  O  O50  1  0.76617450  0.32243450  0.82896200  1
  O  O51  1  0.15327500  0.56847800  0.36702000  1
  O  O52  1  0.23382550  0.32243450  0.67103800  1
  O  O53  1  0.15327500  0.43152200  0.86702000  1
  O  O54  1  0.92924050  0.68826350  0.81838900  1
  O  O55  1  0.93474600  0.82490600  0.55888800  1
  O  O56  1  0.57075950  0.18826350  0.68161100  1
  O  O57  1  0.82541250  0.83970950  0.07630800  1
  O  O58  1  0.56525400  0.67509400  0.44111200  1
  O  O59  1  0.43474600  0.67509400  0.05888800  1
  O  O60  1  0.73382550  0.17756550  0.17103800  1
  O  O61  1  0.56525400  0.32490600  0.94111200  1
  O  O62  1  0.17483800  0.01836500  0.16015900  1
  O  O63  1  0.82516200  0.98163500  0.83984100  1
  O  O64  1  0.34672500  0.06847800  0.13298000  1
  O  O65  1  0.82541250  0.16029050  0.57630800  1
  O  O66  1  0.34672500  0.93152200  0.63298000  1
  O  O67  1  0.26617450  0.17756550  0.32896200  1
  O  O68  1  0.17483800  0.98163500  0.66015900  1
  O  O69  1  0.42924050  0.81173650  0.31838900  1
  O  O70  1  0.17458750  0.83970950  0.42369200  1
  O  O71  1  0.17458750  0.16029050  0.92369200  1
  O  O72  1  0.57075950  0.81173650  0.18161100  1
  O  O73  1  0.82516200  0.01836500  0.33984100  1
  O  O74  1  0.26617450  0.82243450  0.82896200  1
  O  O75  1  0.65327500  0.06847800  0.36702000  1
  O  O76  1  0.73382550  0.82243450  0.67103800  1
  O  O77  1  0.65327500  0.93152200  0.86702000  1
  O  O78  1  0.42924050  0.18826350  0.81838900  1
  O  O79  1  0.43474600  0.32490600  0.55888800  1
