# generated using pymatgen
data_Pr10Se14O
_symmetry_space_group_name_H-M   'P 1'
_cell_length_a   15.86884800
_cell_length_b   15.86884800
_cell_length_c   20.99043600
_cell_angle_alpha   90.00000000
_cell_angle_beta   90.00000000
_cell_angle_gamma   90.00000000
_symmetry_Int_Tables_number   1
_chemical_formula_structural   Pr10Se14O
_chemical_formula_sum   'Pr80 Se112 O8'
_cell_volume   5285.81866409
_cell_formula_units_Z   8
loop_
 _symmetry_equiv_pos_site_id
 _symmetry_equiv_pos_as_xyz
  1  'x, y, z'
loop_
 _atom_site_type_symbol
 _atom_site_label
 _atom_site_symmetry_multiplicity
 _atom_site_fract_x
 _atom_site_fract_y
 _atom_site_fract_z
 _atom_site_occupancy
  Pr  Pr0  1  0.12895950  0.99546750  0.56554350  1
  Pr  Pr1  1  0.37104050  0.00453250  0.18445650  1
  Pr  Pr2  1  0.12895950  0.50453250  0.18445650  1
  Pr  Pr3  1  0.22323750  0.37021650  0.92231950  1
  Pr  Pr4  1  0.62895950  0.99546750  0.18445650  1
  Pr  Pr5  1  0.36653500  0.13346500  0.00000000  1
  Pr  Pr6  1  0.27676250  0.62978350  0.82768050  1
  Pr  Pr7  1  0.37021650  0.22323750  0.57768050  1
  Pr  Pr8  1  0.27676250  0.12978350  0.42231950  1
  Pr  Pr9  1  0.37104050  0.50453250  0.06554350  1
  Pr  Pr10  1  0.36653500  0.86653500  0.50000000  1
  Pr  Pr11  1  0.36653500  0.36653500  0.75000000  1
  Pr  Pr12  1  0.72323750  0.62978350  0.32768050  1
  Pr  Pr13  1  0.12978350  0.22323750  0.67231950  1
  Pr  Pr14  1  0.13346500  0.63346500  0.00000000  1
  Pr  Pr15  1  0.49546750  0.87104050  0.31554350  1
  Pr  Pr16  1  0.13346500  0.13346500  0.25000000  1
  Pr  Pr17  1  0.00453250  0.12895950  0.43445650  1
  Pr  Pr18  1  0.27676250  0.37021650  0.32768050  1
  Pr  Pr19  1  0.12978350  0.77676250  0.17231950  1
  Pr  Pr20  1  0.87021650  0.27676250  0.57768050  1
  Pr  Pr21  1  0.87021650  0.22323750  0.17231950  1
  Pr  Pr22  1  0.77676250  0.37021650  0.42231950  1
  Pr  Pr23  1  0.22323750  0.87021650  0.32768050  1
  Pr  Pr24  1  0.12978350  0.27676250  0.07768050  1
  Pr  Pr25  1  0.00453250  0.37104050  0.31554350  1
  Pr  Pr26  1  0.49546750  0.62895950  0.43445650  1
  Pr  Pr27  1  0.13346500  0.36653500  0.50000000  1
  Pr  Pr28  1  0.50453250  0.12895950  0.31554350  1
  Pr  Pr29  1  0.99546750  0.62895950  0.31554350  1
  Pr  Pr30  1  0.72323750  0.12978350  0.92231950  1
  Pr  Pr31  1  0.13346500  0.86653500  0.75000000  1
  Pr  Pr32  1  0.86653500  0.13346500  0.75000000  1
  Pr  Pr33  1  0.37021650  0.27676250  0.17231950  1
  Pr  Pr34  1  0.62978350  0.22323750  0.07768050  1
  Pr  Pr35  1  0.50453250  0.37104050  0.43445650  1
  Pr  Pr36  1  0.87104050  0.99546750  0.06554350  1
  Pr  Pr37  1  0.12895950  0.00453250  0.06554350  1
  Pr  Pr38  1  0.87104050  0.49546750  0.18445650  1
  Pr  Pr39  1  0.49546750  0.37104050  0.93445650  1
  Pr  Pr40  1  0.62895950  0.49546750  0.06554350  1
  Pr  Pr41  1  0.87104050  0.50453250  0.68445650  1
  Pr  Pr42  1  0.62895950  0.00453250  0.68445650  1
  Pr  Pr43  1  0.72323750  0.87021650  0.42231950  1
  Pr  Pr44  1  0.12895950  0.49546750  0.68445650  1
  Pr  Pr45  1  0.86653500  0.63346500  0.50000000  1
  Pr  Pr46  1  0.77676250  0.12978350  0.32768050  1
  Pr  Pr47  1  0.87021650  0.72323750  0.07768050  1
  Pr  Pr48  1  0.77676250  0.62978350  0.92231950  1
  Pr  Pr49  1  0.87104050  0.00453250  0.56554350  1
  Pr  Pr50  1  0.86653500  0.36653500  0.00000000  1
  Pr  Pr51  1  0.86653500  0.86653500  0.25000000  1
  Pr  Pr52  1  0.22323750  0.12978350  0.82768050  1
  Pr  Pr53  1  0.62978350  0.72323750  0.17231950  1
  Pr  Pr54  1  0.63346500  0.13346500  0.50000000  1
  Pr  Pr55  1  0.99546750  0.37104050  0.81554350  1
  Pr  Pr56  1  0.63346500  0.63346500  0.75000000  1
  Pr  Pr57  1  0.50453250  0.62895950  0.93445650  1
  Pr  Pr58  1  0.77676250  0.87021650  0.82768050  1
  Pr  Pr59  1  0.62978350  0.27676250  0.67231950  1
  Pr  Pr60  1  0.37021650  0.77676250  0.07768050  1
  Pr  Pr61  1  0.37021650  0.72323750  0.67231950  1
  Pr  Pr62  1  0.27676250  0.87021650  0.92231950  1
  Pr  Pr63  1  0.72323750  0.37021650  0.82768050  1
  Pr  Pr64  1  0.62978350  0.77676250  0.57768050  1
  Pr  Pr65  1  0.50453250  0.87104050  0.81554350  1
  Pr  Pr66  1  0.99546750  0.12895950  0.93445650  1
  Pr  Pr67  1  0.63346500  0.86653500  0.00000000  1
  Pr  Pr68  1  0.00453250  0.62895950  0.81554350  1
  Pr  Pr69  1  0.49546750  0.12895950  0.81554350  1
  Pr  Pr70  1  0.22323750  0.62978350  0.42231950  1
  Pr  Pr71  1  0.63346500  0.36653500  0.25000000  1
  Pr  Pr72  1  0.36653500  0.63346500  0.25000000  1
  Pr  Pr73  1  0.87021650  0.77676250  0.67231950  1
  Pr  Pr74  1  0.12978350  0.72323750  0.57768050  1
  Pr  Pr75  1  0.00453250  0.87104050  0.93445650  1
  Pr  Pr76  1  0.37104050  0.49546750  0.56554350  1
  Pr  Pr77  1  0.62895950  0.50453250  0.56554350  1
  Pr  Pr78  1  0.37104050  0.99546750  0.68445650  1
  Pr  Pr79  1  0.99546750  0.87104050  0.43445650  1
  Se  Se80  1  0.97760400  0.36839700  0.12273500  1
  Se  Se81  1  0.02239600  0.13160300  0.12726500  1
  Se  Se82  1  0.25000000  0.35478500  0.62500000  1
  Se  Se83  1  0.14521500  0.25000000  0.37500000  1
  Se  Se84  1  0.02239600  0.36839700  0.62273500  1
  Se  Se85  1  0.53866600  0.32021400  0.79667900  1
  Se  Se86  1  0.34278100  0.32104300  0.03224200  1
  Se  Se87  1  0.15721900  0.17895700  0.53224200  1
  Se  Se88  1  0.96133400  0.17978600  0.29667900  1
  Se  Se89  1  0.17978600  0.03866600  0.70332100  1
  Se  Se90  1  0.17895700  0.65721900  0.28224200  1
  Se  Se91  1  0.36839700  0.47760400  0.87273500  1
  Se  Se92  1  0.25000000  0.14521500  0.12500000  1
  Se  Se93  1  0.65721900  0.17895700  0.21775800  1
  Se  Se94  1  0.32021400  0.03866600  0.54667900  1
  Se  Se95  1  0.34278100  0.82104300  0.21775800  1
  Se  Se96  1  0.36839700  0.97760400  0.37726500  1
  Se  Se97  1  0.32021400  0.96133400  0.04667900  1
  Se  Se98  1  0.97760400  0.86839700  0.12726500  1
  Se  Se99  1  0.46133400  0.17978600  0.45332100  1
  Se  Se100  1  0.13160300  0.52239600  0.87726500  1
  Se  Se101  1  0.97760400  0.13160300  0.62726500  1
  Se  Se102  1  0.67895700  0.84278100  0.28224200  1
  Se  Se103  1  0.03866600  0.17978600  0.79667900  1
  Se  Se104  1  0.25000000  0.85478500  0.62500000  1
  Se  Se105  1  0.13160300  0.47760400  0.37726500  1
  Se  Se106  1  0.02239600  0.63160300  0.12273500  1
  Se  Se107  1  0.82104300  0.34278100  0.28224200  1
  Se  Se108  1  0.86839700  0.52239600  0.37726500  1
  Se  Se109  1  0.17895700  0.84278100  0.46775800  1
  Se  Se110  1  0.13160300  0.02239600  0.37273500  1
  Se  Se111  1  0.96133400  0.32021400  0.45332100  1
  Se  Se112  1  0.17978600  0.46133400  0.04667900  1
  Se  Se113  1  0.17895700  0.15721900  0.96775800  1
  Se  Se114  1  0.34278100  0.67895700  0.53224200  1
  Se  Se115  1  0.53866600  0.82021400  0.45332100  1
  Se  Se116  1  0.14521500  0.75000000  0.87500000  1
  Se  Se117  1  0.67978600  0.03866600  0.04667900  1
  Se  Se118  1  0.53866600  0.17978600  0.95332100  1
  Se  Se119  1  0.32104300  0.65721900  0.96775800  1
  Se  Se120  1  0.52239600  0.36839700  0.12726500  1
  Se  Se121  1  0.46133400  0.32021400  0.29667900  1
  Se  Se122  1  0.32104300  0.15721900  0.28224200  1
  Se  Se123  1  0.35478500  0.75000000  0.37500000  1
  Se  Se124  1  0.15721900  0.82104300  0.03224200  1
  Se  Se125  1  0.32021400  0.46133400  0.20332100  1
  Se  Se126  1  0.47760400  0.13160300  0.12273500  1
  Se  Se127  1  0.35478500  0.25000000  0.87500000  1
  Se  Se128  1  0.17978600  0.96133400  0.20332100  1
  Se  Se129  1  0.63160300  0.47760400  0.37273500  1
  Se  Se130  1  0.15721900  0.32104300  0.21775800  1
  Se  Se131  1  0.25000000  0.64521500  0.12500000  1
  Se  Se132  1  0.32104300  0.34278100  0.46775800  1
  Se  Se133  1  0.84278100  0.67895700  0.21775800  1
  Se  Se134  1  0.36839700  0.52239600  0.37273500  1
  Se  Se135  1  0.32021400  0.53866600  0.70332100  1
  Se  Se136  1  0.47760400  0.86839700  0.62273500  1
  Se  Se137  1  0.52239600  0.63160300  0.62726500  1
  Se  Se138  1  0.75000000  0.85478500  0.12500000  1
  Se  Se139  1  0.64521500  0.75000000  0.87500000  1
  Se  Se140  1  0.52239600  0.86839700  0.12273500  1
  Se  Se141  1  0.03866600  0.82021400  0.29667900  1
  Se  Se142  1  0.84278100  0.82104300  0.53224200  1
  Se  Se143  1  0.65721900  0.67895700  0.03224200  1
  Se  Se144  1  0.46133400  0.67978600  0.79667900  1
  Se  Se145  1  0.67978600  0.53866600  0.20332100  1
  Se  Se146  1  0.67895700  0.15721900  0.78224200  1
  Se  Se147  1  0.86839700  0.97760400  0.37273500  1
  Se  Se148  1  0.75000000  0.64521500  0.62500000  1
  Se  Se149  1  0.15721900  0.67895700  0.71775800  1
  Se  Se150  1  0.82021400  0.53866600  0.04667900  1
  Se  Se151  1  0.84278100  0.32104300  0.71775800  1
  Se  Se152  1  0.86839700  0.47760400  0.87726500  1
  Se  Se153  1  0.82021400  0.46133400  0.54667900  1
  Se  Se154  1  0.47760400  0.36839700  0.62726500  1
  Se  Se155  1  0.96133400  0.67978600  0.95332100  1
  Se  Se156  1  0.63160300  0.02239600  0.37726500  1
  Se  Se157  1  0.47760400  0.63160300  0.12726500  1
  Se  Se158  1  0.17895700  0.34278100  0.78224200  1
  Se  Se159  1  0.53866600  0.67978600  0.29667900  1
  Se  Se160  1  0.75000000  0.35478500  0.12500000  1
  Se  Se161  1  0.63160300  0.97760400  0.87726500  1
  Se  Se162  1  0.52239600  0.13160300  0.62273500  1
  Se  Se163  1  0.32104300  0.84278100  0.78224200  1
  Se  Se164  1  0.36839700  0.02239600  0.87726500  1
  Se  Se165  1  0.67895700  0.34278100  0.96775800  1
  Se  Se166  1  0.63160300  0.52239600  0.87273500  1
  Se  Se167  1  0.46133400  0.82021400  0.95332100  1
  Se  Se168  1  0.67978600  0.96133400  0.54667900  1
  Se  Se169  1  0.67895700  0.65721900  0.46775800  1
  Se  Se170  1  0.84278100  0.17895700  0.03224200  1
  Se  Se171  1  0.03866600  0.32021400  0.95332100  1
  Se  Se172  1  0.64521500  0.25000000  0.37500000  1
  Se  Se173  1  0.17978600  0.53866600  0.54667900  1
  Se  Se174  1  0.03866600  0.67978600  0.45332100  1
  Se  Se175  1  0.82104300  0.15721900  0.46775800  1
  Se  Se176  1  0.02239600  0.86839700  0.62726500  1
  Se  Se177  1  0.96133400  0.82021400  0.79667900  1
  Se  Se178  1  0.82104300  0.65721900  0.78224200  1
  Se  Se179  1  0.85478500  0.25000000  0.87500000  1
  Se  Se180  1  0.65721900  0.32104300  0.53224200  1
  Se  Se181  1  0.82021400  0.96133400  0.70332100  1
  Se  Se182  1  0.97760400  0.63160300  0.62273500  1
  Se  Se183  1  0.85478500  0.75000000  0.37500000  1
  Se  Se184  1  0.67978600  0.46133400  0.70332100  1
  Se  Se185  1  0.13160300  0.97760400  0.87273500  1
  Se  Se186  1  0.65721900  0.82104300  0.71775800  1
  Se  Se187  1  0.75000000  0.14521500  0.62500000  1
  Se  Se188  1  0.82104300  0.84278100  0.96775800  1
  Se  Se189  1  0.34278100  0.17895700  0.71775800  1
  Se  Se190  1  0.86839700  0.02239600  0.87273500  1
  Se  Se191  1  0.82021400  0.03866600  0.20332100  1
  O  O192  1  0.00000000  0.50000000  0.25000000  1
  O  O193  1  0.00000000  0.00000000  0.50000000  1
  O  O194  1  0.50000000  0.00000000  0.25000000  1
  O  O195  1  0.00000000  0.00000000  0.00000000  1
  O  O196  1  0.50000000  0.00000000  0.75000000  1
  O  O197  1  0.50000000  0.50000000  0.00000000  1
  O  O198  1  0.00000000  0.50000000  0.75000000  1
  O  O199  1  0.50000000  0.50000000  0.50000000  1
