# generated using pymatgen
data_SiO2
_symmetry_space_group_name_H-M   'P 1'
_cell_length_a   13.64509000
_cell_length_b   21.37388600
_cell_length_c   12.69383400
_cell_angle_alpha   90.00000000
_cell_angle_beta   90.00000000
_cell_angle_gamma   90.00000000
_symmetry_Int_Tables_number   1
_chemical_formula_structural   SiO2
_chemical_formula_sum   'Si56 O112'
_cell_volume   3702.13889086
_cell_formula_units_Z   56
loop_
 _symmetry_equiv_pos_site_id
 _symmetry_equiv_pos_as_xyz
  1  'x, y, z'
loop_
 _atom_site_type_symbol
 _atom_site_label
 _atom_site_symmetry_multiplicity
 _atom_site_fract_x
 _atom_site_fract_y
 _atom_site_fract_z
 _atom_site_occupancy
  Si  Si0  1  0.12012200  0.07198800  0.62440600  1
  Si  Si1  1  0.12220100  0.07533700  0.00000000  1
  Si  Si2  1  0.61900900  0.21904100  0.87361000  1
  Si  Si3  1  0.88962850  0.92717650  0.37683300  1
  Si  Si4  1  0.80668300  0.85014000  0.80882700  1
  Si  Si5  1  0.39379550  0.78127950  0.87333200  1
  Si  Si6  1  0.61900900  0.21904100  0.12639000  1
  Si  Si7  1  0.20684700  0.84925700  0.80591700  1
  Si  Si8  1  0.20684700  0.84925700  0.19408300  1
  Si  Si9  1  0.39379550  0.21872050  0.12666800  1
  Si  Si10  1  0.12012200  0.92801200  0.37559400  1
  Si  Si11  1  0.89673300  0.92492000  0.00000000  1
  Si  Si12  1  0.88962850  0.07282350  0.62316700  1
  Si  Si13  1  0.61900900  0.78095900  0.12639000  1
  Si  Si14  1  0.80668300  0.14986000  0.19117300  1
  Si  Si15  1  0.80668300  0.85014000  0.19117300  1
  Si  Si16  1  0.20684700  0.15074300  0.19408300  1
  Si  Si17  1  0.39379550  0.78127950  0.12666800  1
  Si  Si18  1  0.88962850  0.07282350  0.37683300  1
  Si  Si19  1  0.89673300  0.07508000  0.00000000  1
  Si  Si20  1  0.88962850  0.92717650  0.62316700  1
  Si  Si21  1  0.12220100  0.92466300  0.00000000  1
  Si  Si22  1  0.12012200  0.92801200  0.62440600  1
  Si  Si23  1  0.39379550  0.21872050  0.87333200  1
  Si  Si24  1  0.61900900  0.78095900  0.87361000  1
  Si  Si25  1  0.20684700  0.15074300  0.80591700  1
  Si  Si26  1  0.12012200  0.07198800  0.37559400  1
  Si  Si27  1  0.80668300  0.14986000  0.80882700  1
  Si  Si28  1  0.62012200  0.57198800  0.62440600  1
  Si  Si29  1  0.62220100  0.57533700  0.00000000  1
  Si  Si30  1  0.11900900  0.71904100  0.87361000  1
  Si  Si31  1  0.38962850  0.42717650  0.37683300  1
  Si  Si32  1  0.30668300  0.35014000  0.80882700  1
  Si  Si33  1  0.89379550  0.28127950  0.87333200  1
  Si  Si34  1  0.11900900  0.71904100  0.12639000  1
  Si  Si35  1  0.70684700  0.34925700  0.80591700  1
  Si  Si36  1  0.70684700  0.34925700  0.19408300  1
  Si  Si37  1  0.89379550  0.71872050  0.12666800  1
  Si  Si38  1  0.62012200  0.42801200  0.37559400  1
  Si  Si39  1  0.39673300  0.42492000  0.00000000  1
  Si  Si40  1  0.38962850  0.57282350  0.62316700  1
  Si  Si41  1  0.11900900  0.28095900  0.12639000  1
  Si  Si42  1  0.30668300  0.64986000  0.19117300  1
  Si  Si43  1  0.30668300  0.35014000  0.19117300  1
  Si  Si44  1  0.70684700  0.65074300  0.19408300  1
  Si  Si45  1  0.89379550  0.28127950  0.12666800  1
  Si  Si46  1  0.38962850  0.57282350  0.37683300  1
  Si  Si47  1  0.39673300  0.57508000  0.00000000  1
  Si  Si48  1  0.38962850  0.42717650  0.62316700  1
  Si  Si49  1  0.62220100  0.42466300  0.00000000  1
  Si  Si50  1  0.62012200  0.42801200  0.62440600  1
  Si  Si51  1  0.89379550  0.71872050  0.87333200  1
  Si  Si52  1  0.11900900  0.28095900  0.87361000  1
  Si  Si53  1  0.70684700  0.65074300  0.80591700  1
  Si  Si54  1  0.62012200  0.57198800  0.37559400  1
  Si  Si55  1  0.30668300  0.64986000  0.80882700  1
  O  O56  1  0.87033500  0.08941500  0.50000000  1
  O  O57  1  0.64084550  0.71383850  0.18203500  1
  O  O58  1  0.12525100  0.00000000  0.00000000  1
  O  O59  1  0.32285900  0.83271700  0.81779800  1
  O  O60  1  0.18794350  0.12018050  0.69067200  1
  O  O61  1  0.82220350  0.11963950  0.69272900  1
  O  O62  1  0.37279850  0.28716850  0.82188900  1
  O  O63  1  0.83998450  0.90129950  0.89570000  1
  O  O64  1  0.13960850  0.08451550  0.50000000  1
  O  O65  1  0.63791700  0.22553700  0.00000000  1
  O  O66  1  0.69084400  0.83409500  0.82426600  1
  O  O67  1  0.69084400  0.16590500  0.82426600  1
  O  O68  1  0.17745900  0.89987400  0.89543800  1
  O  O69  1  0.82220350  0.88036050  0.69272900  1
  O  O70  1  0.18794350  0.12018050  0.30932800  1
  O  O71  1  0.17745900  0.10012600  0.10456200  1
  O  O72  1  0.32285900  0.16728300  0.18220200  1
  O  O73  1  0.14919200  0.00000000  0.34559000  1
  O  O74  1  0.37279850  0.71283150  0.82188900  1
  O  O75  1  0.69084400  0.16590500  0.17573400  1
  O  O76  1  0.50485700  0.41604700  0.65265000  1
  O  O77  1  0.37279850  0.71283150  0.17811100  1
  O  O78  1  0.17745900  0.89987400  0.10456200  1
  O  O79  1  0.83998450  0.09870050  0.10430000  1
  O  O80  1  0.50485700  0.58395300  0.65265000  1
  O  O81  1  0.69084400  0.83409500  0.17573400  1
  O  O82  1  0.50651100  0.80150500  0.85053500  1
  O  O83  1  0.37284650  0.77860450  0.00000000  1
  O  O84  1  0.87033500  0.91058500  0.50000000  1
  O  O85  1  0.17745900  0.10012600  0.89543800  1
  O  O86  1  0.32285900  0.16728300  0.81779800  1
  O  O87  1  0.14919200  0.00000000  0.65441000  1
  O  O88  1  0.86020500  0.00000000  0.35351100  1
  O  O89  1  0.64084550  0.28616150  0.18203500  1
  O  O90  1  0.64084550  0.71383850  0.81796500  1
  O  O91  1  0.50485700  0.41604700  0.34735000  1
  O  O92  1  0.32285900  0.83271700  0.18220200  1
  O  O93  1  0.89683100  0.00000000  0.00000000  1
  O  O94  1  0.18794350  0.87981950  0.30932800  1
  O  O95  1  0.37284650  0.22139550  0.00000000  1
  O  O96  1  0.13960850  0.91548450  0.50000000  1
  O  O97  1  0.50933850  0.60065950  0.00000000  1
  O  O98  1  0.82220350  0.11963950  0.30727100  1
  O  O99  1  0.50651100  0.80150500  0.14946500  1
  O  O100  1  0.50485700  0.58395300  0.34735000  1
  O  O101  1  0.37279850  0.28716850  0.17811100  1
  O  O102  1  0.86020500  0.00000000  0.64648900  1
  O  O103  1  0.64084550  0.28616150  0.81796500  1
  O  O104  1  0.50651100  0.19849500  0.14946500  1
  O  O105  1  0.82220350  0.88036050  0.30727100  1
  O  O106  1  0.63791700  0.77446300  0.00000000  1
  O  O107  1  0.50651100  0.19849500  0.85053500  1
  O  O108  1  0.50933850  0.39934050  0.00000000  1
  O  O109  1  0.18794350  0.87981950  0.69067200  1
  O  O110  1  0.83998450  0.09870050  0.89570000  1
  O  O111  1  0.83998450  0.90129950  0.10430000  1
  O  O112  1  0.37033500  0.58941500  0.50000000  1
  O  O113  1  0.14084550  0.21383850  0.18203500  1
  O  O114  1  0.62525100  0.50000000  0.00000000  1
  O  O115  1  0.82285900  0.33271700  0.81779800  1
  O  O116  1  0.68794350  0.62018050  0.69067200  1
  O  O117  1  0.32220350  0.61963950  0.69272900  1
  O  O118  1  0.87279850  0.78716850  0.82188900  1
  O  O119  1  0.33998450  0.40129950  0.89570000  1
  O  O120  1  0.63960850  0.58451550  0.50000000  1
  O  O121  1  0.13791700  0.72553700  0.00000000  1
  O  O122  1  0.19084400  0.33409500  0.82426600  1
  O  O123  1  0.19084400  0.66590500  0.82426600  1
  O  O124  1  0.67745900  0.39987400  0.89543800  1
  O  O125  1  0.32220350  0.38036050  0.69272900  1
  O  O126  1  0.68794350  0.62018050  0.30932800  1
  O  O127  1  0.67745900  0.60012600  0.10456200  1
  O  O128  1  0.82285900  0.66728300  0.18220200  1
  O  O129  1  0.64919200  0.50000000  0.34559000  1
  O  O130  1  0.87279850  0.21283150  0.82188900  1
  O  O131  1  0.19084400  0.66590500  0.17573400  1
  O  O132  1  0.00485700  0.91604700  0.65265000  1
  O  O133  1  0.87279850  0.21283150  0.17811100  1
  O  O134  1  0.67745900  0.39987400  0.10456200  1
  O  O135  1  0.33998450  0.59870050  0.10430000  1
  O  O136  1  0.00485700  0.08395300  0.65265000  1
  O  O137  1  0.19084400  0.33409500  0.17573400  1
  O  O138  1  0.00651100  0.30150500  0.85053500  1
  O  O139  1  0.87284650  0.27860450  0.00000000  1
  O  O140  1  0.37033500  0.41058500  0.50000000  1
  O  O141  1  0.67745900  0.60012600  0.89543800  1
  O  O142  1  0.82285900  0.66728300  0.81779800  1
  O  O143  1  0.64919200  0.50000000  0.65441000  1
  O  O144  1  0.36020500  0.50000000  0.35351100  1
  O  O145  1  0.14084550  0.78616150  0.18203500  1
  O  O146  1  0.14084550  0.21383850  0.81796500  1
  O  O147  1  0.00485700  0.91604700  0.34735000  1
  O  O148  1  0.82285900  0.33271700  0.18220200  1
  O  O149  1  0.39683100  0.50000000  0.00000000  1
  O  O150  1  0.68794350  0.37981950  0.30932800  1
  O  O151  1  0.87284650  0.72139550  0.00000000  1
  O  O152  1  0.63960850  0.41548450  0.50000000  1
  O  O153  1  0.00933850  0.10065950  0.00000000  1
  O  O154  1  0.32220350  0.61963950  0.30727100  1
  O  O155  1  0.00651100  0.30150500  0.14946500  1
  O  O156  1  0.00485700  0.08395300  0.34735000  1
  O  O157  1  0.87279850  0.78716850  0.17811100  1
  O  O158  1  0.36020500  0.50000000  0.64648900  1
  O  O159  1  0.14084550  0.78616150  0.81796500  1
  O  O160  1  0.00651100  0.69849500  0.14946500  1
  O  O161  1  0.32220350  0.38036050  0.30727100  1
  O  O162  1  0.13791700  0.27446300  0.00000000  1
  O  O163  1  0.00651100  0.69849500  0.85053500  1
  O  O164  1  0.00933850  0.89934050  0.00000000  1
  O  O165  1  0.68794350  0.37981950  0.69067200  1
  O  O166  1  0.33998450  0.59870050  0.89570000  1
  O  O167  1  0.33998450  0.40129950  0.10430000  1
