# generated using pymatgen
data_Sm3Si2Cl5O6
_symmetry_space_group_name_H-M   'P 1'
_cell_length_a   10.74841000
_cell_length_b   10.62656400
_cell_length_c   11.99443391
_cell_angle_alpha   90.00000000
_cell_angle_beta   103.12664206
_cell_angle_gamma   90.00000000
_symmetry_Int_Tables_number   1
_chemical_formula_structural   Sm3Si2Cl5O6
_chemical_formula_sum   'Sm12 Si8 Cl20 O24'
_cell_volume   1334.19110193
_cell_formula_units_Z   4
loop_
 _symmetry_equiv_pos_site_id
 _symmetry_equiv_pos_as_xyz
  1  'x, y, z'
loop_
 _atom_site_type_symbol
 _atom_site_label
 _atom_site_symmetry_multiplicity
 _atom_site_fract_x
 _atom_site_fract_y
 _atom_site_fract_z
 _atom_site_occupancy
  Sm  Sm0  1  0.16653200  0.75179000  0.66852300  1
  Sm  Sm1  1  0.75000000  0.75000000  0.00000000  1
  Sm  Sm2  1  0.16653200  0.24821000  0.66852300  1
  Sm  Sm3  1  0.83346800  0.24821000  0.33147700  1
  Sm  Sm4  1  0.83346800  0.75179000  0.33147700  1
  Sm  Sm5  1  0.25000000  0.75000000  0.00000000  1
  Sm  Sm6  1  0.66653200  0.25179000  0.66852300  1
  Sm  Sm7  1  0.25000000  0.25000000  0.00000000  1
  Sm  Sm8  1  0.66653200  0.74821000  0.66852300  1
  Sm  Sm9  1  0.33346800  0.74821000  0.33147700  1
  Sm  Sm10  1  0.33346800  0.25179000  0.33147700  1
  Sm  Sm11  1  0.75000000  0.25000000  0.00000000  1
  Si  Si12  1  0.03607750  0.85500650  0.14216500  1
  Si  Si13  1  0.03607750  0.14499350  0.14216500  1
  Si  Si14  1  0.96392250  0.85500650  0.85783500  1
  Si  Si15  1  0.96392250  0.14499350  0.85783500  1
  Si  Si16  1  0.53607750  0.35500650  0.14216500  1
  Si  Si17  1  0.53607750  0.64499350  0.14216500  1
  Si  Si18  1  0.46392250  0.35500650  0.85783500  1
  Si  Si19  1  0.46392250  0.64499350  0.85783500  1
  Cl  Cl20  1  0.11706600  0.50000000  0.64121300  1
  Cl  Cl21  1  0.89401250  0.78630350  0.57915800  1
  Cl  Cl22  1  0.10598750  0.78630350  0.42084200  1
  Cl  Cl23  1  0.73008900  0.50000000  0.66762200  1
  Cl  Cl24  1  0.18279300  0.50000000  0.99611000  1
  Cl  Cl25  1  0.89401250  0.21369650  0.57915800  1
  Cl  Cl26  1  0.81720700  0.50000000  0.00389000  1
  Cl  Cl27  1  0.26991100  0.50000000  0.33237800  1
  Cl  Cl28  1  0.10598750  0.21369650  0.42084200  1
  Cl  Cl29  1  0.88293400  0.50000000  0.35878700  1
  Cl  Cl30  1  0.61706600  0.00000000  0.64121300  1
  Cl  Cl31  1  0.39401250  0.28630350  0.57915800  1
  Cl  Cl32  1  0.60598750  0.28630350  0.42084200  1
  Cl  Cl33  1  0.23008900  0.00000000  0.66762200  1
  Cl  Cl34  1  0.68279300  0.00000000  0.99611000  1
  Cl  Cl35  1  0.39401250  0.71369650  0.57915800  1
  Cl  Cl36  1  0.31720700  0.00000000  0.00389000  1
  Cl  Cl37  1  0.76991100  0.00000000  0.33237800  1
  Cl  Cl38  1  0.60598750  0.71369650  0.42084200  1
  Cl  Cl39  1  0.38293400  0.00000000  0.35878700  1
  O  O40  1  0.54693400  0.50000000  0.18747500  1
  O  O41  1  0.17384200  0.78458200  0.17204000  1
  O  O42  1  0.82615800  0.78458200  0.82796000  1
  O  O43  1  0.08614700  0.78385500  0.82774300  1
  O  O44  1  0.91385300  0.21614500  0.17225700  1
  O  O45  1  0.91385300  0.78385500  0.17225700  1
  O  O46  1  0.00000000  0.14671200  0.00000000  1
  O  O47  1  0.08614700  0.21614500  0.82774300  1
  O  O48  1  0.00000000  0.85328800  0.00000000  1
  O  O49  1  0.17384200  0.21541800  0.17204000  1
  O  O50  1  0.82615800  0.21541800  0.82796000  1
  O  O51  1  0.45306600  0.50000000  0.81252500  1
  O  O52  1  0.04693400  0.00000000  0.18747500  1
  O  O53  1  0.67384200  0.28458200  0.17204000  1
  O  O54  1  0.32615800  0.28458200  0.82796000  1
  O  O55  1  0.58614700  0.28385500  0.82774300  1
  O  O56  1  0.41385300  0.71614500  0.17225700  1
  O  O57  1  0.41385300  0.28385500  0.17225700  1
  O  O58  1  0.50000000  0.64671200  0.00000000  1
  O  O59  1  0.58614700  0.71614500  0.82774300  1
  O  O60  1  0.50000000  0.35328800  0.00000000  1
  O  O61  1  0.67384200  0.71541800  0.17204000  1
  O  O62  1  0.32615800  0.71541800  0.82796000  1
  O  O63  1  0.95306600  0.00000000  0.81252500  1
