# generated using pymatgen
data_NaSbS2
_symmetry_space_group_name_H-M   'P 1'
_cell_length_a   12.86878600
_cell_length_b   5.58812800
_cell_length_c   5.94227761
_cell_angle_alpha   90.00000000
_cell_angle_beta   115.75936384
_cell_angle_gamma   90.00000000
_symmetry_Int_Tables_number   1
_chemical_formula_structural   NaSbS2
_chemical_formula_sum   'Na4 Sb4 S8'
_cell_volume   384.85925342
_cell_formula_units_Z   4
loop_
 _symmetry_equiv_pos_site_id
 _symmetry_equiv_pos_as_xyz
  1  'x, y, z'
loop_
 _atom_site_type_symbol
 _atom_site_label
 _atom_site_symmetry_multiplicity
 _atom_site_fract_x
 _atom_site_fract_y
 _atom_site_fract_z
 _atom_site_occupancy
  Na  Na0  1  0.12632800  0.50000000  0.86455600  1
  Na  Na1  1  0.37367200  0.00000000  0.13544400  1
  Na  Na2  1  0.62632800  0.00000000  0.86455600  1
  Na  Na3  1  0.87367200  0.50000000  0.13544400  1
  Sb  Sb4  1  0.36862600  0.50000000  0.58944000  1
  Sb  Sb5  1  0.13137400  0.00000000  0.41056000  1
  Sb  Sb6  1  0.86862600  0.00000000  0.58944000  1
  Sb  Sb7  1  0.63137400  0.50000000  0.41056000  1
  S  S8  1  0.11829900  0.00000000  0.80987600  1
  S  S9  1  0.13734300  0.50000000  0.36755400  1
  S  S10  1  0.38170100  0.50000000  0.19012400  1
  S  S11  1  0.36265700  0.00000000  0.63244600  1
  S  S12  1  0.61829900  0.50000000  0.80987600  1
  S  S13  1  0.63734300  0.00000000  0.36755400  1
  S  S14  1  0.88170100  0.00000000  0.19012400  1
  S  S15  1  0.86265700  0.50000000  0.63244600  1
