# generated using pymatgen
data_Na3Al2(AsO4)3
_symmetry_space_group_name_H-M   'P 1'
_cell_length_a   14.79128000
_cell_length_b   13.51674000
_cell_length_c   9.92456069
_cell_angle_alpha   90.00000000
_cell_angle_beta   96.92606845
_cell_angle_gamma   90.00000000
_symmetry_Int_Tables_number   1
_chemical_formula_structural   Na3Al2(AsO4)3
_chemical_formula_sum   'Na24 Al16 As24 O96'
_cell_volume   1969.73662753
_cell_formula_units_Z   8
loop_
 _symmetry_equiv_pos_site_id
 _symmetry_equiv_pos_as_xyz
  1  'x, y, z'
loop_
 _atom_site_type_symbol
 _atom_site_label
 _atom_site_symmetry_multiplicity
 _atom_site_fract_x
 _atom_site_fract_y
 _atom_site_fract_z
 _atom_site_occupancy
  Na  Na0  1  0.31457500  0.85905500  0.51622400  1
  Na  Na1  1  0.70176200  0.99965600  0.82639200  1
  Na  Na2  1  0.25062800  0.75079300  0.23411500  1
  Na  Na3  1  0.68542500  0.85905500  0.48377600  1
  Na  Na4  1  0.74937200  0.75079300  0.76588500  1
  Na  Na5  1  0.29823800  0.99965600  0.17360800  1
  Na  Na6  1  0.68431300  0.04453500  0.26390300  1
  Na  Na7  1  0.60045550  0.62649750  0.59055900  1
  Na  Na8  1  0.39890300  0.35867100  0.92584600  1
  Na  Na9  1  0.60109700  0.35867100  0.07415400  1
  Na  Na10  1  0.39954450  0.62649750  0.40944100  1
  Na  Na11  1  0.31568700  0.04453500  0.73609700  1
  Na  Na12  1  0.81457500  0.35905500  0.51622400  1
  Na  Na13  1  0.20176200  0.49965600  0.82639200  1
  Na  Na14  1  0.75062800  0.25079300  0.23411500  1
  Na  Na15  1  0.18542500  0.35905500  0.48377600  1
  Na  Na16  1  0.24937200  0.25079300  0.76588500  1
  Na  Na17  1  0.79823800  0.49965600  0.17360800  1
  Na  Na18  1  0.18431300  0.54453500  0.26390300  1
  Na  Na19  1  0.10045550  0.12649750  0.59055900  1
  Na  Na20  1  0.89890300  0.85867100  0.92584600  1
  Na  Na21  1  0.10109700  0.85867100  0.07415400  1
  Na  Na22  1  0.89954450  0.12649750  0.40944100  1
  Na  Na23  1  0.81568700  0.54453500  0.73609700  1
  Al  Al24  1  0.50000000  0.02893200  0.50000000  1
  Al  Al25  1  0.61220800  0.35685900  0.71994100  1
  Al  Al26  1  0.39106500  0.63838800  0.77796000  1
  Al  Al27  1  0.50000000  0.96824800  0.00000000  1
  Al  Al28  1  0.50000000  0.74708200  0.00000000  1
  Al  Al29  1  0.38779200  0.35685900  0.28005900  1
  Al  Al30  1  0.50000000  0.24672900  0.50000000  1
  Al  Al31  1  0.60893500  0.63838800  0.22204000  1
  Al  Al32  1  0.00000000  0.52893200  0.50000000  1
  Al  Al33  1  0.11220800  0.85685900  0.71994100  1
  Al  Al34  1  0.89106500  0.13838800  0.77796000  1
  Al  Al35  1  0.00000000  0.46824800  0.00000000  1
  Al  Al36  1  0.00000000  0.24708200  0.00000000  1
  Al  Al37  1  0.88779200  0.85685900  0.28005900  1
  Al  Al38  1  0.00000000  0.74672900  0.50000000  1
  Al  Al39  1  0.10893500  0.13838800  0.22204000  1
  As  As40  1  0.49332150  0.83214650  0.29757100  1
  As  As41  1  0.30624800  0.14480200  0.42658500  1
  As  As42  1  0.49933350  0.16317250  0.19875500  1
  As  As43  1  0.69375200  0.14480200  0.57341500  1
  As  As44  1  0.89358000  0.93539900  0.59423800  1
  As  As45  1  0.69153950  0.84991950  0.08304600  1
  As  As46  1  0.10642000  0.93539900  0.40576200  1
  As  As47  1  0.50066650  0.16317250  0.80124500  1
  As  As48  1  0.10836850  0.05930550  0.90945300  1
  As  As49  1  0.50667850  0.83214650  0.70242900  1
  As  As50  1  0.30846050  0.84991950  0.91695400  1
  As  As51  1  0.89163150  0.05930550  0.09054700  1
  As  As52  1  0.99332150  0.33214650  0.29757100  1
  As  As53  1  0.80624800  0.64480200  0.42658500  1
  As  As54  1  0.99933350  0.66317250  0.19875500  1
  As  As55  1  0.19375200  0.64480200  0.57341500  1
  As  As56  1  0.39358000  0.43539900  0.59423800  1
  As  As57  1  0.19153950  0.34991950  0.08304600  1
  As  As58  1  0.60642000  0.43539900  0.40576200  1
  As  As59  1  0.00066650  0.66317250  0.80124500  1
  As  As60  1  0.60836850  0.55930550  0.90945300  1
  As  As61  1  0.00667850  0.33214650  0.70242900  1
  As  As62  1  0.80846050  0.34991950  0.91695400  1
  As  As63  1  0.39163150  0.55930550  0.09054700  1
  O  O64  1  0.07253450  0.94341850  0.85187800  1
  O  O65  1  0.41597750  0.25163850  0.16634400  1
  O  O66  1  0.19351700  0.10119800  0.82933800  1
  O  O67  1  0.62472500  0.25229100  0.57730600  1
  O  O68  1  0.48265400  0.34747800  0.62976700  1
  O  O69  1  0.80364200  0.89710300  0.66893500  1
  O  O70  1  0.25153900  0.15511200  0.56466600  1
  O  O71  1  0.62710900  0.03949100  0.57388100  1
  O  O72  1  0.52056350  0.14231750  0.37915100  1
  O  O73  1  0.51830350  0.64662450  0.87144500  1
  O  O74  1  0.51734600  0.34747800  0.37023300  1
  O  O75  1  0.06818650  0.05131950  0.35198000  1
  O  O76  1  0.76047900  0.86020600  0.23503700  1
  O  O77  1  0.47943650  0.14231750  0.62084900  1
  O  O78  1  0.46092350  0.93804650  0.62510200  1
  O  O79  1  0.60525050  0.79629350  0.64991100  1
  O  O80  1  0.87023250  0.95050550  0.42029100  1
  O  O81  1  0.19635800  0.89710300  0.33106500  1
  O  O82  1  0.37635450  0.74148050  0.91872300  1
  O  O83  1  0.42071350  0.74583950  0.66538200  1
  O  O84  1  0.39931700  0.19518500  0.84780800  1
  O  O85  1  0.25272650  0.85376850  0.05393600  1
  O  O86  1  0.80648300  0.10119800  0.17066200  1
  O  O87  1  0.12976750  0.95050550  0.57970900  1
  O  O88  1  0.54193850  0.05393450  0.87261300  1
  O  O89  1  0.23952100  0.86020600  0.76496300  1
  O  O90  1  0.45806150  0.05393450  0.12738700  1
  O  O91  1  0.92746550  0.94341850  0.14812200  1
  O  O92  1  0.62109050  0.95181750  0.08376300  1
  O  O93  1  0.58402250  0.25163850  0.83365600  1
  O  O94  1  0.52642200  0.85043100  0.88069200  1
  O  O95  1  0.57928650  0.74583950  0.33461800  1
  O  O96  1  0.47357800  0.85043100  0.11930800  1
  O  O97  1  0.48169650  0.64662450  0.12855500  1
  O  O98  1  0.87106450  0.04281750  0.91640100  1
  O  O99  1  0.12893550  0.04281750  0.08359900  1
  O  O100  1  0.60068300  0.19518500  0.15219200  1
  O  O101  1  0.37289100  0.03949100  0.42611900  1
  O  O102  1  0.76607350  0.13698650  0.72145400  1
  O  O103  1  0.74846100  0.15511200  0.43533400  1
  O  O104  1  0.93181350  0.05131950  0.64802000  1
  O  O105  1  0.23392650  0.13698650  0.27854600  1
  O  O106  1  0.39474950  0.79629350  0.35008900  1
  O  O107  1  0.62364550  0.74148050  0.08127700  1
  O  O108  1  0.74727350  0.85376850  0.94606400  1
  O  O109  1  0.37890950  0.95181750  0.91623700  1
  O  O110  1  0.37527500  0.25229100  0.42269400  1
  O  O111  1  0.53907650  0.93804650  0.37489800  1
  O  O112  1  0.57253450  0.44341850  0.85187800  1
  O  O113  1  0.91597750  0.75163850  0.16634400  1
  O  O114  1  0.69351700  0.60119800  0.82933800  1
  O  O115  1  0.12472500  0.75229100  0.57730600  1
  O  O116  1  0.98265400  0.84747800  0.62976700  1
  O  O117  1  0.30364200  0.39710300  0.66893500  1
  O  O118  1  0.75153900  0.65511200  0.56466600  1
  O  O119  1  0.12710900  0.53949100  0.57388100  1
  O  O120  1  0.02056350  0.64231750  0.37915100  1
  O  O121  1  0.01830350  0.14662450  0.87144500  1
  O  O122  1  0.01734600  0.84747800  0.37023300  1
  O  O123  1  0.56818650  0.55131950  0.35198000  1
  O  O124  1  0.26047900  0.36020600  0.23503700  1
  O  O125  1  0.97943650  0.64231750  0.62084900  1
  O  O126  1  0.96092350  0.43804650  0.62510200  1
  O  O127  1  0.10525050  0.29629350  0.64991100  1
  O  O128  1  0.37023250  0.45050550  0.42029100  1
  O  O129  1  0.69635800  0.39710300  0.33106500  1
  O  O130  1  0.87635450  0.24148050  0.91872300  1
  O  O131  1  0.92071350  0.24583950  0.66538200  1
  O  O132  1  0.89931700  0.69518500  0.84780800  1
  O  O133  1  0.75272650  0.35376850  0.05393600  1
  O  O134  1  0.30648300  0.60119800  0.17066200  1
  O  O135  1  0.62976750  0.45050550  0.57970900  1
  O  O136  1  0.04193850  0.55393450  0.87261300  1
  O  O137  1  0.73952100  0.36020600  0.76496300  1
  O  O138  1  0.95806150  0.55393450  0.12738700  1
  O  O139  1  0.42746550  0.44341850  0.14812200  1
  O  O140  1  0.12109050  0.45181750  0.08376300  1
  O  O141  1  0.08402250  0.75163850  0.83365600  1
  O  O142  1  0.02642200  0.35043100  0.88069200  1
  O  O143  1  0.07928650  0.24583950  0.33461800  1
  O  O144  1  0.97357800  0.35043100  0.11930800  1
  O  O145  1  0.98169650  0.14662450  0.12855500  1
  O  O146  1  0.37106450  0.54281750  0.91640100  1
  O  O147  1  0.62893550  0.54281750  0.08359900  1
  O  O148  1  0.10068300  0.69518500  0.15219200  1
  O  O149  1  0.87289100  0.53949100  0.42611900  1
  O  O150  1  0.26607350  0.63698650  0.72145400  1
  O  O151  1  0.24846100  0.65511200  0.43533400  1
  O  O152  1  0.43181350  0.55131950  0.64802000  1
  O  O153  1  0.73392650  0.63698650  0.27854600  1
  O  O154  1  0.89474950  0.29629350  0.35008900  1
  O  O155  1  0.12364550  0.24148050  0.08127700  1
  O  O156  1  0.24727350  0.35376850  0.94606400  1
  O  O157  1  0.87890950  0.45181750  0.91623700  1
  O  O158  1  0.87527500  0.75229100  0.42269400  1
  O  O159  1  0.03907650  0.43804650  0.37489800  1
