# generated using pymatgen
data_NaGdO2
_symmetry_space_group_name_H-M   'P 1'
_cell_length_a   4.68236200
_cell_length_b   4.68236200
_cell_length_c   10.63886400
_cell_angle_alpha   90.00000000
_cell_angle_beta   90.00000000
_cell_angle_gamma   90.00000000
_symmetry_Int_Tables_number   1
_chemical_formula_structural   NaGdO2
_chemical_formula_sum   'Na4 Gd4 O8'
_cell_volume   233.25192164
_cell_formula_units_Z   4
loop_
 _symmetry_equiv_pos_site_id
 _symmetry_equiv_pos_as_xyz
  1  'x, y, z'
loop_
 _atom_site_type_symbol
 _atom_site_label
 _atom_site_symmetry_multiplicity
 _atom_site_fract_x
 _atom_site_fract_y
 _atom_site_fract_z
 _atom_site_occupancy
  Na  Na0  1  0.50000000  0.00000000  0.25000000  1
  Na  Na1  1  0.50000000  0.50000000  0.00000000  1
  Na  Na2  1  0.00000000  0.50000000  0.75000000  1
  Na  Na3  1  0.00000000  0.00000000  0.50000000  1
  Gd  Gd4  1  0.00000000  0.00000000  0.00000000  1
  Gd  Gd5  1  0.00000000  0.50000000  0.25000000  1
  Gd  Gd6  1  0.50000000  0.50000000  0.50000000  1
  Gd  Gd7  1  0.50000000  0.00000000  0.75000000  1
  O  O8  1  0.50000000  0.50000000  0.28010700  1
  O  O9  1  0.00000000  0.50000000  0.03010700  1
  O  O10  1  0.00000000  0.00000000  0.21989300  1
  O  O11  1  0.00000000  0.50000000  0.46989300  1
  O  O12  1  0.00000000  0.00000000  0.78010700  1
  O  O13  1  0.50000000  0.00000000  0.53010700  1
  O  O14  1  0.50000000  0.50000000  0.71989300  1
  O  O15  1  0.50000000  0.00000000  0.96989300  1
