# generated using pymatgen
data_LiGaTe2
_symmetry_space_group_name_H-M   'P 1'
_cell_length_a   6.40846200
_cell_length_b   6.40846200
_cell_length_c   12.00918600
_cell_angle_alpha   90.00000000
_cell_angle_beta   90.00000000
_cell_angle_gamma   90.00000000
_symmetry_Int_Tables_number   1
_chemical_formula_structural   LiGaTe2
_chemical_formula_sum   'Li4 Ga4 Te8'
_cell_volume   493.19787665
_cell_formula_units_Z   4
loop_
 _symmetry_equiv_pos_site_id
 _symmetry_equiv_pos_as_xyz
  1  'x, y, z'
loop_
 _atom_site_type_symbol
 _atom_site_label
 _atom_site_symmetry_multiplicity
 _atom_site_fract_x
 _atom_site_fract_y
 _atom_site_fract_z
 _atom_site_occupancy
  Li  Li0  1  0.50000000  0.50000000  0.00000000  1
  Li  Li1  1  0.50000000  0.00000000  0.25000000  1
  Li  Li2  1  0.00000000  0.00000000  0.50000000  1
  Li  Li3  1  0.00000000  0.50000000  0.75000000  1
  Ga  Ga4  1  0.00000000  0.00000000  0.00000000  1
  Ga  Ga5  1  0.00000000  0.50000000  0.25000000  1
  Ga  Ga6  1  0.50000000  0.50000000  0.50000000  1
  Ga  Ga7  1  0.50000000  0.00000000  0.75000000  1
  Te  Te8  1  0.25000000  0.26469100  0.37500000  1
  Te  Te9  1  0.76469100  0.25000000  0.12500000  1
  Te  Te10  1  0.23530900  0.75000000  0.12500000  1
  Te  Te11  1  0.75000000  0.73530900  0.37500000  1
  Te  Te12  1  0.75000000  0.76469100  0.87500000  1
  Te  Te13  1  0.26469100  0.75000000  0.62500000  1
  Te  Te14  1  0.73530900  0.25000000  0.62500000  1
  Te  Te15  1  0.25000000  0.23530900  0.87500000  1
