# generated using pymatgen
data_Be2BO3F
_symmetry_space_group_name_H-M   'P 1'
_cell_length_a   4.46906208
_cell_length_b   4.46906208
_cell_length_c   25.23936955
_cell_angle_alpha   90.00000000
_cell_angle_beta   90.00000000
_cell_angle_gamma   120.00000000
_symmetry_Int_Tables_number   1
_chemical_formula_structural   Be2BO3F
_chemical_formula_sum   'Be12 B6 O18 F6'
_cell_volume   436.55795751
_cell_formula_units_Z   6
loop_
 _symmetry_equiv_pos_site_id
 _symmetry_equiv_pos_as_xyz
  1  'x, y, z'
loop_
 _atom_site_type_symbol
 _atom_site_label
 _atom_site_symmetry_multiplicity
 _atom_site_fract_x
 _atom_site_fract_y
 _atom_site_fract_z
 _atom_site_occupancy
  Be  Be0  1  0.33333333  0.66666667  0.22956367  1
  Be  Be1  1  0.66666667  0.33333333  0.27043633  1
  Be  Be2  1  0.00000000  0.00000000  0.06289700  1
  Be  Be3  1  0.33333333  0.66666667  0.10376967  1
  Be  Be4  1  0.00000000  0.00000000  0.56289700  1
  Be  Be5  1  0.33333333  0.66666667  0.60376967  1
  Be  Be6  1  0.66666667  0.33333333  0.39623033  1
  Be  Be7  1  0.00000000  0.00000000  0.43710300  1
  Be  Be8  1  0.66666667  0.33333333  0.89623033  1
  Be  Be9  1  0.00000000  0.00000000  0.93710300  1
  Be  Be10  1  0.33333333  0.66666667  0.72956367  1
  Be  Be11  1  0.66666667  0.33333333  0.77043633  1
  B  B12  1  0.00000000  0.00000000  0.25000000  1
  B  B13  1  0.66666667  0.33333333  0.08333333  1
  B  B14  1  0.66666667  0.33333333  0.58333333  1
  B  B15  1  0.33333333  0.66666667  0.41666667  1
  B  B16  1  0.33333333  0.66666667  0.91666667  1
  B  B17  1  0.00000000  0.00000000  0.75000000  1
  O  O18  1  0.30882700  0.30882700  0.25000000  1
  O  O19  1  0.97549367  0.33333333  0.08333333  1
  O  O20  1  0.69117300  0.00000000  0.25000000  1
  O  O21  1  0.35783967  0.02450633  0.08333333  1
  O  O22  1  0.00000000  0.69117300  0.25000000  1
  O  O23  1  0.66666667  0.64216033  0.08333333  1
  O  O24  1  0.97549367  0.64216033  0.58333333  1
  O  O25  1  0.64216033  0.66666667  0.41666667  1
  O  O26  1  0.35783967  0.33333333  0.58333333  1
  O  O27  1  0.02450633  0.35783967  0.41666667  1
  O  O28  1  0.66666667  0.02450633  0.58333333  1
  O  O29  1  0.33333333  0.97549367  0.41666667  1
  O  O30  1  0.64216033  0.97549367  0.91666667  1
  O  O31  1  0.30882700  0.00000000  0.75000000  1
  O  O32  1  0.02450633  0.66666667  0.91666667  1
  O  O33  1  0.69117300  0.69117300  0.75000000  1
  O  O34  1  0.33333333  0.35783967  0.91666667  1
  O  O35  1  0.00000000  0.30882700  0.75000000  1
  F  F36  1  0.33333333  0.66666667  0.16666667  1
  F  F37  1  0.00000000  0.00000000  0.00000000  1
  F  F38  1  1.00000000  0.00000000  0.50000000  1
  F  F39  1  0.66666667  0.33333333  0.33333333  1
  F  F40  1  0.66666667  0.33333333  0.83333333  1
  F  F41  1  0.33333333  0.66666667  0.66666667  1
