# generated using pymatgen
data_Mg3(PO4)2
_symmetry_space_group_name_H-M   'P 1'
_cell_length_a   8.61163020
_cell_length_b   9.09287205
_cell_length_c   9.41919639
_cell_angle_alpha   115.93422011
_cell_angle_beta   91.39466419
_cell_angle_gamma   114.41326990
_symmetry_Int_Tables_number   1
_chemical_formula_structural   Mg3(PO4)2
_chemical_formula_sum   'Mg12 P8 O32'
_cell_volume   584.73307764
_cell_formula_units_Z   4
loop_
 _symmetry_equiv_pos_site_id
 _symmetry_equiv_pos_as_xyz
  1  'x, y, z'
loop_
 _atom_site_type_symbol
 _atom_site_label
 _atom_site_symmetry_multiplicity
 _atom_site_fract_x
 _atom_site_fract_y
 _atom_site_fract_z
 _atom_site_occupancy
  Mg  Mg0  1  0.07788824  0.42778174  0.87406628  1
  Mg  Mg1  1  0.59350955  0.25992901  0.26262166  1
  Mg  Mg2  1  0.51573141  0.06929789  0.82218135  1
  Mg  Mg3  1  0.48426859  0.93070211  0.17781865  1
  Mg  Mg4  1  0.98281100  0.26301156  0.44387395  1
  Mg  Mg5  1  0.59862967  0.51846872  0.67431582  1
  Mg  Mg6  1  0.90315130  0.97954167  0.83911386  1
  Mg  Mg7  1  0.40137033  0.48153128  0.32568418  1
  Mg  Mg8  1  0.40649045  0.74007099  0.73737834  1
  Mg  Mg9  1  0.09684870  0.02045833  0.16088614  1
  Mg  Mg10  1  0.01718900  0.73698844  0.55612605  1
  Mg  Mg11  1  0.92211176  0.57221826  0.12593372  1
  P  P12  1  0.32870652  0.27203536  0.90696409  1
  P  P13  1  0.17827957  0.74214304  0.94742180  1
  P  P14  1  0.67129348  0.72796464  0.09303591  1
  P  P15  1  0.76413853  0.32942634  0.59893856  1
  P  P16  1  0.72971121  0.88403037  0.54945664  1
  P  P17  1  0.27028879  0.11596963  0.45054336  1
  P  P18  1  0.23586147  0.67057366  0.40106144  1
  P  P19  1  0.82172043  0.25785696  0.05257820  1
  O  O20  1  0.13195715  0.15576049  0.90425706  1
  O  O21  1  0.15714488  0.70168722  0.80064516  1
  O  O22  1  0.24635414  0.84839223  0.24733906  1
  O  O23  1  0.84285512  0.29831278  0.19935484  1
  O  O24  1  0.00269057  0.76878460  0.93038276  1
  O  O25  1  0.60029299  0.39115874  0.55282756  1
  O  O26  1  0.40948956  0.28978247  0.78316335  1
  O  O27  1  0.43370032  0.18406206  0.08369298  1
  O  O28  1  0.21176934  0.25130885  0.45703136  1
  O  O29  1  0.93383380  0.46617836  0.64457702  1
  O  O30  1  0.10659255  0.98326726  0.38958047  1
  O  O31  1  0.56629968  0.81593794  0.91630702  1
  O  O32  1  0.32440037  0.45766767  0.87305213  1
  O  O33  1  0.67146051  0.09251444  0.04724269  1
  O  O34  1  0.67559963  0.54233233  0.12694787  1
  O  O35  1  0.62049473  0.76501551  0.68045533  1
  O  O36  1  0.20472990  0.57378188  0.10516025  1
  O  O37  1  0.37728871  0.01033132  0.61868248  1
  O  O38  1  0.59051044  0.71021753  0.21683665  1
  O  O39  1  0.77182368  0.30655079  0.45714209  1
  O  O40  1  0.99730943  0.23121540  0.06961724  1
  O  O41  1  0.39970701  0.60884126  0.44717244  1
  O  O42  1  0.78823066  0.74869115  0.54296864  1
  O  O43  1  0.37950527  0.23498449  0.31954467  1
  O  O44  1  0.22817632  0.69344921  0.54285791  1
  O  O45  1  0.62271129  0.98966868  0.38131752  1
  O  O46  1  0.32853949  0.90748556  0.95275731  1
  O  O47  1  0.75364586  0.15160777  0.75266094  1
  O  O48  1  0.79527010  0.42621812  0.89483975  1
  O  O49  1  0.86804285  0.84423951  0.09574294  1
  O  O50  1  0.89340745  0.01673274  0.61041953  1
  O  O51  1  0.06616620  0.53382164  0.35542298  1
