# generated using pymatgen
data_MnVCuO4
_symmetry_space_group_name_H-M   'P 1'
_cell_length_a   5.92450633
_cell_length_b   8.87524437
_cell_length_c   6.43836900
_cell_angle_alpha   90.00000000
_cell_angle_beta   90.00000000
_cell_angle_gamma   90.00000000
_symmetry_Int_Tables_number   1
_chemical_formula_structural   MnVCuO4
_chemical_formula_sum   'Mn4 V4 Cu4 O16'
_cell_volume   338.53872282
_cell_formula_units_Z   4
loop_
 _symmetry_equiv_pos_site_id
 _symmetry_equiv_pos_as_xyz
  1  'x, y, z'
loop_
 _atom_site_type_symbol
 _atom_site_label
 _atom_site_symmetry_multiplicity
 _atom_site_fract_x
 _atom_site_fract_y
 _atom_site_fract_z
 _atom_site_occupancy
  Mn  Mn0  1  0.50000000  0.00000000  0.50000000  1
  Mn  Mn1  1  0.50000000  0.00000000  0.00000000  1
  Mn  Mn2  1  0.00000000  0.50000000  0.50000000  1
  Mn  Mn3  1  0.00000000  0.50000000  0.00000000  1
  V  V4  1  0.00000000  0.13906600  0.75000000  1
  V  V5  1  0.00000000  0.86093400  0.25000000  1
  V  V6  1  0.50000000  0.63906600  0.75000000  1
  V  V7  1  0.50000000  0.36093400  0.25000000  1
  Cu  Cu8  1  0.00000000  0.82371700  0.75000000  1
  Cu  Cu9  1  0.00000000  0.17628300  0.25000000  1
  Cu  Cu10  1  0.50000000  0.32371700  0.75000000  1
  Cu  Cu11  1  0.50000000  0.67628300  0.25000000  1
  O  O12  1  0.00000000  0.25289250  0.97043000  1
  O  O13  1  0.00000000  0.74710750  0.47043000  1
  O  O14  1  0.00000000  0.74710750  0.02957000  1
  O  O15  1  0.00000000  0.25289250  0.52957000  1
  O  O16  1  0.75398650  0.02045900  0.75000000  1
  O  O17  1  0.24601350  0.97954100  0.25000000  1
  O  O18  1  0.24601350  0.02045900  0.75000000  1
  O  O19  1  0.75398650  0.97954100  0.25000000  1
  O  O20  1  0.50000000  0.75289250  0.97043000  1
  O  O21  1  0.50000000  0.24710750  0.47043000  1
  O  O22  1  0.50000000  0.24710750  0.02957000  1
  O  O23  1  0.50000000  0.75289250  0.52957000  1
  O  O24  1  0.25398650  0.52045900  0.75000000  1
  O  O25  1  0.74601350  0.47954100  0.25000000  1
  O  O26  1  0.74601350  0.52045900  0.75000000  1
  O  O27  1  0.25398650  0.47954100  0.25000000  1
