# generated using pymatgen
data_InSb2S4Cl
_symmetry_space_group_name_H-M   'P 1'
_cell_length_a   20.23597600
_cell_length_b   3.89217000
_cell_length_c   11.82768070
_cell_angle_alpha   90.00000000
_cell_angle_beta   118.65864212
_cell_angle_gamma   90.00000000
_symmetry_Int_Tables_number   1
_chemical_formula_structural   InSb2S4Cl
_chemical_formula_sum   'In4 Sb8 S16 Cl4'
_cell_volume   817.44586050
_cell_formula_units_Z   4
loop_
 _symmetry_equiv_pos_site_id
 _symmetry_equiv_pos_as_xyz
  1  'x, y, z'
loop_
 _atom_site_type_symbol
 _atom_site_label
 _atom_site_symmetry_multiplicity
 _atom_site_fract_x
 _atom_site_fract_y
 _atom_site_fract_z
 _atom_site_occupancy
  In  In0  1  0.83647200  0.00000000  0.56139700  1
  In  In1  1  0.16352800  0.00000000  0.43860300  1
  In  In2  1  0.33647200  0.50000000  0.56139700  1
  In  In3  1  0.66352800  0.50000000  0.43860300  1
  Sb  Sb4  1  0.04909800  0.50000000  0.77932200  1
  Sb  Sb5  1  0.70314800  0.50000000  0.09383300  1
  Sb  Sb6  1  0.95090200  0.50000000  0.22067800  1
  Sb  Sb7  1  0.29685200  0.50000000  0.90616700  1
  Sb  Sb8  1  0.54909800  0.00000000  0.77932200  1
  Sb  Sb9  1  0.20314800  0.00000000  0.09383300  1
  Sb  Sb10  1  0.45090200  0.00000000  0.22067800  1
  Sb  Sb11  1  0.79685200  0.00000000  0.90616700  1
  S  S12  1  0.28735400  0.00000000  0.65119900  1
  S  S13  1  0.18206900  0.00000000  0.86733400  1
  S  S14  1  0.96389800  0.00000000  0.77934000  1
  S  S15  1  0.59918400  0.00000000  0.01860900  1
  S  S16  1  0.03610200  0.00000000  0.22066000  1
  S  S17  1  0.71264600  0.00000000  0.34880100  1
  S  S18  1  0.81793100  0.00000000  0.13266600  1
  S  S19  1  0.40081600  0.00000000  0.98139100  1
  S  S20  1  0.78735400  0.50000000  0.65119900  1
  S  S21  1  0.68206900  0.50000000  0.86733400  1
  S  S22  1  0.46389800  0.50000000  0.77934000  1
  S  S23  1  0.09918400  0.50000000  0.01860900  1
  S  S24  1  0.53610200  0.50000000  0.22066000  1
  S  S25  1  0.21264600  0.50000000  0.34880100  1
  S  S26  1  0.31793100  0.50000000  0.13266600  1
  S  S27  1  0.90081600  0.50000000  0.98139100  1
  Cl  Cl28  1  0.10459300  0.50000000  0.52512800  1
  Cl  Cl29  1  0.89540700  0.50000000  0.47487200  1
  Cl  Cl30  1  0.60459300  0.00000000  0.52512800  1
  Cl  Cl31  1  0.39540700  0.00000000  0.47487200  1
