# generated using pymatgen
data_Cs2In3
_symmetry_space_group_name_H-M   'P 1'
_cell_length_a   7.10112200
_cell_length_b   7.10112200
_cell_length_c   16.95012600
_cell_angle_alpha   90.00000000
_cell_angle_beta   90.00000000
_cell_angle_gamma   90.00000000
_symmetry_Int_Tables_number   1
_chemical_formula_structural   Cs2In3
_chemical_formula_sum   'Cs8 In12'
_cell_volume   854.72592919
_cell_formula_units_Z   4
loop_
 _symmetry_equiv_pos_site_id
 _symmetry_equiv_pos_as_xyz
  1  'x, y, z'
loop_
 _atom_site_type_symbol
 _atom_site_label
 _atom_site_symmetry_multiplicity
 _atom_site_fract_x
 _atom_site_fract_y
 _atom_site_fract_z
 _atom_site_occupancy
  Cs  Cs0  1  0.00000000  0.00000000  0.38808700  1
  Cs  Cs1  1  0.50000000  0.50000000  0.11191300  1
  Cs  Cs2  1  0.50000000  0.00000000  0.25000000  1
  Cs  Cs3  1  0.00000000  0.50000000  0.25000000  1
  Cs  Cs4  1  0.50000000  0.50000000  0.88808700  1
  Cs  Cs5  1  0.00000000  0.00000000  0.61191300  1
  Cs  Cs6  1  0.00000000  0.50000000  0.75000000  1
  Cs  Cs7  1  0.50000000  0.00000000  0.75000000  1
  In  In8  1  0.29414700  0.00000000  0.00569100  1
  In  In9  1  0.00000000  0.00000000  0.14055900  1
  In  In10  1  0.50000000  0.50000000  0.35944100  1
  In  In11  1  0.70585300  0.00000000  0.00569100  1
  In  In12  1  0.50000000  0.79414700  0.49430900  1
  In  In13  1  0.50000000  0.20585300  0.49430900  1
  In  In14  1  0.79414700  0.50000000  0.50569100  1
  In  In15  1  0.50000000  0.50000000  0.64055900  1
  In  In16  1  0.00000000  0.00000000  0.85944100  1
  In  In17  1  0.20585300  0.50000000  0.50569100  1
  In  In18  1  0.00000000  0.29414700  0.99430900  1
  In  In19  1  0.00000000  0.70585300  0.99430900  1
