# generated using pymatgen
data_Sr3U(Te2O7)2
_symmetry_space_group_name_H-M   'P 1'
_cell_length_a   21.02083600
_cell_length_b   5.73725400
_cell_length_c   13.24355433
_cell_angle_alpha   90.00000000
_cell_angle_beta   93.77254585
_cell_angle_gamma   90.00000000
_symmetry_Int_Tables_number   1
_chemical_formula_structural   Sr3U(Te2O7)2
_chemical_formula_sum   'Sr12 U4 Te16 O56'
_cell_volume   1593.73653766
_cell_formula_units_Z   4
loop_
 _symmetry_equiv_pos_site_id
 _symmetry_equiv_pos_as_xyz
  1  'x, y, z'
loop_
 _atom_site_type_symbol
 _atom_site_label
 _atom_site_symmetry_multiplicity
 _atom_site_fract_x
 _atom_site_fract_y
 _atom_site_fract_z
 _atom_site_occupancy
  Sr  Sr0  1  0.56068850  0.26683350  0.05808600  1
  Sr  Sr1  1  0.56068850  0.73316650  0.55808600  1
  Sr  Sr2  1  0.93931150  0.76683350  0.44191400  1
  Sr  Sr3  1  0.00000000  0.27854900  0.25000000  1
  Sr  Sr4  1  0.93931150  0.23316650  0.94191400  1
  Sr  Sr5  1  0.00000000  0.72145100  0.75000000  1
  Sr  Sr6  1  0.06068850  0.76683350  0.05808600  1
  Sr  Sr7  1  0.06068850  0.23316650  0.55808600  1
  Sr  Sr8  1  0.43931150  0.26683350  0.44191400  1
  Sr  Sr9  1  0.50000000  0.77854900  0.25000000  1
  Sr  Sr10  1  0.43931150  0.73316650  0.94191400  1
  Sr  Sr11  1  0.50000000  0.22145100  0.75000000  1
  U  U12  1  0.75000000  0.75000000  0.50000000  1
  U  U13  1  0.75000000  0.25000000  0.00000000  1
  U  U14  1  0.25000000  0.25000000  0.50000000  1
  U  U15  1  0.25000000  0.75000000  0.00000000  1
  Te  Te16  1  0.82564550  0.28750650  0.33648300  1
  Te  Te17  1  0.60060100  0.77498800  0.87266300  1
  Te  Te18  1  0.67435450  0.21249350  0.66351700  1
  Te  Te19  1  0.60060100  0.22501200  0.37266300  1
  Te  Te20  1  0.89939900  0.27498800  0.62733700  1
  Te  Te21  1  0.82564550  0.71249350  0.83648300  1
  Te  Te22  1  0.89939900  0.72501200  0.12733700  1
  Te  Te23  1  0.67435450  0.78750650  0.16351700  1
  Te  Te24  1  0.32564550  0.78750650  0.33648300  1
  Te  Te25  1  0.10060100  0.27498800  0.87266300  1
  Te  Te26  1  0.17435450  0.71249350  0.66351700  1
  Te  Te27  1  0.10060100  0.72501200  0.37266300  1
  Te  Te28  1  0.39939900  0.77498800  0.62733700  1
  Te  Te29  1  0.32564550  0.21249350  0.83648300  1
  Te  Te30  1  0.39939900  0.22501200  0.12733700  1
  Te  Te31  1  0.17435450  0.28750650  0.16351700  1
  O  O32  1  0.59268950  0.66726850  0.13485000  1
  O  O33  1  0.59066500  0.86754700  0.73502900  1
  O  O34  1  0.82859200  0.47566100  0.94087600  1
  O  O35  1  0.90731050  0.83273150  0.86515000  1
  O  O36  1  0.95984700  0.49421100  0.58631500  1
  O  O37  1  0.67140800  0.97566100  0.55912400  1
  O  O38  1  0.95661500  0.02059800  0.61581100  1
  O  O39  1  0.71870600  0.54737800  0.09574500  1
  O  O40  1  0.54338500  0.47940200  0.38418900  1
  O  O41  1  0.54015300  0.00578900  0.41368500  1
  O  O42  1  0.90933500  0.36754700  0.76497100  1
  O  O43  1  0.80793950  0.84609250  0.60369900  1
  O  O44  1  0.59066500  0.13245300  0.23502900  1
  O  O45  1  0.69206050  0.34609250  0.89630100  1
  O  O46  1  0.80793950  0.15390750  0.10369900  1
  O  O47  1  0.59268950  0.33273150  0.63485000  1
  O  O48  1  0.95661500  0.97940200  0.11581100  1
  O  O49  1  0.67140800  0.02433900  0.05912400  1
  O  O50  1  0.90731050  0.16726850  0.36515000  1
  O  O51  1  0.54015300  0.99421100  0.91368500  1
  O  O52  1  0.95984700  0.50578900  0.08631500  1
  O  O53  1  0.82859200  0.52433900  0.44087600  1
  O  O54  1  0.78129400  0.95262200  0.90425500  1
  O  O55  1  0.78129400  0.04737800  0.40425500  1
  O  O56  1  0.54338500  0.52059800  0.88418900  1
  O  O57  1  0.71870600  0.45262200  0.59574500  1
  O  O58  1  0.90933500  0.63245300  0.26497100  1
  O  O59  1  0.69206050  0.65390750  0.39630100  1
  O  O60  1  0.09268950  0.16726850  0.13485000  1
  O  O61  1  0.09066500  0.36754700  0.73502900  1
  O  O62  1  0.32859200  0.97566100  0.94087600  1
  O  O63  1  0.40731050  0.33273150  0.86515000  1
  O  O64  1  0.45984700  0.99421100  0.58631500  1
  O  O65  1  0.17140800  0.47566100  0.55912400  1
  O  O66  1  0.45661500  0.52059800  0.61581100  1
  O  O67  1  0.21870600  0.04737800  0.09574500  1
  O  O68  1  0.04338500  0.97940200  0.38418900  1
  O  O69  1  0.04015300  0.50578900  0.41368500  1
  O  O70  1  0.40933500  0.86754700  0.76497100  1
  O  O71  1  0.30793950  0.34609250  0.60369900  1
  O  O72  1  0.09066500  0.63245300  0.23502900  1
  O  O73  1  0.19206050  0.84609250  0.89630100  1
  O  O74  1  0.30793950  0.65390750  0.10369900  1
  O  O75  1  0.09268950  0.83273150  0.63485000  1
  O  O76  1  0.45661500  0.47940200  0.11581100  1
  O  O77  1  0.17140800  0.52433900  0.05912400  1
  O  O78  1  0.40731050  0.66726850  0.36515000  1
  O  O79  1  0.04015300  0.49421100  0.91368500  1
  O  O80  1  0.45984700  0.00578900  0.08631500  1
  O  O81  1  0.32859200  0.02433900  0.44087600  1
  O  O82  1  0.28129400  0.45262200  0.90425500  1
  O  O83  1  0.28129400  0.54737800  0.40425500  1
  O  O84  1  0.04338500  0.02059800  0.88418900  1
  O  O85  1  0.21870600  0.95262200  0.59574500  1
  O  O86  1  0.40933500  0.13245300  0.26497100  1
  O  O87  1  0.19206050  0.15390750  0.39630100  1
