# generated using pymatgen
data_Re(TeCl6)2
_symmetry_space_group_name_H-M   'P 1'
_cell_length_a   11.50819148
_cell_length_b   11.50819148
_cell_length_c   37.53498051
_cell_angle_alpha   90.00000000
_cell_angle_beta   90.00000000
_cell_angle_gamma   120.00000000
_symmetry_Int_Tables_number   1
_chemical_formula_structural   Re(TeCl6)2
_chemical_formula_sum   'Re9 Te18 Cl108'
_cell_volume   4305.07760683
_cell_formula_units_Z   9
loop_
 _symmetry_equiv_pos_site_id
 _symmetry_equiv_pos_as_xyz
  1  'x, y, z'
loop_
 _atom_site_type_symbol
 _atom_site_label
 _atom_site_symmetry_multiplicity
 _atom_site_fract_x
 _atom_site_fract_y
 _atom_site_fract_z
 _atom_site_occupancy
  Re  Re0  1  0.00000000  0.00000000  0.25286300  1
  Re  Re1  1  0.66666667  0.33333333  0.08047033  1
  Re  Re2  1  0.33333333  0.66666667  0.16666667  1
  Re  Re3  1  0.66666667  0.33333333  0.58619633  1
  Re  Re4  1  0.33333333  0.66666667  0.41380367  1
  Re  Re5  1  1.00000000  0.00000000  0.50000000  1
  Re  Re6  1  0.33333333  0.66666667  0.91952967  1
  Re  Re7  1  0.00000000  0.00000000  0.74713700  1
  Re  Re8  1  0.66666667  0.33333333  0.83333333  1
  Te  Te9  1  0.66749033  0.97632067  0.08218667  1
  Te  Te10  1  0.02367933  0.69116967  0.08218667  1
  Te  Te11  1  0.99917633  0.35701267  0.25114667  1
  Te  Te12  1  0.64298733  0.64216367  0.25114667  1
  Te  Te13  1  0.35783633  0.00082367  0.25114667  1
  Te  Te14  1  0.30883033  0.33250967  0.08218667  1
  Te  Te15  1  0.33415700  0.30965400  0.41552000  1
  Te  Te16  1  0.69034600  0.02450300  0.41552000  1
  Te  Te17  1  0.66584300  0.69034600  0.58448000  1
  Te  Te18  1  0.30965400  0.97549700  0.58448000  1
  Te  Te19  1  0.02450300  0.33415700  0.58448000  1
  Te  Te20  1  0.97549700  0.66584300  0.41552000  1
  Te  Te21  1  0.00082367  0.64298733  0.74885333  1
  Te  Te22  1  0.35701267  0.35783633  0.74885333  1
  Te  Te23  1  0.33250967  0.02367933  0.91781333  1
  Te  Te24  1  0.97632067  0.30883033  0.91781333  1
  Te  Te25  1  0.69116967  0.66749033  0.91781333  1
  Te  Te26  1  0.64216367  0.99917633  0.74885333  1
  Cl  Cl27  1  0.09522800  0.19505700  0.28914900  1
  Cl  Cl28  1  0.89310133  0.42941867  0.21034367  1
  Cl  Cl29  1  0.57058133  0.46368267  0.21034367  1
  Cl  Cl30  1  0.77356533  0.90391467  0.12298967  1
  Cl  Cl31  1  0.76281400  0.23498700  0.11735100  1
  Cl  Cl32  1  0.43433100  0.57205900  0.13049200  1
  Cl  Cl33  1  0.80494300  0.90017100  0.28914900  1
  Cl  Cl34  1  0.23233567  0.76127433  0.20284133  1
  Cl  Cl35  1  0.42794100  0.86227200  0.13049200  1
  Cl  Cl36  1  0.56683767  0.42856133  0.04418433  1
  Cl  Cl37  1  0.90165367  0.80550633  0.21598233  1
  Cl  Cl38  1  0.09982900  0.90477200  0.28914900  1
  Cl  Cl39  1  0.23872567  0.47106133  0.20284133  1
  Cl  Cl40  1  0.10282667  0.54979833  0.28788533  1
  Cl  Cl41  1  0.80935767  0.25040633  0.28847333  1
  Cl  Cl42  1  0.45020167  0.55302833  0.28788533  1
  Cl  Cl43  1  0.09608533  0.86965067  0.12298967  1
  Cl  Cl44  1  0.56384000  0.78353500  0.04544800  1
  Cl  Cl45  1  0.13034933  0.22643467  0.12298967  1
  Cl  Cl46  1  0.13772800  0.56566900  0.13049200  1
  Cl  Cl47  1  0.44697167  0.89717333  0.28788533  1
  Cl  Cl48  1  0.86172367  0.43316233  0.04418433  1
  Cl  Cl49  1  0.52893867  0.76766433  0.20284133  1
  Cl  Cl50  1  0.47217300  0.23718600  0.11735100  1
  Cl  Cl51  1  0.53631733  0.10689867  0.21034367  1
  Cl  Cl52  1  0.85730900  0.08292700  0.04486000  1
  Cl  Cl53  1  0.19449367  0.09614733  0.21598233  1
  Cl  Cl54  1  0.91707300  0.77438200  0.04486000  1
  Cl  Cl55  1  0.57143867  0.13827633  0.04418433  1
  Cl  Cl56  1  0.21969500  0.43616000  0.04544800  1
  Cl  Cl57  1  0.76501300  0.52782700  0.11735100  1
  Cl  Cl58  1  0.44104867  0.19064233  0.28847333  1
  Cl  Cl59  1  0.90385267  0.09834633  0.21598233  1
  Cl  Cl60  1  0.74959367  0.55895133  0.28847333  1
  Cl  Cl61  1  0.22561800  0.14269100  0.04486000  1
  Cl  Cl62  1  0.21646500  0.78030500  0.04544800  1
  Cl  Cl63  1  0.76189467  0.52839033  0.62248233  1
  Cl  Cl64  1  0.55976800  0.76275200  0.54367700  1
  Cl  Cl65  1  0.23724800  0.79701600  0.54367700  1
  Cl  Cl66  1  0.44023200  0.23724800  0.45632300  1
  Cl  Cl67  1  0.42948067  0.56832033  0.45068433  1
  Cl  Cl68  1  0.10099767  0.90539233  0.46382533  1
  Cl  Cl69  1  0.47160967  0.23350433  0.62248233  1
  Cl  Cl70  1  0.89900233  0.09460767  0.53617467  1
  Cl  Cl71  1  0.09460767  0.19560533  0.46382533  1
  Cl  Cl72  1  0.23350433  0.76189467  0.37751767  1
  Cl  Cl73  1  0.56832033  0.13883967  0.54931567  1
  Cl  Cl74  1  0.76649567  0.23810533  0.62248233  1
  Cl  Cl75  1  0.90539233  0.80439467  0.53617467  1
  Cl  Cl76  1  0.76949333  0.88313167  0.62121867  1
  Cl  Cl77  1  0.47602433  0.58373967  0.62180667  1
  Cl  Cl78  1  0.11686833  0.88636167  0.62121867  1
  Cl  Cl79  1  0.76275200  0.20298400  0.45632300  1
  Cl  Cl80  1  0.23050667  0.11686833  0.37878133  1
  Cl  Cl81  1  0.79701600  0.55976800  0.45632300  1
  Cl  Cl82  1  0.80439467  0.89900233  0.46382533  1
  Cl  Cl83  1  0.11363833  0.23050667  0.62121867  1
  Cl  Cl84  1  0.52839033  0.76649567  0.37751767  1
  Cl  Cl85  1  0.19560533  0.10099767  0.53617467  1
  Cl  Cl86  1  0.13883967  0.57051933  0.45068433  1
  Cl  Cl87  1  0.20298400  0.44023200  0.54367700  1
  Cl  Cl88  1  0.52397567  0.41626033  0.37819333  1
  Cl  Cl89  1  0.86116033  0.42948067  0.54931567  1
  Cl  Cl90  1  0.58373967  0.10771533  0.37819333  1
  Cl  Cl91  1  0.23810533  0.47160967  0.37751767  1
  Cl  Cl92  1  0.88636167  0.76949333  0.37878133  1
  Cl  Cl93  1  0.43167967  0.86116033  0.45068433  1
  Cl  Cl94  1  0.10771533  0.52397567  0.62180667  1
  Cl  Cl95  1  0.57051933  0.43167967  0.54931567  1
  Cl  Cl96  1  0.41626033  0.89228467  0.62180667  1
  Cl  Cl97  1  0.89228467  0.47602433  0.37819333  1
  Cl  Cl98  1  0.88313167  0.11363833  0.37878133  1
  Cl  Cl99  1  0.42856133  0.86172367  0.95581567  1
  Cl  Cl100  1  0.22643467  0.09608533  0.87701033  1
  Cl  Cl101  1  0.90391467  0.13034933  0.87701033  1
  Cl  Cl102  1  0.10689867  0.57058133  0.78965633  1
  Cl  Cl103  1  0.09614733  0.90165367  0.78401767  1
  Cl  Cl104  1  0.76766433  0.23872567  0.79715867  1
  Cl  Cl105  1  0.13827633  0.56683767  0.95581567  1
  Cl  Cl106  1  0.56566900  0.42794100  0.86950800  1
  Cl  Cl107  1  0.76127433  0.52893867  0.79715867  1
  Cl  Cl108  1  0.90017100  0.09522800  0.71085100  1
  Cl  Cl109  1  0.23498700  0.47217300  0.88264900  1
  Cl  Cl110  1  0.43316233  0.57143867  0.95581567  1
  Cl  Cl111  1  0.57205900  0.13772800  0.86950800  1
  Cl  Cl112  1  0.43616000  0.21646500  0.95455200  1
  Cl  Cl113  1  0.14269100  0.91707300  0.95514000  1
  Cl  Cl114  1  0.78353500  0.21969500  0.95455200  1
  Cl  Cl115  1  0.42941867  0.53631733  0.78965633  1
  Cl  Cl116  1  0.89717333  0.45020167  0.71211467  1
  Cl  Cl117  1  0.46368267  0.89310133  0.78965633  1
  Cl  Cl118  1  0.47106133  0.23233567  0.79715867  1
  Cl  Cl119  1  0.78030500  0.56384000  0.95455200  1
  Cl  Cl120  1  0.19505700  0.09982900  0.71085100  1
  Cl  Cl121  1  0.86227200  0.43433100  0.86950800  1
  Cl  Cl122  1  0.80550633  0.90385267  0.78401767  1
  Cl  Cl123  1  0.86965067  0.77356533  0.87701033  1
  Cl  Cl124  1  0.19064233  0.74959367  0.71152667  1
  Cl  Cl125  1  0.52782700  0.76281400  0.88264900  1
  Cl  Cl126  1  0.25040633  0.44104867  0.71152667  1
  Cl  Cl127  1  0.90477200  0.80494300  0.71085100  1
  Cl  Cl128  1  0.55302833  0.10282667  0.71211467  1
  Cl  Cl129  1  0.09834633  0.19449367  0.78401767  1
  Cl  Cl130  1  0.77438200  0.85730900  0.95514000  1
  Cl  Cl131  1  0.23718600  0.76501300  0.88264900  1
  Cl  Cl132  1  0.08292700  0.22561800  0.95514000  1
  Cl  Cl133  1  0.55895133  0.80935767  0.71152667  1
  Cl  Cl134  1  0.54979833  0.44697167  0.71211467  1
