# generated using pymatgen
data_BaCa(GaO2)4
_symmetry_space_group_name_H-M   'P 1'
_cell_length_a   5.23942400
_cell_length_b   8.33628400
_cell_length_c   9.29335000
_cell_angle_alpha   90.00000000
_cell_angle_beta   90.00000000
_cell_angle_gamma   90.00000000
_symmetry_Int_Tables_number   1
_chemical_formula_structural   BaCa(GaO2)4
_chemical_formula_sum   'Ba2 Ca2 Ga8 O16'
_cell_volume   405.90868186
_cell_formula_units_Z   2
loop_
 _symmetry_equiv_pos_site_id
 _symmetry_equiv_pos_as_xyz
  1  'x, y, z'
loop_
 _atom_site_type_symbol
 _atom_site_label
 _atom_site_symmetry_multiplicity
 _atom_site_fract_x
 _atom_site_fract_y
 _atom_site_fract_z
 _atom_site_occupancy
  Ba  Ba0  1  0.00537000  0.00000000  0.00000000  1
  Ba  Ba1  1  0.50537000  0.50000000  0.50000000  1
  Ca  Ca2  1  0.43216700  0.00000000  0.50000000  1
  Ca  Ca3  1  0.93216700  0.50000000  0.00000000  1
  Ga  Ga4  1  0.96051150  0.20866350  0.66685850  1
  Ga  Ga5  1  0.96051150  0.20866350  0.33314150  1
  Ga  Ga6  1  0.96051150  0.79133650  0.33314150  1
  Ga  Ga7  1  0.96051150  0.79133650  0.66685850  1
  Ga  Ga8  1  0.46051150  0.70866350  0.16685850  1
  Ga  Ga9  1  0.46051150  0.70866350  0.83314150  1
  Ga  Ga10  1  0.46051150  0.29133650  0.83314150  1
  Ga  Ga11  1  0.46051150  0.29133650  0.16685850  1
  O  O12  1  0.60355850  0.79427050  0.66560050  1
  O  O13  1  0.60355850  0.20572950  0.33439950  1
  O  O14  1  0.07423700  0.30897100  0.50000000  1
  O  O15  1  0.07423700  0.69102900  0.50000000  1
  O  O16  1  0.60355850  0.79427050  0.33439950  1
  O  O17  1  0.60355850  0.20572950  0.66560050  1
  O  O18  1  0.08860500  0.00000000  0.32918100  1
  O  O19  1  0.08860500  0.00000000  0.67081900  1
  O  O20  1  0.10355850  0.29427050  0.16560050  1
  O  O21  1  0.10355850  0.70572950  0.83439950  1
  O  O22  1  0.57423700  0.80897100  0.00000000  1
  O  O23  1  0.57423700  0.19102900  0.00000000  1
  O  O24  1  0.10355850  0.29427050  0.83439950  1
  O  O25  1  0.10355850  0.70572950  0.16560050  1
  O  O26  1  0.58860500  0.50000000  0.82918100  1
  O  O27  1  0.58860500  0.50000000  0.17081900  1
