# generated using pymatgen
data_Tb2SnS5
_symmetry_space_group_name_H-M   'P 1'
_cell_length_a   3.83127300
_cell_length_b   7.76756200
_cell_length_c   11.37605700
_cell_angle_alpha   90.00000000
_cell_angle_beta   90.00000000
_cell_angle_gamma   90.00000000
_symmetry_Int_Tables_number   1
_chemical_formula_structural   Tb2SnS5
_chemical_formula_sum   'Tb4 Sn2 S10'
_cell_volume   338.54748114
_cell_formula_units_Z   2
loop_
 _symmetry_equiv_pos_site_id
 _symmetry_equiv_pos_as_xyz
  1  'x, y, z'
loop_
 _atom_site_type_symbol
 _atom_site_label
 _atom_site_symmetry_multiplicity
 _atom_site_fract_x
 _atom_site_fract_y
 _atom_site_fract_z
 _atom_site_occupancy
  Tb  Tb0  1  0.50000000  0.96815900  0.32733500  1
  Tb  Tb1  1  0.50000000  0.46815900  0.17266500  1
  Tb  Tb2  1  0.50000000  0.53184100  0.82733500  1
  Tb  Tb3  1  0.50000000  0.03184100  0.67266500  1
  Sn  Sn4  1  0.00000000  0.50000000  0.50000000  1
  Sn  Sn5  1  0.00000000  0.00000000  0.00000000  1
  S  S6  1  0.50000000  0.67163100  0.59636700  1
  S  S7  1  0.00000000  0.17489000  0.19608700  1
  S  S8  1  0.50000000  0.17163100  0.90363300  1
  S  S9  1  0.00000000  0.00000000  0.50000000  1
  S  S10  1  0.50000000  0.82836900  0.09636700  1
  S  S11  1  0.00000000  0.67489000  0.30391300  1
  S  S12  1  0.00000000  0.32511000  0.69608700  1
  S  S13  1  0.00000000  0.82511000  0.80391300  1
  S  S14  1  0.50000000  0.32836900  0.40363300  1
  S  S15  1  0.00000000  0.50000000  0.00000000  1
