# generated using pymatgen
data_CsTm2Cu3Se5
_symmetry_space_group_name_H-M   'P 1'
_cell_length_a   4.11586400
_cell_length_b   14.68094800
_cell_length_c   17.24349400
_cell_angle_alpha   90.00000000
_cell_angle_beta   90.00000000
_cell_angle_gamma   90.00000000
_symmetry_Int_Tables_number   1
_chemical_formula_structural   CsTm2Cu3Se5
_chemical_formula_sum   'Cs4 Tm8 Cu12 Se20'
_cell_volume   1041.93442379
_cell_formula_units_Z   4
loop_
 _symmetry_equiv_pos_site_id
 _symmetry_equiv_pos_as_xyz
  1  'x, y, z'
loop_
 _atom_site_type_symbol
 _atom_site_label
 _atom_site_symmetry_multiplicity
 _atom_site_fract_x
 _atom_site_fract_y
 _atom_site_fract_z
 _atom_site_occupancy
  Cs  Cs0  1  0.50000000  0.43888500  0.25000000  1
  Cs  Cs1  1  0.00000000  0.06111500  0.75000000  1
  Cs  Cs2  1  0.00000000  0.93888500  0.25000000  1
  Cs  Cs3  1  0.50000000  0.56111500  0.75000000  1
  Tm  Tm4  1  0.50000000  0.30762600  0.59157200  1
  Tm  Tm5  1  0.00000000  0.19237400  0.09157200  1
  Tm  Tm6  1  0.00000000  0.19237400  0.40842800  1
  Tm  Tm7  1  0.50000000  0.30762600  0.90842800  1
  Tm  Tm8  1  0.00000000  0.80762600  0.59157200  1
  Tm  Tm9  1  0.50000000  0.69237400  0.09157200  1
  Tm  Tm10  1  0.50000000  0.69237400  0.40842800  1
  Tm  Tm11  1  0.00000000  0.80762600  0.90842800  1
  Cu  Cu12  1  0.00000000  0.41709500  0.03298900  1
  Cu  Cu13  1  0.00000000  0.34422200  0.75000000  1
  Cu  Cu14  1  0.50000000  0.08290500  0.96701100  1
  Cu  Cu15  1  0.50000000  0.08290500  0.53298900  1
  Cu  Cu16  1  0.50000000  0.15577800  0.25000000  1
  Cu  Cu17  1  0.00000000  0.41709500  0.46701100  1
  Cu  Cu18  1  0.50000000  0.91709500  0.03298900  1
  Cu  Cu19  1  0.50000000  0.84422200  0.75000000  1
  Cu  Cu20  1  0.00000000  0.58290500  0.96701100  1
  Cu  Cu21  1  0.00000000  0.58290500  0.53298900  1
  Cu  Cu22  1  0.00000000  0.65577800  0.25000000  1
  Cu  Cu23  1  0.50000000  0.91709500  0.46701100  1
  Se  Se24  1  0.50000000  0.06279300  0.38784700  1
  Se  Se25  1  0.00000000  0.16972600  0.93022100  1
  Se  Se26  1  0.00000000  0.43720700  0.61215300  1
  Se  Se27  1  0.00000000  0.23808200  0.25000000  1
  Se  Se28  1  0.50000000  0.33027400  0.43022100  1
  Se  Se29  1  0.50000000  0.33027400  0.06977900  1
  Se  Se30  1  0.00000000  0.43720700  0.88784700  1
  Se  Se31  1  0.50000000  0.26191800  0.75000000  1
  Se  Se32  1  0.00000000  0.16972600  0.56977900  1
  Se  Se33  1  0.50000000  0.06279300  0.11215300  1
  Se  Se34  1  0.00000000  0.56279300  0.38784700  1
  Se  Se35  1  0.50000000  0.66972600  0.93022100  1
  Se  Se36  1  0.50000000  0.93720700  0.61215300  1
  Se  Se37  1  0.50000000  0.73808200  0.25000000  1
  Se  Se38  1  0.00000000  0.83027400  0.43022100  1
  Se  Se39  1  0.00000000  0.83027400  0.06977900  1
  Se  Se40  1  0.50000000  0.93720700  0.88784700  1
  Se  Se41  1  0.00000000  0.76191800  0.75000000  1
  Se  Se42  1  0.50000000  0.66972600  0.56977900  1
  Se  Se43  1  0.00000000  0.56279300  0.11215300  1
