# generated using pymatgen
data_CuTeBr
_symmetry_space_group_name_H-M   'P 1'
_cell_length_a   5.16679800
_cell_length_b   22.89184800
_cell_length_c   23.23456800
_cell_angle_alpha   90.00000000
_cell_angle_beta   90.00000000
_cell_angle_gamma   90.00000000
_symmetry_Int_Tables_number   1
_chemical_formula_structural   CuTeBr
_chemical_formula_sum   'Cu32 Te32 Br32'
_cell_volume   2748.12788204
_cell_formula_units_Z   32
loop_
 _symmetry_equiv_pos_site_id
 _symmetry_equiv_pos_as_xyz
  1  'x, y, z'
loop_
 _atom_site_type_symbol
 _atom_site_label
 _atom_site_symmetry_multiplicity
 _atom_site_fract_x
 _atom_site_fract_y
 _atom_site_fract_z
 _atom_site_occupancy
  Cu  Cu0  1  0.00000000  0.00000000  0.00000000  1
  Cu  Cu1  1  0.50000000  0.00000000  0.00000000  1
  Cu  Cu2  1  0.00000000  0.86420900  0.00000000  1
  Cu  Cu3  1  0.25000000  0.61420900  0.75000000  1
  Cu  Cu4  1  0.75000000  0.75000000  0.75000000  1
  Cu  Cu5  1  0.50000000  0.63579100  0.00000000  1
  Cu  Cu6  1  0.25000000  0.75000000  0.75000000  1
  Cu  Cu7  1  0.25000000  0.88579100  0.75000000  1
  Cu  Cu8  1  0.00000000  0.50000000  0.50000000  1
  Cu  Cu9  1  0.50000000  0.50000000  0.50000000  1
  Cu  Cu10  1  0.00000000  0.36420900  0.50000000  1
  Cu  Cu11  1  0.25000000  0.11420900  0.25000000  1
  Cu  Cu12  1  0.75000000  0.25000000  0.25000000  1
  Cu  Cu13  1  0.50000000  0.13579100  0.50000000  1
  Cu  Cu14  1  0.25000000  0.25000000  0.25000000  1
  Cu  Cu15  1  0.25000000  0.38579100  0.25000000  1
  Cu  Cu16  1  0.50000000  0.00000000  0.50000000  1
  Cu  Cu17  1  0.00000000  0.00000000  0.50000000  1
  Cu  Cu18  1  0.50000000  0.86420900  0.50000000  1
  Cu  Cu19  1  0.75000000  0.61420900  0.25000000  1
  Cu  Cu20  1  0.25000000  0.75000000  0.25000000  1
  Cu  Cu21  1  0.00000000  0.63579100  0.50000000  1
  Cu  Cu22  1  0.75000000  0.75000000  0.25000000  1
  Cu  Cu23  1  0.75000000  0.88579100  0.25000000  1
  Cu  Cu24  1  0.50000000  0.50000000  0.00000000  1
  Cu  Cu25  1  0.00000000  0.50000000  0.00000000  1
  Cu  Cu26  1  0.50000000  0.36420900  0.00000000  1
  Cu  Cu27  1  0.75000000  0.11420900  0.75000000  1
  Cu  Cu28  1  0.25000000  0.25000000  0.75000000  1
  Cu  Cu29  1  0.00000000  0.13579100  0.00000000  1
  Cu  Cu30  1  0.75000000  0.25000000  0.75000000  1
  Cu  Cu31  1  0.75000000  0.38579100  0.75000000  1
  Te  Te32  1  0.90151050  0.94304000  0.69777950  1
  Te  Te33  1  0.90151050  0.55696000  0.80222050  1
  Te  Te34  1  0.65151050  0.80696000  0.94777950  1
  Te  Te35  1  0.59848950  0.94304000  0.80222050  1
  Te  Te36  1  0.84848950  0.80696000  0.55222050  1
  Te  Te37  1  0.84848950  0.69304000  0.94777950  1
  Te  Te38  1  0.59848950  0.55696000  0.69777950  1
  Te  Te39  1  0.65151050  0.69304000  0.55222050  1
  Te  Te40  1  0.90151050  0.44304000  0.19777950  1
  Te  Te41  1  0.90151050  0.05696000  0.30222050  1
  Te  Te42  1  0.65151050  0.30696000  0.44777950  1
  Te  Te43  1  0.59848950  0.44304000  0.30222050  1
  Te  Te44  1  0.84848950  0.30696000  0.05222050  1
  Te  Te45  1  0.84848950  0.19304000  0.44777950  1
  Te  Te46  1  0.59848950  0.05696000  0.19777950  1
  Te  Te47  1  0.65151050  0.19304000  0.05222050  1
  Te  Te48  1  0.40151050  0.94304000  0.19777950  1
  Te  Te49  1  0.40151050  0.55696000  0.30222050  1
  Te  Te50  1  0.15151050  0.80696000  0.44777950  1
  Te  Te51  1  0.09848950  0.94304000  0.30222050  1
  Te  Te52  1  0.34848950  0.80696000  0.05222050  1
  Te  Te53  1  0.34848950  0.69304000  0.44777950  1
  Te  Te54  1  0.09848950  0.55696000  0.19777950  1
  Te  Te55  1  0.15151050  0.69304000  0.05222050  1
  Te  Te56  1  0.40151050  0.44304000  0.69777950  1
  Te  Te57  1  0.40151050  0.05696000  0.80222050  1
  Te  Te58  1  0.15151050  0.30696000  0.94777950  1
  Te  Te59  1  0.09848950  0.44304000  0.80222050  1
  Te  Te60  1  0.34848950  0.30696000  0.55222050  1
  Te  Te61  1  0.34848950  0.19304000  0.94777950  1
  Te  Te62  1  0.09848950  0.05696000  0.69777950  1
  Te  Te63  1  0.15151050  0.19304000  0.55222050  1
  Br  Br64  1  0.24952700  0.56619800  0.56456200  1
  Br  Br65  1  0.24952700  0.93380200  0.93543800  1
  Br  Br66  1  0.25047300  0.93380200  0.56456200  1
  Br  Br67  1  0.00047300  0.81619800  0.81456200  1
  Br  Br68  1  0.49952700  0.68380200  0.81456200  1
  Br  Br69  1  0.25047300  0.56619800  0.93543800  1
  Br  Br70  1  0.49952700  0.81619800  0.68543800  1
  Br  Br71  1  0.00047300  0.68380200  0.68543800  1
  Br  Br72  1  0.24952700  0.06619800  0.06456200  1
  Br  Br73  1  0.24952700  0.43380200  0.43543800  1
  Br  Br74  1  0.25047300  0.43380200  0.06456200  1
  Br  Br75  1  0.00047300  0.31619800  0.31456200  1
  Br  Br76  1  0.49952700  0.18380200  0.31456200  1
  Br  Br77  1  0.25047300  0.06619800  0.43543800  1
  Br  Br78  1  0.49952700  0.31619800  0.18543800  1
  Br  Br79  1  0.00047300  0.18380200  0.18543800  1
  Br  Br80  1  0.74952700  0.56619800  0.06456200  1
  Br  Br81  1  0.74952700  0.93380200  0.43543800  1
  Br  Br82  1  0.75047300  0.93380200  0.06456200  1
  Br  Br83  1  0.50047300  0.81619800  0.31456200  1
  Br  Br84  1  0.99952700  0.68380200  0.31456200  1
  Br  Br85  1  0.75047300  0.56619800  0.43543800  1
  Br  Br86  1  0.99952700  0.81619800  0.18543800  1
  Br  Br87  1  0.50047300  0.68380200  0.18543800  1
  Br  Br88  1  0.74952700  0.06619800  0.56456200  1
  Br  Br89  1  0.74952700  0.43380200  0.93543800  1
  Br  Br90  1  0.75047300  0.43380200  0.56456200  1
  Br  Br91  1  0.50047300  0.31619800  0.81456200  1
  Br  Br92  1  0.99952700  0.18380200  0.81456200  1
  Br  Br93  1  0.75047300  0.06619800  0.93543800  1
  Br  Br94  1  0.99952700  0.31619800  0.68543800  1
  Br  Br95  1  0.50047300  0.18380200  0.68543800  1
