# generated using pymatgen
data_Y4TiSi2(O3F2)3
_symmetry_space_group_name_H-M   'P 1'
_cell_length_a   10.70402200
_cell_length_b   15.03718000
_cell_length_c   7.12522500
_cell_angle_alpha   90.00000000
_cell_angle_beta   90.00000000
_cell_angle_gamma   90.00000000
_symmetry_Int_Tables_number   1
_chemical_formula_structural   Y4TiSi2(O3F2)3
_chemical_formula_sum   'Y16 Ti4 Si8 O36 F24'
_cell_volume   1146.86414258
_cell_formula_units_Z   4
loop_
 _symmetry_equiv_pos_site_id
 _symmetry_equiv_pos_as_xyz
  1  'x, y, z'
loop_
 _atom_site_type_symbol
 _atom_site_label
 _atom_site_symmetry_multiplicity
 _atom_site_fract_x
 _atom_site_fract_y
 _atom_site_fract_z
 _atom_site_occupancy
  Y  Y0  1  0.43592600  0.14651800  0.25000000  1
  Y  Y1  1  0.20618200  0.86943500  0.75000000  1
  Y  Y2  1  0.43592600  0.85348200  0.25000000  1
  Y  Y3  1  0.56407400  0.85348200  0.75000000  1
  Y  Y4  1  0.20618200  0.13056500  0.75000000  1
  Y  Y5  1  0.79381800  0.86943500  0.25000000  1
  Y  Y6  1  0.56407400  0.14651800  0.75000000  1
  Y  Y7  1  0.79381800  0.13056500  0.25000000  1
  Y  Y8  1  0.93592600  0.64651800  0.25000000  1
  Y  Y9  1  0.70618200  0.36943500  0.75000000  1
  Y  Y10  1  0.93592600  0.35348200  0.25000000  1
  Y  Y11  1  0.06407400  0.35348200  0.75000000  1
  Y  Y12  1  0.70618200  0.63056500  0.75000000  1
  Y  Y13  1  0.29381800  0.36943500  0.25000000  1
  Y  Y14  1  0.06407400  0.64651800  0.75000000  1
  Y  Y15  1  0.29381800  0.63056500  0.25000000  1
  Ti  Ti16  1  0.00000000  0.00000000  0.50000000  1
  Ti  Ti17  1  0.00000000  0.00000000  0.00000000  1
  Ti  Ti18  1  0.50000000  0.50000000  0.50000000  1
  Ti  Ti19  1  0.50000000  0.50000000  0.00000000  1
  Si  Si20  1  0.62042800  0.65687300  0.25000000  1
  Si  Si21  1  0.37957200  0.34312700  0.75000000  1
  Si  Si22  1  0.62042800  0.34312700  0.25000000  1
  Si  Si23  1  0.37957200  0.65687300  0.75000000  1
  Si  Si24  1  0.12042800  0.15687300  0.25000000  1
  Si  Si25  1  0.87957200  0.84312700  0.75000000  1
  Si  Si26  1  0.12042800  0.84312700  0.25000000  1
  Si  Si27  1  0.87957200  0.15687300  0.75000000  1
  O  O28  1  0.12661350  0.09433950  0.44297300  1
  O  O29  1  0.24717700  0.78154500  0.25000000  1
  O  O30  1  0.06164900  0.00000000  0.75000000  1
  O  O31  1  0.75282300  0.21845500  0.75000000  1
  O  O32  1  0.51432650  0.29131050  0.75000000  1
  O  O33  1  0.87338650  0.90566050  0.94297300  1
  O  O34  1  0.51432650  0.70868950  0.75000000  1
  O  O35  1  0.12661350  0.09433950  0.05702700  1
  O  O36  1  0.12661350  0.90566050  0.44297300  1
  O  O37  1  0.87338650  0.09433950  0.55702700  1
  O  O38  1  0.12661350  0.90566050  0.05702700  1
  O  O39  1  0.75282300  0.78154500  0.75000000  1
  O  O40  1  0.87338650  0.09433950  0.94297300  1
  O  O41  1  0.24717700  0.21845500  0.25000000  1
  O  O42  1  0.48567350  0.70868950  0.25000000  1
  O  O43  1  0.87338650  0.90566050  0.55702700  1
  O  O44  1  0.48567350  0.29131050  0.25000000  1
  O  O45  1  0.93835100  0.00000000  0.25000000  1
  O  O46  1  0.62661350  0.59433950  0.44297300  1
  O  O47  1  0.74717700  0.28154500  0.25000000  1
  O  O48  1  0.56164900  0.50000000  0.75000000  1
  O  O49  1  0.25282300  0.71845500  0.75000000  1
  O  O50  1  0.01432650  0.79131050  0.75000000  1
  O  O51  1  0.37338650  0.40566050  0.94297300  1
  O  O52  1  0.01432650  0.20868950  0.75000000  1
  O  O53  1  0.62661350  0.59433950  0.05702700  1
  O  O54  1  0.62661350  0.40566050  0.44297300  1
  O  O55  1  0.37338650  0.59433950  0.55702700  1
  O  O56  1  0.62661350  0.40566050  0.05702700  1
  O  O57  1  0.25282300  0.28154500  0.75000000  1
  O  O58  1  0.37338650  0.59433950  0.94297300  1
  O  O59  1  0.74717700  0.71845500  0.25000000  1
  O  O60  1  0.98567350  0.20868950  0.25000000  1
  O  O61  1  0.37338650  0.40566050  0.55702700  1
  O  O62  1  0.98567350  0.79131050  0.25000000  1
  O  O63  1  0.43835100  0.50000000  0.25000000  1
  F  F64  1  0.38704950  0.85819450  0.93861100  1
  F  F65  1  0.61295050  0.14180550  0.43861100  1
  F  F66  1  0.69913600  0.00000000  0.25000000  1
  F  F67  1  0.58413200  0.00000000  0.75000000  1
  F  F68  1  0.30086400  0.00000000  0.75000000  1
  F  F69  1  0.61295050  0.14180550  0.06138900  1
  F  F70  1  0.41586800  0.00000000  0.25000000  1
  F  F71  1  0.38704950  0.14180550  0.93861100  1
  F  F72  1  0.61295050  0.85819450  0.06138900  1
  F  F73  1  0.38704950  0.85819450  0.56138900  1
  F  F74  1  0.61295050  0.85819450  0.43861100  1
  F  F75  1  0.38704950  0.14180550  0.56138900  1
  F  F76  1  0.88704950  0.35819450  0.93861100  1
  F  F77  1  0.11295050  0.64180550  0.43861100  1
  F  F78  1  0.19913600  0.50000000  0.25000000  1
  F  F79  1  0.08413200  0.50000000  0.75000000  1
  F  F80  1  0.80086400  0.50000000  0.75000000  1
  F  F81  1  0.11295050  0.64180550  0.06138900  1
  F  F82  1  0.91586800  0.50000000  0.25000000  1
  F  F83  1  0.88704950  0.64180550  0.93861100  1
  F  F84  1  0.11295050  0.35819450  0.06138900  1
  F  F85  1  0.88704950  0.35819450  0.56138900  1
  F  F86  1  0.11295050  0.35819450  0.43861100  1
  F  F87  1  0.88704950  0.64180550  0.56138900  1
