# generated using pymatgen
data_Bi4RuBr2
_symmetry_space_group_name_H-M   'P 1'
_cell_length_a   16.40321800
_cell_length_b   6.87944800
_cell_length_c   11.06048907
_cell_angle_alpha   90.00000000
_cell_angle_beta   130.69580974
_cell_angle_gamma   90.00000000
_symmetry_Int_Tables_number   1
_chemical_formula_structural   Bi4RuBr2
_chemical_formula_sum   'Bi16 Ru4 Br8'
_cell_volume   946.30353809
_cell_formula_units_Z   4
loop_
 _symmetry_equiv_pos_site_id
 _symmetry_equiv_pos_as_xyz
  1  'x, y, z'
loop_
 _atom_site_type_symbol
 _atom_site_label
 _atom_site_symmetry_multiplicity
 _atom_site_fract_x
 _atom_site_fract_y
 _atom_site_fract_z
 _atom_site_occupancy
  Bi  Bi0  1  0.55456600  0.00000000  0.36790400  1
  Bi  Bi1  1  0.44543400  0.00000000  0.63209600  1
  Bi  Bi2  1  0.66360000  0.00000000  0.71967100  1
  Bi  Bi3  1  0.33640000  0.00000000  0.28032900  1
  Bi  Bi4  1  0.67181300  0.50000000  0.56883700  1
  Bi  Bi5  1  0.32818700  0.50000000  0.43116300  1
  Bi  Bi6  1  0.41386800  0.50000000  0.22282500  1
  Bi  Bi7  1  0.58613200  0.50000000  0.77717500  1
  Bi  Bi8  1  0.05456600  0.50000000  0.36790400  1
  Bi  Bi9  1  0.94543400  0.50000000  0.63209600  1
  Bi  Bi10  1  0.16360000  0.50000000  0.71967100  1
  Bi  Bi11  1  0.83640000  0.50000000  0.28032900  1
  Bi  Bi12  1  0.17181300  0.00000000  0.56883700  1
  Bi  Bi13  1  0.82818700  0.00000000  0.43116300  1
  Bi  Bi14  1  0.91386800  0.00000000  0.22282500  1
  Bi  Bi15  1  0.08613200  0.00000000  0.77717500  1
  Ru  Ru16  1  0.50000000  0.29097400  0.50000000  1
  Ru  Ru17  1  0.50000000  0.70902600  0.50000000  1
  Ru  Ru18  1  0.00000000  0.79097400  0.50000000  1
  Ru  Ru19  1  0.00000000  0.20902600  0.50000000  1
  Br  Br20  1  0.60573000  0.50000000  0.24270200  1
  Br  Br21  1  0.39427000  0.50000000  0.75729800  1
  Br  Br22  1  0.82168200  0.50000000  0.93006900  1
  Br  Br23  1  0.17831800  0.50000000  0.06993100  1
  Br  Br24  1  0.10573000  0.00000000  0.24270200  1
  Br  Br25  1  0.89427000  0.00000000  0.75729800  1
  Br  Br26  1  0.32168200  0.00000000  0.93006900  1
  Br  Br27  1  0.67831800  0.00000000  0.06993100  1
