# generated using pymatgen
data_BaH2N2O5
_symmetry_space_group_name_H-M   'P 1'
_cell_length_a   7.17570950
_cell_length_b   7.17570950
_cell_length_c   18.22568300
_cell_angle_alpha   90.00000000
_cell_angle_beta   90.00000000
_cell_angle_gamma   120.00000000
_symmetry_Int_Tables_number   1
_chemical_formula_structural   BaH2N2O5
_chemical_formula_sum   'Ba6 H12 N12 O30'
_cell_volume   812.72597698
_cell_formula_units_Z   6
loop_
 _symmetry_equiv_pos_site_id
 _symmetry_equiv_pos_as_xyz
  1  'x, y, z'
loop_
 _atom_site_type_symbol
 _atom_site_label
 _atom_site_symmetry_multiplicity
 _atom_site_fract_x
 _atom_site_fract_y
 _atom_site_fract_z
 _atom_site_occupancy
  Ba  Ba0  1  0.43158700  0.57455400  0.83134133  1
  Ba  Ba1  1  0.85703300  0.43158700  0.99800800  1
  Ba  Ba2  1  0.57455400  0.14296700  0.66467467  1
  Ba  Ba3  1  0.42544600  0.85703300  0.16467467  1
  Ba  Ba4  1  0.14296700  0.56841300  0.49800800  1
  Ba  Ba5  1  0.56841300  0.42544600  0.33134133  1
  H  H6  1  0.17026900  0.14324000  0.21183233  1
  H  H7  1  0.02702900  0.17026900  0.37849900  1
  H  H8  1  0.14324000  0.97297100  0.04516567  1
  H  H9  1  0.85676000  0.02702900  0.54516567  1
  H  H10  1  0.97297100  0.82973100  0.87849900  1
  H  H11  1  0.82973100  0.85676000  0.71183233  1
  H  H12  1  0.10384000  0.95796300  0.26860233  1
  H  H13  1  0.14587700  0.10384000  0.43526900  1
  H  H14  1  0.95796300  0.85412300  0.10193567  1
  H  H15  1  0.04203700  0.14587700  0.60193567  1
  H  H16  1  0.85412300  0.89616000  0.93526900  1
  H  H17  1  0.89616000  0.04203700  0.76860233  1
  N  N18  1  0.24669500  0.20991300  0.97863633  1
  N  N19  1  0.03678200  0.24669500  0.14530300  1
  N  N20  1  0.20991300  0.96321800  0.81196967  1
  N  N21  1  0.79008700  0.03678200  0.31196967  1
  N  N22  1  0.96321800  0.75330500  0.64530300  1
  N  N23  1  0.75330500  0.79008700  0.47863633  1
  N  N24  1  0.57047800  0.44561800  0.15839633  1
  N  N25  1  0.12486000  0.57047800  0.32506300  1
  N  N26  1  0.44561800  0.87514000  0.99172967  1
  N  N27  1  0.55438200  0.12486000  0.49172967  1
  N  N28  1  0.87514000  0.42952200  0.82506300  1
  N  N29  1  0.42952200  0.55438200  0.65839633  1
  O  O30  1  0.43787400  0.33256200  0.95665733  1
  O  O31  1  0.10531200  0.43787400  0.12332400  1
  O  O32  1  0.33256200  0.89468800  0.78999067  1
  O  O33  1  0.66743800  0.10531200  0.28999067  1
  O  O34  1  0.89468800  0.56212600  0.62332400  1
  O  O35  1  0.56212600  0.66743800  0.45665733  1
  O  O36  1  0.10500700  0.23673400  0.94622733  1
  O  O37  1  0.86827300  0.10500700  0.11289400  1
  O  O38  1  0.23673400  0.13172700  0.77956067  1
  O  O39  1  0.76326600  0.86827300  0.27956067  1
  O  O40  1  0.13172700  0.89499300  0.61289400  1
  O  O41  1  0.89499300  0.76326600  0.44622733  1
  O  O42  1  0.59605700  0.29905400  0.12887033  1
  O  O43  1  0.29700300  0.59605700  0.29553700  1
  O  O44  1  0.29905400  0.70299700  0.96220367  1
  O  O45  1  0.70094600  0.29700300  0.46220367  1
  O  O46  1  0.70299700  0.40394300  0.79553700  1
  O  O47  1  0.40394300  0.70094600  0.62887033  1
  O  O48  1  0.61757000  0.60669500  0.11811133  1
  O  O49  1  0.01087500  0.61757000  0.28477800  1
  O  O50  1  0.60669500  0.98912500  0.95144467  1
  O  O51  1  0.39330500  0.01087500  0.45144467  1
  O  O52  1  0.98912500  0.38243000  0.78477800  1
  O  O53  1  0.38243000  0.39330500  0.61811133  1
  O  O54  1  0.23100000  0.07645300  0.24506033  1
  O  O55  1  0.15454700  0.23100000  0.41172700  1
  O  O56  1  0.07645300  0.84545300  0.07839367  1
  O  O57  1  0.92354700  0.15454700  0.57839367  1
  O  O58  1  0.84545300  0.76900000  0.91172700  1
  O  O59  1  0.76900000  0.92354700  0.74506033  1
