# generated using pymatgen
data_Na3SrPCO7
_symmetry_space_group_name_H-M   'P 1'
_cell_length_a   5.38308600
_cell_length_b   7.08961500
_cell_length_c   9.28360927
_cell_angle_alpha   90.00000000
_cell_angle_beta   90.26496496
_cell_angle_gamma   90.00000000
_symmetry_Int_Tables_number   1
_chemical_formula_structural   Na3SrPCO7
_chemical_formula_sum   'Na6 Sr2 P2 C2 O14'
_cell_volume   354.29594296
_cell_formula_units_Z   2
loop_
 _symmetry_equiv_pos_site_id
 _symmetry_equiv_pos_as_xyz
  1  'x, y, z'
loop_
 _atom_site_type_symbol
 _atom_site_label
 _atom_site_symmetry_multiplicity
 _atom_site_fract_x
 _atom_site_fract_y
 _atom_site_fract_z
 _atom_site_occupancy
  Na  Na0  1  0.50273500  0.29745500  0.83181600  1
  Na  Na1  1  0.98899500  0.01792000  0.98366000  1
  Na  Na2  1  0.49726500  0.79745500  0.16818400  1
  Na  Na3  1  0.52360400  0.02290900  0.51989000  1
  Na  Na4  1  0.47639600  0.52290900  0.48011000  1
  Na  Na5  1  0.01100500  0.51792000  0.01634000  1
  Sr  Sr6  1  0.01777800  0.23659700  0.31494400  1
  Sr  Sr7  1  0.98222200  0.73659700  0.68505600  1
  P  P8  1  0.99852500  0.76652500  0.32991600  1
  P  P9  1  0.00147500  0.26652500  0.67008400  1
  C  C10  1  0.51217600  0.25404600  0.14439400  1
  C  C11  1  0.48782400  0.75404600  0.85560600  1
  O  O12  1  0.92564900  0.07540000  0.73984800  1
  O  O13  1  0.77804300  0.74425900  0.43637300  1
  O  O14  1  0.71273500  0.27515900  0.06843800  1
  O  O15  1  0.77360400  0.34342800  0.58557900  1
  O  O16  1  0.07435100  0.57540000  0.26015200  1
  O  O17  1  0.91742800  0.90937300  0.21136000  1
  O  O18  1  0.52435400  0.25443100  0.28516800  1
  O  O19  1  0.70175300  0.73149900  0.91953700  1
  O  O20  1  0.28726500  0.77515900  0.93156200  1
  O  O21  1  0.29824700  0.23149900  0.08046300  1
  O  O22  1  0.47564600  0.75443100  0.71483200  1
  O  O23  1  0.22639600  0.84342800  0.41442100  1
  O  O24  1  0.08257200  0.40937300  0.78864000  1
  O  O25  1  0.22195700  0.24425900  0.56362700  1
