# generated using pymatgen
data_Cs2Ti(Si2O5)3
_symmetry_space_group_name_H-M   'P 1'
_cell_length_a   13.61035200
_cell_length_b   7.54692400
_cell_length_c   15.48663423
_cell_angle_alpha   90.00000000
_cell_angle_beta   108.01788301
_cell_angle_gamma   90.00000000
_symmetry_Int_Tables_number   1
_chemical_formula_structural   Cs2Ti(Si2O5)3
_chemical_formula_sum   'Cs8 Ti4 Si24 O60'
_cell_volume   1512.72029637
_cell_formula_units_Z   4
loop_
 _symmetry_equiv_pos_site_id
 _symmetry_equiv_pos_as_xyz
  1  'x, y, z'
loop_
 _atom_site_type_symbol
 _atom_site_label
 _atom_site_symmetry_multiplicity
 _atom_site_fract_x
 _atom_site_fract_y
 _atom_site_fract_z
 _atom_site_occupancy
  Cs  Cs0  1  0.61692650  0.75877650  0.40999700  1
  Cs  Cs1  1  0.38307350  0.24122350  0.59000300  1
  Cs  Cs2  1  0.61692650  0.24122350  0.90999700  1
  Cs  Cs3  1  0.38307350  0.75877650  0.09000300  1
  Cs  Cs4  1  0.11692650  0.25877650  0.40999700  1
  Cs  Cs5  1  0.88307350  0.74122350  0.59000300  1
  Cs  Cs6  1  0.11692650  0.74122350  0.90999700  1
  Cs  Cs7  1  0.88307350  0.25877650  0.09000300  1
  Ti  Ti8  1  0.25000000  0.25000000  0.00000000  1
  Ti  Ti9  1  0.25000000  0.75000000  0.50000000  1
  Ti  Ti10  1  0.75000000  0.75000000  0.00000000  1
  Ti  Ti11  1  0.75000000  0.25000000  0.50000000  1
  Si  Si12  1  0.17629100  0.42733000  0.16646900  1
  Si  Si13  1  0.34439650  0.53968550  0.35610100  1
  Si  Si14  1  0.15560350  0.03968550  0.14389900  1
  Si  Si15  1  0.67629100  0.07267000  0.66646900  1
  Si  Si16  1  0.84439650  0.96031450  0.85610100  1
  Si  Si17  1  0.50269500  0.23166800  0.14598900  1
  Si  Si18  1  0.49730500  0.23166800  0.35401100  1
  Si  Si19  1  0.65560350  0.46031450  0.64389900  1
  Si  Si20  1  0.82370900  0.57267000  0.83353100  1
  Si  Si21  1  0.50269500  0.76833200  0.64598900  1
  Si  Si22  1  0.32370900  0.92733000  0.33353100  1
  Si  Si23  1  0.49730500  0.76833200  0.85401100  1
  Si  Si24  1  0.67629100  0.92733000  0.16646900  1
  Si  Si25  1  0.84439650  0.03968550  0.35610100  1
  Si  Si26  1  0.65560350  0.53968550  0.14389900  1
  Si  Si27  1  0.17629100  0.57267000  0.66646900  1
  Si  Si28  1  0.34439650  0.46031450  0.85610100  1
  Si  Si29  1  0.00269500  0.73166800  0.14598900  1
  Si  Si30  1  0.99730500  0.73166800  0.35401100  1
  Si  Si31  1  0.15560350  0.96031450  0.64389900  1
  Si  Si32  1  0.32370900  0.07267000  0.83353100  1
  Si  Si33  1  0.00269500  0.26833200  0.64598900  1
  Si  Si34  1  0.82370900  0.42733000  0.33353100  1
  Si  Si35  1  0.99730500  0.26833200  0.85401100  1
  O  O36  1  0.08312200  0.57239900  0.14103700  1
  O  O37  1  0.25348150  0.46012850  0.26936800  1
  O  O38  1  0.55108400  0.41807600  0.12152300  1
  O  O39  1  0.39151650  0.80848150  0.57503100  1
  O  O40  1  0.58312200  0.92760100  0.64103700  1
  O  O41  1  0.91687800  0.42760100  0.85896300  1
  O  O42  1  0.55108400  0.58192400  0.62152300  1
  O  O43  1  0.50000000  0.24669000  0.25000000  1
  O  O44  1  0.76360450  0.57669850  0.90797600  1
  O  O45  1  0.60848350  0.80848150  0.92496900  1
  O  O46  1  0.50000000  0.75331000  0.75000000  1
  O  O47  1  0.19689750  0.05252350  0.05736900  1
  O  O48  1  0.39151650  0.19151850  0.07503100  1
  O  O49  1  0.61953000  0.26502700  0.67229100  1
  O  O50  1  0.75348150  0.03987150  0.76936800  1
  O  O51  1  0.23639550  0.42330150  0.09202400  1
  O  O52  1  0.69689750  0.44747650  0.55736900  1
  O  O53  1  0.44891600  0.58192400  0.87847700  1
  O  O54  1  0.24651850  0.96012850  0.23063200  1
  O  O55  1  0.41687800  0.07239900  0.35896300  1
  O  O56  1  0.73639550  0.07669850  0.59202400  1
  O  O57  1  0.30310250  0.55252350  0.44263100  1
  O  O58  1  0.11953000  0.23497300  0.17229100  1
  O  O59  1  0.60848350  0.19151850  0.42496900  1
  O  O60  1  0.38047000  0.73497300  0.32770900  1
  O  O61  1  0.44891600  0.41807600  0.37847700  1
  O  O62  1  0.88047000  0.76502700  0.82770900  1
  O  O63  1  0.74651850  0.53987150  0.73063200  1
  O  O64  1  0.26360450  0.92330150  0.40797600  1
  O  O65  1  0.80310250  0.94747650  0.94263100  1
  O  O66  1  0.58312200  0.07239900  0.14103700  1
  O  O67  1  0.75348150  0.96012850  0.26936800  1
  O  O68  1  0.05108400  0.91807600  0.12152300  1
  O  O69  1  0.89151650  0.30848150  0.57503100  1
  O  O70  1  0.08312200  0.42760100  0.64103700  1
  O  O71  1  0.41687800  0.92760100  0.85896300  1
  O  O72  1  0.05108400  0.08192400  0.62152300  1
  O  O73  1  0.00000000  0.74669000  0.25000000  1
  O  O74  1  0.26360450  0.07669850  0.90797600  1
  O  O75  1  0.10848350  0.30848150  0.92496900  1
  O  O76  1  0.00000000  0.25331000  0.75000000  1
  O  O77  1  0.69689750  0.55252350  0.05736900  1
  O  O78  1  0.89151650  0.69151850  0.07503100  1
  O  O79  1  0.11953000  0.76502700  0.67229100  1
  O  O80  1  0.25348150  0.53987150  0.76936800  1
  O  O81  1  0.73639550  0.92330150  0.09202400  1
  O  O82  1  0.19689750  0.94747650  0.55736900  1
  O  O83  1  0.94891600  0.08192400  0.87847700  1
  O  O84  1  0.74651850  0.46012850  0.23063200  1
  O  O85  1  0.91687800  0.57239900  0.35896300  1
  O  O86  1  0.23639550  0.57669850  0.59202400  1
  O  O87  1  0.80310250  0.05252350  0.44263100  1
  O  O88  1  0.61953000  0.73497300  0.17229100  1
  O  O89  1  0.10848350  0.69151850  0.42496900  1
  O  O90  1  0.88047000  0.23497300  0.32770900  1
  O  O91  1  0.94891600  0.91807600  0.37847700  1
  O  O92  1  0.38047000  0.26502700  0.82770900  1
  O  O93  1  0.24651850  0.03987150  0.73063200  1
  O  O94  1  0.76360450  0.42330150  0.40797600  1
  O  O95  1  0.30310250  0.44747650  0.94263100  1
