# generated using pymatgen
data_NbAgO3
_symmetry_space_group_name_H-M   'P 1'
_cell_length_a   5.67056400
_cell_length_b   5.74775100
_cell_length_c   15.76260200
_cell_angle_alpha   90.00000000
_cell_angle_beta   90.00000000
_cell_angle_gamma   90.00000000
_symmetry_Int_Tables_number   1
_chemical_formula_structural   NbAgO3
_chemical_formula_sum   'Nb8 Ag8 O24'
_cell_volume   513.75032781
_cell_formula_units_Z   8
loop_
 _symmetry_equiv_pos_site_id
 _symmetry_equiv_pos_as_xyz
  1  'x, y, z'
loop_
 _atom_site_type_symbol
 _atom_site_label
 _atom_site_symmetry_multiplicity
 _atom_site_fract_x
 _atom_site_fract_y
 _atom_site_fract_z
 _atom_site_occupancy
  Nb  Nb0  1  0.24240600  0.21453200  0.12499300  1
  Nb  Nb1  1  0.24240600  0.28546800  0.87500700  1
  Nb  Nb2  1  0.75759400  0.71453200  0.37500700  1
  Nb  Nb3  1  0.75759400  0.78546800  0.62499300  1
  Nb  Nb4  1  0.75759400  0.78546800  0.87500700  1
  Nb  Nb5  1  0.75759400  0.71453200  0.12499300  1
  Nb  Nb6  1  0.24240600  0.28546800  0.62499300  1
  Nb  Nb7  1  0.24240600  0.21453200  0.37500700  1
  Ag  Ag8  1  0.74028600  0.25000000  0.00000000  1
  Ag  Ag9  1  0.25971400  0.75000000  0.50000000  1
  Ag  Ag10  1  0.25971400  0.75000000  0.00000000  1
  Ag  Ag11  1  0.74028600  0.25000000  0.50000000  1
  Ag  Ag12  1  0.73517900  0.21578300  0.25000000  1
  Ag  Ag13  1  0.73517900  0.28421700  0.75000000  1
  Ag  Ag14  1  0.26482100  0.71578300  0.25000000  1
  Ag  Ag15  1  0.26482100  0.78421700  0.75000000  1
  O  O16  1  0.80505900  0.72573300  0.75000000  1
  O  O17  1  0.80505900  0.77426700  0.25000000  1
  O  O18  1  0.19494100  0.22573300  0.75000000  1
  O  O19  1  0.19494100  0.27426700  0.25000000  1
  O  O20  1  0.54641800  0.46249100  0.35969900  1
  O  O21  1  0.54641800  0.03750900  0.64030100  1
  O  O22  1  0.45358200  0.96249100  0.14030100  1
  O  O23  1  0.45358200  0.53750900  0.85969900  1
  O  O24  1  0.45358200  0.53750900  0.64030100  1
  O  O25  1  0.45358200  0.96249100  0.35969900  1
  O  O26  1  0.54641800  0.03750900  0.85969900  1
  O  O27  1  0.54641800  0.46249100  0.14030100  1
  O  O28  1  0.95896100  0.04348200  0.39033200  1
  O  O29  1  0.95896100  0.45651800  0.60966800  1
  O  O30  1  0.04103900  0.54348200  0.10966800  1
  O  O31  1  0.04103900  0.95651800  0.89033200  1
  O  O32  1  0.31123200  0.25000000  0.00000000  1
  O  O33  1  0.68876800  0.75000000  0.50000000  1
  O  O34  1  0.68876800  0.75000000  0.00000000  1
  O  O35  1  0.31123200  0.25000000  0.50000000  1
  O  O36  1  0.95896100  0.04348200  0.10966800  1
  O  O37  1  0.95896100  0.45651800  0.89033200  1
  O  O38  1  0.04103900  0.54348200  0.39033200  1
  O  O39  1  0.04103900  0.95651800  0.60966800  1
