# generated using pymatgen
data_Ba8Ce3(SbO6)4
_symmetry_space_group_name_H-M   'P 1'
_cell_length_a   8.57489000
_cell_length_b   8.57489000
_cell_length_c   17.23242800
_cell_angle_alpha   90.00000000
_cell_angle_beta   90.00000000
_cell_angle_gamma   90.00000000
_symmetry_Int_Tables_number   1
_chemical_formula_structural   Ba8Ce3(SbO6)4
_chemical_formula_sum   'Ba16 Ce6 Sb8 O48'
_cell_volume   1267.07869234
_cell_formula_units_Z   2
loop_
 _symmetry_equiv_pos_site_id
 _symmetry_equiv_pos_as_xyz
  1  'x, y, z'
loop_
 _atom_site_type_symbol
 _atom_site_label
 _atom_site_symmetry_multiplicity
 _atom_site_fract_x
 _atom_site_fract_y
 _atom_site_fract_z
 _atom_site_occupancy
  Ba  Ba0  1  0.22962800  0.22962800  0.11616400  1
  Ba  Ba1  1  0.22962800  0.77037200  0.11616400  1
  Ba  Ba2  1  0.72962800  0.72962800  0.38383600  1
  Ba  Ba3  1  0.27037200  0.72962800  0.38383600  1
  Ba  Ba4  1  0.77037200  0.22962800  0.11616400  1
  Ba  Ba5  1  0.27037200  0.27037200  0.38383600  1
  Ba  Ba6  1  0.72962800  0.27037200  0.38383600  1
  Ba  Ba7  1  0.77037200  0.77037200  0.11616400  1
  Ba  Ba8  1  0.72962800  0.72962800  0.61616400  1
  Ba  Ba9  1  0.72962800  0.27037200  0.61616400  1
  Ba  Ba10  1  0.22962800  0.22962800  0.88383600  1
  Ba  Ba11  1  0.77037200  0.22962800  0.88383600  1
  Ba  Ba12  1  0.27037200  0.72962800  0.61616400  1
  Ba  Ba13  1  0.77037200  0.77037200  0.88383600  1
  Ba  Ba14  1  0.22962800  0.77037200  0.88383600  1
  Ba  Ba15  1  0.27037200  0.27037200  0.61616400  1
  Ce  Ce16  1  0.00000000  0.50000000  0.25000000  1
  Ce  Ce17  1  0.50000000  0.00000000  0.25000000  1
  Ce  Ce18  1  0.50000000  0.50000000  0.00000000  1
  Ce  Ce19  1  0.50000000  0.00000000  0.75000000  1
  Ce  Ce20  1  0.00000000  0.50000000  0.75000000  1
  Ce  Ce21  1  0.00000000  0.00000000  0.50000000  1
  Sb  Sb22  1  0.50000000  0.50000000  0.24471900  1
  Sb  Sb23  1  0.00000000  0.00000000  0.25528100  1
  Sb  Sb24  1  0.50000000  0.00000000  0.00000000  1
  Sb  Sb25  1  0.00000000  0.50000000  0.00000000  1
  Sb  Sb26  1  0.00000000  0.00000000  0.74471900  1
  Sb  Sb27  1  0.50000000  0.50000000  0.75528100  1
  Sb  Sb28  1  0.00000000  0.50000000  0.50000000  1
  Sb  Sb29  1  0.50000000  0.00000000  0.50000000  1
  O  O30  1  0.23953900  0.50000000  0.00000000  1
  O  O31  1  0.00000000  0.00000000  0.37090800  1
  O  O32  1  0.73884750  0.50000000  0.24624550  1
  O  O33  1  0.76115250  0.00000000  0.25375450  1
  O  O34  1  0.50000000  0.26115250  0.24624550  1
  O  O35  1  0.76046100  0.50000000  0.00000000  1
  O  O36  1  0.50000000  0.00000000  0.38025200  1
  O  O37  1  0.00000000  0.27254100  0.00000000  1
  O  O38  1  0.00000000  0.23884750  0.25375450  1
  O  O39  1  0.50000000  0.76046100  0.00000000  1
  O  O40  1  0.00000000  0.50000000  0.11974800  1
  O  O41  1  0.00000000  0.76115250  0.25375450  1
  O  O42  1  0.26115250  0.50000000  0.24624550  1
  O  O43  1  0.50000000  0.50000000  0.12909200  1
  O  O44  1  0.00000000  0.72745900  0.00000000  1
  O  O45  1  0.50000000  0.23953900  0.00000000  1
  O  O46  1  0.72745900  0.00000000  0.00000000  1
  O  O47  1  0.50000000  0.73884750  0.24624550  1
  O  O48  1  0.00000000  0.00000000  0.14100700  1
  O  O49  1  0.50000000  0.00000000  0.11974800  1
  O  O50  1  0.50000000  0.50000000  0.35899300  1
  O  O51  1  0.27254100  0.00000000  0.00000000  1
  O  O52  1  0.23884750  0.00000000  0.25375450  1
  O  O53  1  0.00000000  0.50000000  0.38025200  1
  O  O54  1  0.73953900  0.00000000  0.50000000  1
  O  O55  1  0.50000000  0.50000000  0.87090800  1
  O  O56  1  0.23884750  0.00000000  0.74624550  1
  O  O57  1  0.26115250  0.50000000  0.75375450  1
  O  O58  1  0.00000000  0.76115250  0.74624550  1
  O  O59  1  0.26046100  0.00000000  0.50000000  1
  O  O60  1  0.00000000  0.50000000  0.88025200  1
  O  O61  1  0.50000000  0.77254100  0.50000000  1
  O  O62  1  0.50000000  0.73884750  0.75375450  1
  O  O63  1  0.00000000  0.26046100  0.50000000  1
  O  O64  1  0.50000000  0.00000000  0.61974800  1
  O  O65  1  0.50000000  0.26115250  0.75375450  1
  O  O66  1  0.76115250  0.00000000  0.74624550  1
  O  O67  1  0.00000000  0.00000000  0.62909200  1
  O  O68  1  0.50000000  0.22745900  0.50000000  1
  O  O69  1  0.00000000  0.73953900  0.50000000  1
  O  O70  1  0.22745900  0.50000000  0.50000000  1
  O  O71  1  0.00000000  0.23884750  0.74624550  1
  O  O72  1  0.50000000  0.50000000  0.64100700  1
  O  O73  1  0.00000000  0.50000000  0.61974800  1
  O  O74  1  0.00000000  0.00000000  0.85899300  1
  O  O75  1  0.77254100  0.50000000  0.50000000  1
  O  O76  1  0.73884750  0.50000000  0.75375450  1
  O  O77  1  0.50000000  0.00000000  0.88025200  1
