# generated using pymatgen
data_Sn4P2O9
_symmetry_space_group_name_H-M   'P 1'
_cell_length_a   7.52412300
_cell_length_b   9.70138100
_cell_length_c   14.92559846
_cell_angle_alpha   90.00000000
_cell_angle_beta   110.65678795
_cell_angle_gamma   90.00000000
_symmetry_Int_Tables_number   1
_chemical_formula_structural   Sn4P2O9
_chemical_formula_sum   'Sn16 P8 O36'
_cell_volume   1019.44226653
_cell_formula_units_Z   4
loop_
 _symmetry_equiv_pos_site_id
 _symmetry_equiv_pos_as_xyz
  1  'x, y, z'
loop_
 _atom_site_type_symbol
 _atom_site_label
 _atom_site_symmetry_multiplicity
 _atom_site_fract_x
 _atom_site_fract_y
 _atom_site_fract_z
 _atom_site_occupancy
  Sn  Sn0  1  0.34699200  0.52000500  0.11747000  1
  Sn  Sn1  1  0.64359100  0.66214100  0.59410900  1
  Sn  Sn2  1  0.83229600  0.37934400  0.32818700  1
  Sn  Sn3  1  0.35640900  0.33785900  0.40589100  1
  Sn  Sn4  1  0.34699200  0.97999500  0.61747000  1
  Sn  Sn5  1  0.65300800  0.02000500  0.38253000  1
  Sn  Sn6  1  0.35640900  0.16214100  0.90589100  1
  Sn  Sn7  1  0.90067300  0.32076800  0.60354800  1
  Sn  Sn8  1  0.16770400  0.62065600  0.67181300  1
  Sn  Sn9  1  0.09932700  0.67923200  0.39645200  1
  Sn  Sn10  1  0.83229600  0.12065600  0.82818700  1
  Sn  Sn11  1  0.16770400  0.87934400  0.17181300  1
  Sn  Sn12  1  0.64359100  0.83785900  0.09410900  1
  Sn  Sn13  1  0.09932700  0.82076800  0.89645200  1
  Sn  Sn14  1  0.65300800  0.47999500  0.88253000  1
  Sn  Sn15  1  0.90067300  0.17923200  0.10354800  1
  P  P16  1  0.92632000  0.92662200  0.65975800  1
  P  P17  1  0.07368000  0.42662200  0.84024200  1
  P  P18  1  0.92632000  0.57337800  0.15975800  1
  P  P19  1  0.40825600  0.16143100  0.14730700  1
  P  P20  1  0.07368000  0.07337800  0.34024200  1
  P  P21  1  0.40825600  0.33856900  0.64730700  1
  P  P22  1  0.59174400  0.83856900  0.85269300  1
  P  P23  1  0.59174400  0.66143100  0.35269300  1
  O  O24  1  0.79506300  0.02339100  0.69178000  1
  O  O25  1  0.79506300  0.47660900  0.19178000  1
  O  O26  1  0.20493700  0.52339100  0.80822000  1
  O  O27  1  0.42539900  0.31618300  0.17136200  1
  O  O28  1  0.57460100  0.81618300  0.32863800  1
  O  O29  1  0.01838900  0.81307200  0.73932500  1
  O  O30  1  0.19777800  0.38860000  0.62387200  1
  O  O31  1  0.80222200  0.61140000  0.37612800  1
  O  O32  1  0.57460100  0.68381700  0.82863800  1
  O  O33  1  0.07924500  0.48542400  0.13970400  1
  O  O34  1  0.47138700  0.12761200  0.06074300  1
  O  O35  1  0.52861300  0.87238800  0.93925700  1
  O  O36  1  0.52861300  0.62761200  0.43925700  1
  O  O37  1  0.92075500  0.98542400  0.36029600  1
  O  O38  1  0.92075500  0.51457600  0.86029600  1
  O  O39  1  0.80728800  0.84419500  0.56903800  1
  O  O40  1  0.53740200  0.07594300  0.23210600  1
  O  O41  1  0.53740200  0.42405700  0.73210600  1
  O  O42  1  0.47138700  0.37238800  0.56074300  1
  O  O43  1  0.98161100  0.18692800  0.26067500  1
  O  O44  1  0.01838900  0.68692800  0.23932500  1
  O  O45  1  0.98161100  0.31307200  0.76067500  1
  O  O46  1  0.42539900  0.18381700  0.67136200  1
  O  O47  1  0.19271200  0.15580500  0.43096200  1
  O  O48  1  0.19271200  0.34419500  0.93096200  1
  O  O49  1  0.88604200  0.96101300  0.11402200  1
  O  O50  1  0.20493700  0.97660900  0.30822000  1
  O  O51  1  0.80728800  0.65580500  0.06903800  1
  O  O52  1  0.46259800  0.92405700  0.76789400  1
  O  O53  1  0.88604200  0.53898700  0.61402200  1
  O  O54  1  0.46259800  0.57594300  0.26789400  1
  O  O55  1  0.19777800  0.11140000  0.12387200  1
  O  O56  1  0.07924500  0.01457600  0.63970400  1
  O  O57  1  0.80222200  0.88860000  0.87612800  1
  O  O58  1  0.11395800  0.46101300  0.38597800  1
  O  O59  1  0.11395800  0.03898700  0.88597800  1
