# generated using pymatgen
data_LiSn2(PO4)3
_symmetry_space_group_name_H-M   'P 1'
_cell_length_a   8.76173614
_cell_length_b   8.76173614
_cell_length_c   21.79752780
_cell_angle_alpha   90.00000000
_cell_angle_beta   90.00000000
_cell_angle_gamma   120.00000000
_symmetry_Int_Tables_number   1
_chemical_formula_structural   LiSn2(PO4)3
_chemical_formula_sum   'Li6 Sn12 P18 O72'
_cell_volume   1449.16625477
_cell_formula_units_Z   6
loop_
 _symmetry_equiv_pos_site_id
 _symmetry_equiv_pos_as_xyz
  1  'x, y, z'
loop_
 _atom_site_type_symbol
 _atom_site_label
 _atom_site_symmetry_multiplicity
 _atom_site_fract_x
 _atom_site_fract_y
 _atom_site_fract_z
 _atom_site_occupancy
  Li  Li0  1  0.00000000  0.00000000  0.00000000  1
  Li  Li1  1  0.33333333  0.66666667  0.16666667  1
  Li  Li2  1  0.66666667  0.33333333  0.33333333  1
  Li  Li3  1  0.00000000  0.00000000  0.50000000  1
  Li  Li4  1  0.33333333  0.66666667  0.66666667  1
  Li  Li5  1  0.66666667  0.33333333  0.83333333  1
  Sn  Sn6  1  0.66666667  0.33333333  0.19041433  1
  Sn  Sn7  1  0.33333333  0.66666667  0.02374767  1
  Sn  Sn8  1  0.00000000  0.00000000  0.14291900  1
  Sn  Sn9  1  0.33333333  0.66666667  0.30958567  1
  Sn  Sn10  1  0.33333333  0.66666667  0.52374767  1
  Sn  Sn11  1  0.00000000  0.00000000  0.35708100  1
  Sn  Sn12  1  0.66666667  0.33333333  0.47625233  1
  Sn  Sn13  1  0.00000000  0.00000000  0.64291900  1
  Sn  Sn14  1  0.00000000  0.00000000  0.85708100  1
  Sn  Sn15  1  0.66666667  0.33333333  0.69041433  1
  Sn  Sn16  1  0.33333333  0.66666667  0.80958567  1
  Sn  Sn17  1  0.66666667  0.33333333  0.97625233  1
  P  P18  1  0.37236667  0.33333333  0.08333333  1
  P  P19  1  0.70570000  0.70570000  0.25000000  1
  P  P20  1  0.29430000  0.00000000  0.25000000  1
  P  P21  1  0.66666667  0.03903333  0.08333333  1
  P  P22  1  0.00000000  0.29430000  0.25000000  1
  P  P23  1  0.96096667  0.62763333  0.08333333  1
  P  P24  1  0.03903333  0.66666667  0.41666667  1
  P  P25  1  0.37236667  0.03903333  0.58333333  1
  P  P26  1  0.96096667  0.33333333  0.58333333  1
  P  P27  1  0.33333333  0.37236667  0.41666667  1
  P  P28  1  0.66666667  0.62763333  0.58333333  1
  P  P29  1  0.62763333  0.96096667  0.41666667  1
  P  P30  1  0.70570000  0.00000000  0.75000000  1
  P  P31  1  0.03903333  0.37236667  0.91666667  1
  P  P32  1  0.62763333  0.66666667  0.91666667  1
  P  P33  1  0.00000000  0.70570000  0.75000000  1
  P  P34  1  0.33333333  0.96096667  0.91666667  1
  P  P35  1  0.29430000  0.29430000  0.75000000  1
  O  O36  1  0.46592800  0.32855500  0.02448300  1
  O  O37  1  0.49972467  0.85313233  0.08657733  1
  O  O38  1  0.18646567  0.16639133  0.08008933  1
  O  O39  1  0.35340767  0.50027533  0.08657733  1
  O  O40  1  0.16694200  0.48020100  0.24675600  1
  O  O41  1  0.79926133  0.80403967  0.19114967  1
  O  O42  1  0.20073867  0.00477833  0.30885033  1
  O  O43  1  0.99522167  0.19596033  0.30885033  1
  O  O44  1  0.19596033  0.99522167  0.19114967  1
  O  O45  1  0.51979900  0.68674100  0.24675600  1
  O  O46  1  0.86262700  0.53407200  0.02448300  1
  O  O47  1  0.86740533  0.52929367  0.14218367  1
  O  O48  1  0.14686767  0.64659233  0.08657733  1
  O  O49  1  0.67144500  0.13737300  0.02448300  1
  O  O50  1  0.83305800  0.31325900  0.25324400  1
  O  O51  1  0.97992567  0.81353433  0.08008933  1
  O  O52  1  0.66188833  0.13259467  0.14218367  1
  O  O53  1  0.31325900  0.83305800  0.24675600  1
  O  O54  1  0.80403967  0.79926133  0.30885033  1
  O  O55  1  0.47070633  0.33811167  0.14218367  1
  O  O56  1  0.48020100  0.16694200  0.25324400  1
  O  O57  1  0.83360867  0.02007433  0.08008933  1
  O  O58  1  0.68674100  0.51979900  0.25324400  1
  O  O59  1  0.00477833  0.20073867  0.19114967  1
  O  O60  1  0.13259467  0.66188833  0.35781633  1
  O  O61  1  0.16639133  0.18646567  0.41991067  1
  O  O62  1  0.85313233  0.49972467  0.41342267  1
  O  O63  1  0.02007433  0.83360867  0.41991067  1
  O  O64  1  0.83360867  0.81353433  0.58008933  1
  O  O65  1  0.46592800  0.13737300  0.52448300  1
  O  O66  1  0.86740533  0.33811167  0.64218367  1
  O  O67  1  0.66188833  0.52929367  0.64218367  1
  O  O68  1  0.86262700  0.32855500  0.52448300  1
  O  O69  1  0.18646567  0.02007433  0.58008933  1
  O  O70  1  0.52929367  0.86740533  0.35781633  1
  O  O71  1  0.53407200  0.86262700  0.47551700  1
  O  O72  1  0.81353433  0.97992567  0.41991067  1
  O  O73  1  0.33811167  0.47070633  0.35781633  1
  O  O74  1  0.49972467  0.64659233  0.58657733  1
  O  O75  1  0.64659233  0.14686767  0.41342267  1
  O  O76  1  0.32855500  0.46592800  0.47551700  1
  O  O77  1  0.97992567  0.16639133  0.58008933  1
  O  O78  1  0.47070633  0.13259467  0.64218367  1
  O  O79  1  0.13737300  0.67144500  0.47551700  1
  O  O80  1  0.14686767  0.50027533  0.58657733  1
  O  O81  1  0.50027533  0.35340767  0.41342267  1
  O  O82  1  0.35340767  0.85313233  0.58657733  1
  O  O83  1  0.67144500  0.53407200  0.52448300  1
  O  O84  1  0.79926133  0.99522167  0.69114967  1
  O  O85  1  0.83305800  0.51979900  0.75324400  1
  O  O86  1  0.51979900  0.83305800  0.74675600  1
  O  O87  1  0.68674100  0.16694200  0.75324400  1
  O  O88  1  0.50027533  0.14686767  0.91342267  1
  O  O89  1  0.13259467  0.47070633  0.85781633  1
  O  O90  1  0.53407200  0.67144500  0.97551700  1
  O  O91  1  0.32855500  0.86262700  0.97551700  1
  O  O92  1  0.52929367  0.66188833  0.85781633  1
  O  O93  1  0.85313233  0.35340767  0.91342267  1
  O  O94  1  0.19596033  0.20073867  0.69114967  1
  O  O95  1  0.20073867  0.19596033  0.80885033  1
  O  O96  1  0.48020100  0.31325900  0.75324400  1
  O  O97  1  0.00477833  0.80403967  0.69114967  1
  O  O98  1  0.16639133  0.97992567  0.91991067  1
  O  O99  1  0.31325900  0.48020100  0.74675600  1
  O  O100  1  0.99522167  0.79926133  0.80885033  1
  O  O101  1  0.64659233  0.49972467  0.91342267  1
  O  O102  1  0.13737300  0.46592800  0.97551700  1
  O  O103  1  0.80403967  0.00477833  0.80885033  1
  O  O104  1  0.81353433  0.83360867  0.91991067  1
  O  O105  1  0.16694200  0.68674100  0.74675600  1
  O  O106  1  0.02007433  0.18646567  0.91991067  1
  O  O107  1  0.33811167  0.86740533  0.85781633  1
