# generated using pymatgen
data_Sr5Nb4O15
_symmetry_space_group_name_H-M   'P 1'
_cell_length_a   9.95780400
_cell_length_b   5.73599200
_cell_length_c   11.67169612
_cell_angle_alpha   90.00000000
_cell_angle_beta   90.75343272
_cell_angle_gamma   90.00000000
_symmetry_Int_Tables_number   1
_chemical_formula_structural   Sr5Nb4O15
_chemical_formula_sum   'Sr10 Nb8 O30'
_cell_volume   666.60494722
_cell_formula_units_Z   2
loop_
 _symmetry_equiv_pos_site_id
 _symmetry_equiv_pos_as_xyz
  1  'x, y, z'
loop_
 _atom_site_type_symbol
 _atom_site_label
 _atom_site_symmetry_multiplicity
 _atom_site_fract_x
 _atom_site_fract_y
 _atom_site_fract_z
 _atom_site_occupancy
  Sr  Sr0  1  0.83307400  0.50000000  0.78031000  1
  Sr  Sr1  1  0.66692600  0.00000000  0.21969000  1
  Sr  Sr2  1  0.83011400  0.50000000  0.43882500  1
  Sr  Sr3  1  0.66988600  0.00000000  0.56117500  1
  Sr  Sr4  1  0.00000000  0.00000000  0.00000000  1
  Sr  Sr5  1  0.33307400  0.00000000  0.78031000  1
  Sr  Sr6  1  0.16692600  0.50000000  0.21969000  1
  Sr  Sr7  1  0.33011400  0.00000000  0.43882500  1
  Sr  Sr8  1  0.16988600  0.50000000  0.56117500  1
  Sr  Sr9  1  0.50000000  0.50000000  0.00000000  1
  Nb  Nb10  1  0.50240200  0.50000000  0.32041300  1
  Nb  Nb11  1  0.99759800  0.00000000  0.67958700  1
  Nb  Nb12  1  0.83532000  0.50000000  0.10572600  1
  Nb  Nb13  1  0.66468000  0.00000000  0.89427400  1
  Nb  Nb14  1  0.00240200  0.00000000  0.32041300  1
  Nb  Nb15  1  0.49759800  0.50000000  0.67958700  1
  Nb  Nb16  1  0.33532000  0.00000000  0.10572600  1
  Nb  Nb17  1  0.16468000  0.50000000  0.89427400  1
  O  O18  1  0.91086000  0.25298300  0.60721600  1
  O  O19  1  0.92316250  0.24715450  0.19247600  1
  O  O20  1  0.58914000  0.75298300  0.39278400  1
  O  O21  1  0.66610800  0.50000000  0.60954400  1
  O  O22  1  0.92316250  0.75284550  0.19247600  1
  O  O23  1  0.58914000  0.24701700  0.39278400  1
  O  O24  1  0.75000000  0.75000000  0.00000000  1
  O  O25  1  0.83389200  0.00000000  0.39045600  1
  O  O26  1  0.82827600  0.00000000  0.80341600  1
  O  O27  1  0.75000000  0.25000000  0.00000000  1
  O  O28  1  0.57683750  0.74715450  0.80752400  1
  O  O29  1  0.67172400  0.50000000  0.19658400  1
  O  O30  1  0.57683750  0.25284550  0.80752400  1
  O  O31  1  0.91086000  0.74701700  0.60721600  1
  O  O32  1  0.00000000  0.50000000  0.00000000  1
  O  O33  1  0.41086000  0.75298300  0.60721600  1
  O  O34  1  0.42316250  0.74715450  0.19247600  1
  O  O35  1  0.08914000  0.25298300  0.39278400  1
  O  O36  1  0.16610800  0.00000000  0.60954400  1
  O  O37  1  0.42316250  0.25284550  0.19247600  1
  O  O38  1  0.08914000  0.74701700  0.39278400  1
  O  O39  1  0.25000000  0.25000000  0.00000000  1
  O  O40  1  0.33389200  0.50000000  0.39045600  1
  O  O41  1  0.32827600  0.50000000  0.80341600  1
  O  O42  1  0.25000000  0.75000000  0.00000000  1
  O  O43  1  0.07683750  0.24715450  0.80752400  1
  O  O44  1  0.17172400  0.00000000  0.19658400  1
  O  O45  1  0.07683750  0.75284550  0.80752400  1
  O  O46  1  0.41086000  0.24701700  0.60721600  1
  O  O47  1  0.50000000  0.00000000  0.00000000  1
