# generated using pymatgen
data_Ba2Nd7Si11N23
_symmetry_space_group_name_H-M   'P 1'
_cell_length_a   11.02318000
_cell_length_b   23.21921400
_cell_length_c   9.76711800
_cell_angle_alpha   90.00000000
_cell_angle_beta   90.00000000
_cell_angle_gamma   90.00000000
_symmetry_Int_Tables_number   1
_chemical_formula_structural   Ba2Nd7Si11N23
_chemical_formula_sum   'Ba8 Nd28 Si44 N92'
_cell_volume   2499.88970479
_cell_formula_units_Z   4
loop_
 _symmetry_equiv_pos_site_id
 _symmetry_equiv_pos_as_xyz
  1  'x, y, z'
loop_
 _atom_site_type_symbol
 _atom_site_label
 _atom_site_symmetry_multiplicity
 _atom_site_fract_x
 _atom_site_fract_y
 _atom_site_fract_z
 _atom_site_occupancy
  Ba  Ba0  1  0.50000000  0.00000000  0.79118600  1
  Ba  Ba1  1  0.83397300  0.00000000  0.00000000  1
  Ba  Ba2  1  0.16602700  0.00000000  0.00000000  1
  Ba  Ba3  1  0.50000000  0.00000000  0.20881400  1
  Ba  Ba4  1  0.00000000  0.50000000  0.79118600  1
  Ba  Ba5  1  0.33397300  0.50000000  0.00000000  1
  Ba  Ba6  1  0.66602700  0.50000000  0.00000000  1
  Ba  Ba7  1  0.00000000  0.50000000  0.20881400  1
  Nd  Nd8  1  0.00000000  0.12099800  0.29492100  1
  Nd  Nd9  1  0.25000000  0.25000000  0.26580900  1
  Nd  Nd10  1  0.75000000  0.25000000  0.26580900  1
  Nd  Nd11  1  0.00000000  0.33620500  0.00000000  1
  Nd  Nd12  1  0.28316600  0.10278100  0.50000000  1
  Nd  Nd13  1  0.00000000  0.12099800  0.70507900  1
  Nd  Nd14  1  0.78316600  0.39721900  0.50000000  1
  Nd  Nd15  1  0.50000000  0.37900200  0.70507900  1
  Nd  Nd16  1  0.71683400  0.10278100  0.50000000  1
  Nd  Nd17  1  0.50000000  0.37900200  0.29492100  1
  Nd  Nd18  1  0.50000000  0.16379500  0.00000000  1
  Nd  Nd19  1  0.75000000  0.25000000  0.73419100  1
  Nd  Nd20  1  0.21683400  0.39721900  0.50000000  1
  Nd  Nd21  1  0.25000000  0.25000000  0.73419100  1
  Nd  Nd22  1  0.50000000  0.62099800  0.29492100  1
  Nd  Nd23  1  0.75000000  0.75000000  0.26580900  1
  Nd  Nd24  1  0.25000000  0.75000000  0.26580900  1
  Nd  Nd25  1  0.50000000  0.83620500  0.00000000  1
  Nd  Nd26  1  0.78316600  0.60278100  0.50000000  1
  Nd  Nd27  1  0.50000000  0.62099800  0.70507900  1
  Nd  Nd28  1  0.28316600  0.89721900  0.50000000  1
  Nd  Nd29  1  0.00000000  0.87900200  0.70507900  1
  Nd  Nd30  1  0.21683400  0.60278100  0.50000000  1
  Nd  Nd31  1  0.00000000  0.87900200  0.29492100  1
  Nd  Nd32  1  0.00000000  0.66379500  0.00000000  1
  Nd  Nd33  1  0.25000000  0.75000000  0.73419100  1
  Nd  Nd34  1  0.71683400  0.89721900  0.50000000  1
  Nd  Nd35  1  0.75000000  0.75000000  0.73419100  1
  Si  Si36  1  0.00000000  0.32655000  0.33888200  1
  Si  Si37  1  0.73151100  0.11539600  0.83877200  1
  Si  Si38  1  0.00000000  0.32655000  0.66111800  1
  Si  Si39  1  0.15197800  0.00000000  0.32851600  1
  Si  Si40  1  0.00000000  0.21483500  0.50000000  1
  Si  Si41  1  0.36858450  0.29826950  0.00000000  1
  Si  Si42  1  0.50000000  0.28516500  0.50000000  1
  Si  Si43  1  0.73151100  0.11539600  0.16122800  1
  Si  Si44  1  0.50000000  0.17345000  0.33888200  1
  Si  Si45  1  0.86858450  0.20173050  0.00000000  1
  Si  Si46  1  0.13141550  0.20173050  0.00000000  1
  Si  Si47  1  0.84802200  0.00000000  0.67148400  1
  Si  Si48  1  0.23151100  0.38460400  0.83877200  1
  Si  Si49  1  0.50000000  0.17345000  0.66111800  1
  Si  Si50  1  0.84802200  0.00000000  0.32851600  1
  Si  Si51  1  0.76848900  0.38460400  0.16122800  1
  Si  Si52  1  0.63141550  0.29826950  0.00000000  1
  Si  Si53  1  0.15197800  0.00000000  0.67148400  1
  Si  Si54  1  0.23151100  0.38460400  0.16122800  1
  Si  Si55  1  0.26848900  0.11539600  0.16122800  1
  Si  Si56  1  0.26848900  0.11539600  0.83877200  1
  Si  Si57  1  0.76848900  0.38460400  0.83877200  1
  Si  Si58  1  0.50000000  0.82655000  0.33888200  1
  Si  Si59  1  0.23151100  0.61539600  0.83877200  1
  Si  Si60  1  0.50000000  0.82655000  0.66111800  1
  Si  Si61  1  0.65197800  0.50000000  0.32851600  1
  Si  Si62  1  0.50000000  0.71483500  0.50000000  1
  Si  Si63  1  0.86858450  0.79826950  0.00000000  1
  Si  Si64  1  0.00000000  0.78516500  0.50000000  1
  Si  Si65  1  0.23151100  0.61539600  0.16122800  1
  Si  Si66  1  0.00000000  0.67345000  0.33888200  1
  Si  Si67  1  0.36858450  0.70173050  0.00000000  1
  Si  Si68  1  0.63141550  0.70173050  0.00000000  1
  Si  Si69  1  0.34802200  0.50000000  0.67148400  1
  Si  Si70  1  0.73151100  0.88460400  0.83877200  1
  Si  Si71  1  0.00000000  0.67345000  0.66111800  1
  Si  Si72  1  0.34802200  0.50000000  0.32851600  1
  Si  Si73  1  0.26848900  0.88460400  0.16122800  1
  Si  Si74  1  0.13141550  0.79826950  0.00000000  1
  Si  Si75  1  0.65197800  0.50000000  0.67148400  1
  Si  Si76  1  0.73151100  0.88460400  0.16122800  1
  Si  Si77  1  0.76848900  0.61539600  0.16122800  1
  Si  Si78  1  0.76848900  0.61539600  0.83877200  1
  Si  Si79  1  0.26848900  0.88460400  0.83877200  1
  N  N80  1  0.00000000  0.23924300  0.00000000  1
  N  N81  1  0.50000000  0.13758000  0.50000000  1
  N  N82  1  0.32478500  0.09038300  0.00000000  1
  N  N83  1  0.27618400  0.43999600  0.73421300  1
  N  N84  1  0.67521500  0.09038300  0.00000000  1
  N  N85  1  0.37530200  0.15385600  0.75366500  1
  N  N86  1  0.87530200  0.34614400  0.24633500  1
  N  N87  1  0.12469800  0.34614400  0.24633500  1
  N  N88  1  0.85383250  0.16092950  0.14588300  1
  N  N89  1  0.77618400  0.06000400  0.26578700  1
  N  N90  1  0.14616750  0.16092950  0.85411700  1
  N  N91  1  0.25000000  0.25000000  0.00000000  1
  N  N92  1  0.12469800  0.34614400  0.75366500  1
  N  N93  1  0.64616750  0.33907050  0.14588300  1
  N  N94  1  0.62469800  0.15385600  0.75366500  1
  N  N95  1  0.87490450  0.16595250  0.50000000  1
  N  N96  1  0.22381600  0.06000400  0.73421300  1
  N  N97  1  0.35383250  0.33907050  0.14588300  1
  N  N98  1  0.72381600  0.43999600  0.26578700  1
  N  N99  1  0.50000000  0.24699500  0.64914500  1
  N  N100  1  0.35383250  0.33907050  0.85411700  1
  N  N101  1  0.27618400  0.43999600  0.26578700  1
  N  N102  1  0.85383250  0.16092950  0.85411700  1
  N  N103  1  0.22381600  0.06000400  0.26578700  1
  N  N104  1  0.87530200  0.34614400  0.75366500  1
  N  N105  1  0.00000000  0.36242000  0.50000000  1
  N  N106  1  0.62469800  0.15385600  0.24633500  1
  N  N107  1  0.81770600  0.00000000  0.50000000  1
  N  N108  1  0.18229400  0.00000000  0.50000000  1
  N  N109  1  0.64616750  0.33907050  0.85411700  1
  N  N110  1  0.62509550  0.33404750  0.50000000  1
  N  N111  1  0.72381600  0.43999600  0.73421300  1
  N  N112  1  0.37530200  0.15385600  0.24633500  1
  N  N113  1  0.00000000  0.25300500  0.35085500  1
  N  N114  1  0.50000000  0.26075700  0.00000000  1
  N  N115  1  0.00000000  0.25300500  0.64914500  1
  N  N116  1  0.14616750  0.16092950  0.14588300  1
  N  N117  1  0.00000000  0.00000000  0.27485200  1
  N  N118  1  0.12509550  0.16595250  0.50000000  1
  N  N119  1  0.75000000  0.25000000  0.00000000  1
  N  N120  1  0.37490450  0.33404750  0.50000000  1
  N  N121  1  0.00000000  0.00000000  0.72514800  1
  N  N122  1  0.77618400  0.06000400  0.73421300  1
  N  N123  1  0.50000000  0.24699500  0.35085500  1
  N  N124  1  0.82478500  0.40961700  0.00000000  1
  N  N125  1  0.17521500  0.40961700  0.00000000  1
  N  N126  1  0.50000000  0.73924300  0.00000000  1
  N  N127  1  0.00000000  0.63758000  0.50000000  1
  N  N128  1  0.82478500  0.59038300  0.00000000  1
  N  N129  1  0.77618400  0.93999600  0.73421300  1
  N  N130  1  0.17521500  0.59038300  0.00000000  1
  N  N131  1  0.87530200  0.65385600  0.75366500  1
  N  N132  1  0.37530200  0.84614400  0.24633500  1
  N  N133  1  0.62469800  0.84614400  0.24633500  1
  N  N134  1  0.35383250  0.66092950  0.14588300  1
  N  N135  1  0.27618400  0.56000400  0.26578700  1
  N  N136  1  0.64616750  0.66092950  0.85411700  1
  N  N137  1  0.75000000  0.75000000  0.00000000  1
  N  N138  1  0.62469800  0.84614400  0.75366500  1
  N  N139  1  0.14616750  0.83907050  0.14588300  1
  N  N140  1  0.12469800  0.65385600  0.75366500  1
  N  N141  1  0.37490450  0.66595250  0.50000000  1
  N  N142  1  0.72381600  0.56000400  0.73421300  1
  N  N143  1  0.85383250  0.83907050  0.14588300  1
  N  N144  1  0.22381600  0.93999600  0.26578700  1
  N  N145  1  0.00000000  0.74699500  0.64914500  1
  N  N146  1  0.85383250  0.83907050  0.85411700  1
  N  N147  1  0.77618400  0.93999600  0.26578700  1
  N  N148  1  0.35383250  0.66092950  0.85411700  1
  N  N149  1  0.72381600  0.56000400  0.26578700  1
  N  N150  1  0.37530200  0.84614400  0.75366500  1
  N  N151  1  0.50000000  0.86242000  0.50000000  1
  N  N152  1  0.12469800  0.65385600  0.24633500  1
  N  N153  1  0.31770600  0.50000000  0.50000000  1
  N  N154  1  0.68229400  0.50000000  0.50000000  1
  N  N155  1  0.14616750  0.83907050  0.85411700  1
  N  N156  1  0.12509550  0.83404750  0.50000000  1
  N  N157  1  0.22381600  0.93999600  0.73421300  1
  N  N158  1  0.87530200  0.65385600  0.24633500  1
  N  N159  1  0.50000000  0.75300500  0.35085500  1
  N  N160  1  0.00000000  0.76075700  0.00000000  1
  N  N161  1  0.50000000  0.75300500  0.64914500  1
  N  N162  1  0.64616750  0.66092950  0.14588300  1
  N  N163  1  0.50000000  0.50000000  0.27485200  1
  N  N164  1  0.62509550  0.66595250  0.50000000  1
  N  N165  1  0.25000000  0.75000000  0.00000000  1
  N  N166  1  0.87490450  0.83404750  0.50000000  1
  N  N167  1  0.50000000  0.50000000  0.72514800  1
  N  N168  1  0.27618400  0.56000400  0.73421300  1
  N  N169  1  0.00000000  0.74699500  0.35085500  1
  N  N170  1  0.32478500  0.90961700  0.00000000  1
  N  N171  1  0.67521500  0.90961700  0.00000000  1
