# generated using pymatgen
data_SiO2
_symmetry_space_group_name_H-M   'P 1'
_cell_length_a   8.79134800
_cell_length_b   8.79134800
_cell_length_c   5.02159000
_cell_angle_alpha   90.00000000
_cell_angle_beta   90.00000000
_cell_angle_gamma   90.00000000
_symmetry_Int_Tables_number   1
_chemical_formula_structural   SiO2
_chemical_formula_sum   'Si8 O16'
_cell_volume   388.10764188
_cell_formula_units_Z   8
loop_
 _symmetry_equiv_pos_site_id
 _symmetry_equiv_pos_as_xyz
  1  'x, y, z'
loop_
 _atom_site_type_symbol
 _atom_site_label
 _atom_site_symmetry_multiplicity
 _atom_site_fract_x
 _atom_site_fract_y
 _atom_site_fract_z
 _atom_site_occupancy
  Si  Si0  1  0.17707400  0.82504150  0.98117425  1
  Si  Si1  1  0.82504150  0.82292600  0.01882575  1
  Si  Si2  1  0.17495850  0.17707400  0.01882575  1
  Si  Si3  1  0.82292600  0.17495850  0.98117425  1
  Si  Si4  1  0.67707400  0.32504150  0.48117425  1
  Si  Si5  1  0.32504150  0.32292600  0.51882575  1
  Si  Si6  1  0.67495850  0.67707400  0.51882575  1
  Si  Si7  1  0.32292600  0.67495850  0.48117425  1
  O  O8  1  0.79600100  0.27319750  0.71150225  1
  O  O9  1  0.72680250  0.79600100  0.28849775  1
  O  O10  1  0.27319750  0.20399900  0.28849775  1
  O  O11  1  0.99573200  0.20333850  0.08774925  1
  O  O12  1  0.00426800  0.79666150  0.08774925  1
  O  O13  1  0.20333850  0.00426800  0.91225075  1
  O  O14  1  0.20399900  0.72680250  0.71150225  1
  O  O15  1  0.79666150  0.99573200  0.91225075  1
  O  O16  1  0.29600100  0.77319750  0.21150225  1
  O  O17  1  0.22680250  0.29600100  0.78849775  1
  O  O18  1  0.77319750  0.70399900  0.78849775  1
  O  O19  1  0.49573200  0.70333850  0.58774925  1
  O  O20  1  0.50426800  0.29666150  0.58774925  1
  O  O21  1  0.70333850  0.50426800  0.41225075  1
  O  O22  1  0.70399900  0.22680250  0.21150225  1
  O  O23  1  0.29666150  0.49573200  0.41225075  1
