# generated using pymatgen
data_SrSeO3
_symmetry_space_group_name_H-M   'P 1'
_cell_length_a   4.49779800
_cell_length_b   5.58090100
_cell_length_c   12.76339800
_cell_angle_alpha   90.00000000
_cell_angle_beta   90.00000000
_cell_angle_gamma   90.00000000
_symmetry_Int_Tables_number   1
_chemical_formula_structural   SrSeO3
_chemical_formula_sum   'Sr4 Se4 O12'
_cell_volume   320.38382174
_cell_formula_units_Z   4
loop_
 _symmetry_equiv_pos_site_id
 _symmetry_equiv_pos_as_xyz
  1  'x, y, z'
loop_
 _atom_site_type_symbol
 _atom_site_label
 _atom_site_symmetry_multiplicity
 _atom_site_fract_x
 _atom_site_fract_y
 _atom_site_fract_z
 _atom_site_occupancy
  Sr  Sr0  1  0.52277600  0.25000000  0.34866800  1
  Sr  Sr1  1  0.97722400  0.25000000  0.84866800  1
  Sr  Sr2  1  0.47722400  0.75000000  0.65133200  1
  Sr  Sr3  1  0.02277600  0.75000000  0.15133200  1
  Se  Se4  1  0.49692500  0.25000000  0.07886400  1
  Se  Se5  1  0.99692500  0.75000000  0.42113600  1
  Se  Se6  1  0.00307500  0.25000000  0.57886400  1
  Se  Se7  1  0.50307500  0.75000000  0.92113600  1
  O  O8  1  0.97153200  0.01063400  0.66469700  1
  O  O9  1  0.97153200  0.48936600  0.66469700  1
  O  O10  1  0.12108100  0.25000000  0.05222500  1
  O  O11  1  0.37891900  0.25000000  0.55222500  1
  O  O12  1  0.02846800  0.98936600  0.33530300  1
  O  O13  1  0.52846800  0.48936600  0.16469700  1
  O  O14  1  0.62108100  0.75000000  0.44777500  1
  O  O15  1  0.52846800  0.01063400  0.16469700  1
  O  O16  1  0.87891900  0.75000000  0.94777500  1
  O  O17  1  0.02846800  0.51063400  0.33530300  1
  O  O18  1  0.47153200  0.98936600  0.83530300  1
  O  O19  1  0.47153200  0.51063400  0.83530300  1
