# generated using pymatgen
data_KEr(PO3)4
_symmetry_space_group_name_H-M   'P 1'
_cell_length_a   10.41329400
_cell_length_b   11.89311400
_cell_length_c   17.43929700
_cell_angle_alpha   90.00000000
_cell_angle_beta   90.00000000
_cell_angle_gamma   90.00000000
_symmetry_Int_Tables_number   1
_chemical_formula_structural   KEr(PO3)4
_chemical_formula_sum   'K8 Er8 P32 O96'
_cell_volume   2159.79576786
_cell_formula_units_Z   8
loop_
 _symmetry_equiv_pos_site_id
 _symmetry_equiv_pos_as_xyz
  1  'x, y, z'
loop_
 _atom_site_type_symbol
 _atom_site_label
 _atom_site_symmetry_multiplicity
 _atom_site_fract_x
 _atom_site_fract_y
 _atom_site_fract_z
 _atom_site_occupancy
  K  K0  1  0.39595150  0.36781550  0.86808100  1
  K  K1  1  0.60404850  0.63218450  0.36808100  1
  K  K2  1  0.60404850  0.36781550  0.63191900  1
  K  K3  1  0.39595150  0.63218450  0.13191900  1
  K  K4  1  0.89595150  0.86781550  0.86808100  1
  K  K5  1  0.10404850  0.13218450  0.36808100  1
  K  K6  1  0.10404850  0.86781550  0.63191900  1
  K  K7  1  0.89595150  0.13218450  0.13191900  1
  Er  Er8  1  0.21574750  0.18691850  0.64226800  1
  Er  Er9  1  0.78425250  0.81308150  0.14226800  1
  Er  Er10  1  0.78425250  0.18691850  0.85773200  1
  Er  Er11  1  0.21574750  0.81308150  0.35773200  1
  Er  Er12  1  0.71574750  0.68691850  0.64226800  1
  Er  Er13  1  0.28425250  0.31308150  0.14226800  1
  Er  Er14  1  0.28425250  0.68691850  0.85773200  1
  Er  Er15  1  0.71574750  0.31308150  0.35773200  1
  P  P16  1  0.45053350  0.23014550  0.48522400  1
  P  P17  1  0.61396150  0.65023650  0.84210700  1
  P  P18  1  0.50000000  0.13320000  0.75000000  1
  P  P19  1  0.69850650  0.01868350  0.30575400  1
  P  P20  1  0.64871800  0.00000000  0.00000000  1
  P  P21  1  0.45053350  0.76985450  0.51477600  1
  P  P22  1  0.50000000  0.86680000  0.25000000  1
  P  P23  1  0.30149350  0.98131650  0.80575400  1
  P  P24  1  0.69850650  0.98131650  0.69424600  1
  P  P25  1  0.35128200  0.00000000  0.50000000  1
  P  P26  1  0.38603850  0.65023650  0.65789300  1
  P  P27  1  0.54946650  0.76985450  0.98522400  1
  P  P28  1  0.30149350  0.01868350  0.19424600  1
  P  P29  1  0.54946650  0.23014550  0.01477600  1
  P  P30  1  0.61396150  0.34976350  0.15789300  1
  P  P31  1  0.38603850  0.34976350  0.34210700  1
  P  P32  1  0.95053350  0.73014550  0.48522400  1
  P  P33  1  0.11396150  0.15023650  0.84210700  1
  P  P34  1  0.00000000  0.63320000  0.75000000  1
  P  P35  1  0.19850650  0.51868350  0.30575400  1
  P  P36  1  0.14871800  0.50000000  0.00000000  1
  P  P37  1  0.95053350  0.26985450  0.51477600  1
  P  P38  1  0.00000000  0.36680000  0.25000000  1
  P  P39  1  0.80149350  0.48131650  0.80575400  1
  P  P40  1  0.19850650  0.48131650  0.69424600  1
  P  P41  1  0.85128200  0.50000000  0.50000000  1
  P  P42  1  0.88603850  0.15023650  0.65789300  1
  P  P43  1  0.04946650  0.26985450  0.98522400  1
  P  P44  1  0.80149350  0.51868350  0.19424600  1
  P  P45  1  0.04946650  0.73014550  0.01477600  1
  P  P46  1  0.11396150  0.84976350  0.15789300  1
  P  P47  1  0.88603850  0.84976350  0.34210700  1
  O  O48  1  0.65729350  0.29002650  0.22855300  1
  O  O49  1  0.78688850  0.94844550  0.36573600  1
  O  O50  1  0.34270650  0.70997350  0.72855300  1
  O  O51  1  0.48079350  0.60111650  0.84769500  1
  O  O52  1  0.63881800  0.26369300  0.08765600  1
  O  O53  1  0.21311150  0.05155450  0.86573600  1
  O  O54  1  0.59778250  0.20273750  0.79177600  1
  O  O55  1  0.41484800  0.27226300  0.02589100  1
  O  O56  1  0.34270650  0.29002650  0.27144700  1
  O  O57  1  0.40221750  0.79726250  0.29177600  1
  O  O58  1  0.67623400  0.86995900  0.65686200  1
  O  O59  1  0.41484800  0.72773700  0.97410900  1
  O  O60  1  0.51920650  0.60111650  0.65230500  1
  O  O61  1  0.59778250  0.79726250  0.20822400  1
  O  O62  1  0.27386250  0.03723250  0.56834800  1
  O  O63  1  0.37990350  0.26060850  0.55729800  1
  O  O64  1  0.56337700  0.05045200  0.68781200  1
  O  O65  1  0.43662300  0.94954800  0.18781200  1
  O  O66  1  0.32376600  0.86995900  0.84313800  1
  O  O67  1  0.56337700  0.94954800  0.31218800  1
  O  O68  1  0.37990350  0.73939150  0.44270200  1
  O  O69  1  0.40221750  0.20273750  0.70822400  1
  O  O70  1  0.78688850  0.05155450  0.63426400  1
  O  O71  1  0.21311150  0.94844550  0.13426400  1
  O  O72  1  0.48079350  0.39888350  0.15230500  1
  O  O73  1  0.67623400  0.13004100  0.34313800  1
  O  O74  1  0.43662300  0.05045200  0.81218800  1
  O  O75  1  0.72613750  0.03723250  0.93165200  1
  O  O76  1  0.75111350  0.99189550  0.77377900  1
  O  O77  1  0.24888650  0.00810450  0.27377900  1
  O  O78  1  0.45234500  0.09480700  0.47503500  1
  O  O79  1  0.51920650  0.39888350  0.34769500  1
  O  O80  1  0.45234500  0.90519300  0.52496500  1
  O  O81  1  0.62009650  0.26060850  0.94270200  1
  O  O82  1  0.32376600  0.13004100  0.15686200  1
  O  O83  1  0.58515200  0.27226300  0.47410900  1
  O  O84  1  0.27386250  0.96276750  0.43165200  1
  O  O85  1  0.36118200  0.73630700  0.58765600  1
  O  O86  1  0.62009650  0.73939150  0.05729800  1
  O  O87  1  0.65729350  0.70997350  0.77144700  1
  O  O88  1  0.58515200  0.72773700  0.52589100  1
  O  O89  1  0.54765500  0.09480700  0.02496500  1
  O  O90  1  0.54765500  0.90519300  0.97503500  1
  O  O91  1  0.75111350  0.00810450  0.22622100  1
  O  O92  1  0.24888650  0.99189550  0.72622100  1
  O  O93  1  0.63881800  0.73630700  0.91234400  1
  O  O94  1  0.72613750  0.96276750  0.06834800  1
  O  O95  1  0.36118200  0.26369300  0.41234400  1
  O  O96  1  0.15729350  0.79002650  0.22855300  1
  O  O97  1  0.28688850  0.44844550  0.36573600  1
  O  O98  1  0.84270650  0.20997350  0.72855300  1
  O  O99  1  0.98079350  0.10111650  0.84769500  1
  O  O100  1  0.13881800  0.76369300  0.08765600  1
  O  O101  1  0.71311150  0.55155450  0.86573600  1
  O  O102  1  0.09778250  0.70273750  0.79177600  1
  O  O103  1  0.91484800  0.77226300  0.02589100  1
  O  O104  1  0.84270650  0.79002650  0.27144700  1
  O  O105  1  0.90221750  0.29726250  0.29177600  1
  O  O106  1  0.17623400  0.36995900  0.65686200  1
  O  O107  1  0.91484800  0.22773700  0.97410900  1
  O  O108  1  0.01920650  0.10111650  0.65230500  1
  O  O109  1  0.09778250  0.29726250  0.20822400  1
  O  O110  1  0.77386250  0.53723250  0.56834800  1
  O  O111  1  0.87990350  0.76060850  0.55729800  1
  O  O112  1  0.06337700  0.55045200  0.68781200  1
  O  O113  1  0.93662300  0.44954800  0.18781200  1
  O  O114  1  0.82376600  0.36995900  0.84313800  1
  O  O115  1  0.06337700  0.44954800  0.31218800  1
  O  O116  1  0.87990350  0.23939150  0.44270200  1
  O  O117  1  0.90221750  0.70273750  0.70822400  1
  O  O118  1  0.28688850  0.55155450  0.63426400  1
  O  O119  1  0.71311150  0.44844550  0.13426400  1
  O  O120  1  0.98079350  0.89888350  0.15230500  1
  O  O121  1  0.17623400  0.63004100  0.34313800  1
  O  O122  1  0.93662300  0.55045200  0.81218800  1
  O  O123  1  0.22613750  0.53723250  0.93165200  1
  O  O124  1  0.25111350  0.49189550  0.77377900  1
  O  O125  1  0.74888650  0.50810450  0.27377900  1
  O  O126  1  0.95234500  0.59480700  0.47503500  1
  O  O127  1  0.01920650  0.89888350  0.34769500  1
  O  O128  1  0.95234500  0.40519300  0.52496500  1
  O  O129  1  0.12009650  0.76060850  0.94270200  1
  O  O130  1  0.82376600  0.63004100  0.15686200  1
  O  O131  1  0.08515200  0.77226300  0.47410900  1
  O  O132  1  0.77386250  0.46276750  0.43165200  1
  O  O133  1  0.86118200  0.23630700  0.58765600  1
  O  O134  1  0.12009650  0.23939150  0.05729800  1
  O  O135  1  0.15729350  0.20997350  0.77144700  1
  O  O136  1  0.08515200  0.22773700  0.52589100  1
  O  O137  1  0.04765500  0.59480700  0.02496500  1
  O  O138  1  0.04765500  0.40519300  0.97503500  1
  O  O139  1  0.25111350  0.50810450  0.22622100  1
  O  O140  1  0.74888650  0.49189550  0.72622100  1
  O  O141  1  0.13881800  0.23630700  0.91234400  1
  O  O142  1  0.22613750  0.46276750  0.06834800  1
  O  O143  1  0.86118200  0.76369300  0.41234400  1
