# generated using pymatgen
data_CaLa2B10O19
_symmetry_space_group_name_H-M   'P 1'
_cell_length_a   11.13736200
_cell_length_b   6.62763400
_cell_length_c   9.18774776
_cell_angle_alpha   90.00000000
_cell_angle_beta   91.67049689
_cell_angle_gamma   90.00000000
_symmetry_Int_Tables_number   1
_chemical_formula_structural   CaLa2B10O19
_chemical_formula_sum   'Ca2 La4 B20 O38'
_cell_volume   677.89948477
_cell_formula_units_Z   2
loop_
 _symmetry_equiv_pos_site_id
 _symmetry_equiv_pos_as_xyz
  1  'x, y, z'
loop_
 _atom_site_type_symbol
 _atom_site_label
 _atom_site_symmetry_multiplicity
 _atom_site_fract_x
 _atom_site_fract_y
 _atom_site_fract_z
 _atom_site_occupancy
  Ca  Ca0  1  0.50000000  0.31159600  0.50000000  1
  Ca  Ca1  1  0.00000000  0.81159600  0.50000000  1
  La  La2  1  0.83765650  0.99754150  0.85571300  1
  La  La3  1  0.16234350  0.99754150  0.14428700  1
  La  La4  1  0.33765650  0.49754150  0.85571300  1
  La  La5  1  0.66234350  0.49754150  0.14428700  1
  B  B6  1  0.38523700  0.05931300  0.72999900  1
  B  B7  1  0.53928200  0.82336500  0.83902500  1
  B  B8  1  0.82691850  0.01243750  0.20757800  1
  B  B9  1  0.56676450  0.19208350  0.87395200  1
  B  B10  1  0.23255200  0.02078900  0.52902200  1
  B  B11  1  0.43323550  0.19208350  0.12604800  1
  B  B12  1  0.46071800  0.82336500  0.16097500  1
  B  B13  1  0.76744800  0.02078900  0.47097800  1
  B  B14  1  0.61476300  0.05931300  0.27000100  1
  B  B15  1  0.17308150  0.01243750  0.79242200  1
  B  B16  1  0.88523700  0.55931300  0.72999900  1
  B  B17  1  0.03928200  0.32336500  0.83902500  1
  B  B18  1  0.32691850  0.51243750  0.20757800  1
  B  B19  1  0.06676450  0.69208350  0.87395200  1
  B  B20  1  0.73255200  0.52078900  0.52902200  1
  B  B21  1  0.93323550  0.69208350  0.12604800  1
  B  B22  1  0.96071800  0.32336500  0.16097500  1
  B  B23  1  0.26744800  0.52078900  0.47097800  1
  B  B24  1  0.11476300  0.55931300  0.27000100  1
  B  B25  1  0.67308150  0.51243750  0.79242200  1
  O  O26  1  0.61165200  0.97836700  0.88663000  1
  O  O27  1  0.35144050  0.05370050  0.57310900  1
  O  O28  1  0.48368000  0.20835700  0.74620700  1
  O  O29  1  0.14542350  0.99877750  0.63557500  1
  O  O30  1  0.64855950  0.05370050  0.42689100  1
  O  O31  1  0.42804750  0.62401950  0.13357200  1
  O  O32  1  0.50000000  0.26501700  0.00000000  1
  O  O33  1  0.71565100  0.12390900  0.18085600  1
  O  O34  1  0.85457650  0.99877750  0.36442500  1
  O  O35  1  0.57195250  0.62401950  0.86642800  1
  O  O36  1  0.51632000  0.20835700  0.25379300  1
  O  O37  1  0.19412200  0.00099200  0.38888600  1
  O  O38  1  0.28434900  0.12390900  0.81914400  1
  O  O39  1  0.80587800  0.00099200  0.61111400  1
  O  O40  1  0.42793850  0.85323950  0.77789100  1
  O  O41  1  0.32265900  0.31225200  0.13622300  1
  O  O42  1  0.38834800  0.97836700  0.11337000  1
  O  O43  1  0.67734100  0.31225200  0.86377700  1
  O  O44  1  0.57206150  0.85323950  0.22210900  1
  O  O45  1  0.11165200  0.47836700  0.88663000  1
  O  O46  1  0.85144050  0.55370050  0.57310900  1
  O  O47  1  0.98368000  0.70835700  0.74620700  1
  O  O48  1  0.64542350  0.49877750  0.63557500  1
  O  O49  1  0.14855950  0.55370050  0.42689100  1
  O  O50  1  0.92804750  0.12401950  0.13357200  1
  O  O51  1  0.00000000  0.76501700  0.00000000  1
  O  O52  1  0.21565100  0.62390900  0.18085600  1
  O  O53  1  0.35457650  0.49877750  0.36442500  1
  O  O54  1  0.07195250  0.12401950  0.86642800  1
  O  O55  1  0.01632000  0.70835700  0.25379300  1
  O  O56  1  0.69412200  0.50099200  0.38888600  1
  O  O57  1  0.78434900  0.62390900  0.81914400  1
  O  O58  1  0.30587800  0.50099200  0.61111400  1
  O  O59  1  0.92793850  0.35323950  0.77789100  1
  O  O60  1  0.82265900  0.81225200  0.13622300  1
  O  O61  1  0.88834800  0.47836700  0.11337000  1
  O  O62  1  0.17734100  0.81225200  0.86377700  1
  O  O63  1  0.07206150  0.35323950  0.22210900  1
