# generated using pymatgen
data_Pr(AlBr4)3
_symmetry_space_group_name_H-M   'P 1'
_cell_length_a   10.81470949
_cell_length_b   10.81470949
_cell_length_c   19.00546500
_cell_angle_alpha   90.00000000
_cell_angle_beta   90.00000000
_cell_angle_gamma   120.00000000
_symmetry_Int_Tables_number   1
_chemical_formula_structural   Pr(AlBr4)3
_chemical_formula_sum   'Pr3 Al9 Br36'
_cell_volume   1925.03595951
_cell_formula_units_Z   3
loop_
 _symmetry_equiv_pos_site_id
 _symmetry_equiv_pos_as_xyz
  1  'x, y, z'
loop_
 _atom_site_type_symbol
 _atom_site_label
 _atom_site_symmetry_multiplicity
 _atom_site_fract_x
 _atom_site_fract_y
 _atom_site_fract_z
 _atom_site_occupancy
  Pr  Pr0  1  0.26951300  0.26951300  0.00000000  1
  Pr  Pr1  1  0.00000000  0.73048700  0.66666667  1
  Pr  Pr2  1  0.73048700  0.00000000  0.33333333  1
  Al  Al3  1  0.36608800  0.66706800  0.05449800  1
  Al  Al4  1  0.63391200  0.30098000  0.27883533  1
  Al  Al5  1  0.30098000  0.63391200  0.72116467  1
  Al  Al6  1  0.69902000  0.33293200  0.61216867  1
  Al  Al7  1  0.09890200  0.00000000  0.83333333  1
  Al  Al8  1  0.00000000  0.09890200  0.16666667  1
  Al  Al9  1  0.66706800  0.36608800  0.94550200  1
  Al  Al10  1  0.33293200  0.69902000  0.38783133  1
  Al  Al11  1  0.90109800  0.90109800  0.50000000  1
  Br  Br12  1  0.49416100  0.41178000  0.88905100  1
  Br  Br13  1  0.79571000  0.76834500  0.39831200  1
  Br  Br14  1  0.14268800  0.71696100  0.35088800  1
  Br  Br15  1  0.47903100  0.71275700  0.29023400  1
  Br  Br16  1  0.22369000  0.71575400  0.12296400  1
  Br  Br17  1  0.28424600  0.50793600  0.45629733  1
  Br  Br18  1  0.02736500  0.23165500  0.26835467  1
  Br  Br19  1  0.97263500  0.20429000  0.06497867  1
  Br  Br20  1  0.28724300  0.76627400  0.62356733  1
  Br  Br21  1  0.87936800  0.80425900  0.80232400  1
  Br  Br22  1  0.77631000  0.49206400  0.21036933  1
  Br  Br23  1  0.23165500  0.02736500  0.73164533  1
  Br  Br24  1  0.92489100  0.12063200  0.46899067  1
  Br  Br25  1  0.23372600  0.52096900  0.95690067  1
  Br  Br26  1  0.50583900  0.91761900  0.44428233  1
  Br  Br27  1  0.08238100  0.58822000  0.77761567  1
  Br  Br28  1  0.58822000  0.08238100  0.22238433  1
  Br  Br29  1  0.12063200  0.92489100  0.53100933  1
  Br  Br30  1  0.49206400  0.77631000  0.78963067  1
  Br  Br31  1  0.80425900  0.87936800  0.19767600  1
  Br  Br32  1  0.07510900  0.19574100  0.86434267  1
  Br  Br33  1  0.28303900  0.42572700  0.68422133  1
  Br  Br34  1  0.71575400  0.22369000  0.87703600  1
  Br  Br35  1  0.19574100  0.07510900  0.13565733  1
  Br  Br36  1  0.50793600  0.28424600  0.54370267  1
  Br  Br37  1  0.91761900  0.50583900  0.55571767  1
  Br  Br38  1  0.76834500  0.79571000  0.60168800  1
  Br  Br39  1  0.76627400  0.28724300  0.37643267  1
  Br  Br40  1  0.57427300  0.85731200  0.01755467  1
  Br  Br41  1  0.85731200  0.57427300  0.98244533  1
  Br  Br42  1  0.42572700  0.28303900  0.31577867  1
  Br  Br43  1  0.71696100  0.14268800  0.64911200  1
  Br  Br44  1  0.41178000  0.49416100  0.11094900  1
  Br  Br45  1  0.20429000  0.97263500  0.93502133  1
  Br  Br46  1  0.71275700  0.47903100  0.70976600  1
  Br  Br47  1  0.52096900  0.23372600  0.04309933  1
