# generated using pymatgen
data_Cs2Ba2(CO3)3
_symmetry_space_group_name_H-M   'P 1'
_cell_length_a   10.51674600
_cell_length_b   10.51674600
_cell_length_c   10.51674600
_cell_angle_alpha   90.00000000
_cell_angle_beta   90.00000000
_cell_angle_gamma   90.00000000
_symmetry_Int_Tables_number   1
_chemical_formula_structural   Cs2Ba2(CO3)3
_chemical_formula_sum   'Cs8 Ba8 C12 O36'
_cell_volume   1163.17257769
_cell_formula_units_Z   4
loop_
 _symmetry_equiv_pos_site_id
 _symmetry_equiv_pos_as_xyz
  1  'x, y, z'
loop_
 _atom_site_type_symbol
 _atom_site_label
 _atom_site_symmetry_multiplicity
 _atom_site_fract_x
 _atom_site_fract_y
 _atom_site_fract_z
 _atom_site_occupancy
  Cs  Cs0  1  0.30993850  0.19006150  0.80993850  1
  Cs  Cs1  1  0.19006150  0.80993850  0.30993850  1
  Cs  Cs2  1  0.19006150  0.19006150  0.19006150  1
  Cs  Cs3  1  0.80993850  0.30993850  0.19006150  1
  Cs  Cs4  1  0.80993850  0.69006150  0.30993850  1
  Cs  Cs5  1  0.69006150  0.30993850  0.80993850  1
  Cs  Cs6  1  0.69006150  0.69006150  0.69006150  1
  Cs  Cs7  1  0.30993850  0.80993850  0.69006150  1
  Ba  Ba8  1  0.54141650  0.95858350  0.04141650  1
  Ba  Ba9  1  0.04141650  0.54141650  0.95858350  1
  Ba  Ba10  1  0.45858350  0.45858350  0.45858350  1
  Ba  Ba11  1  0.95858350  0.04141650  0.54141650  1
  Ba  Ba12  1  0.04141650  0.45858350  0.54141650  1
  Ba  Ba13  1  0.54141650  0.04141650  0.45858350  1
  Ba  Ba14  1  0.95858350  0.95858350  0.95858350  1
  Ba  Ba15  1  0.45858350  0.54141650  0.04141650  1
  C  C16  1  0.25000000  0.15937800  0.50000000  1
  C  C17  1  0.50000000  0.75000000  0.34062200  1
  C  C18  1  0.34062200  0.50000000  0.75000000  1
  C  C19  1  0.50000000  0.25000000  0.15937800  1
  C  C20  1  0.75000000  0.34062200  0.50000000  1
  C  C21  1  0.15937800  0.50000000  0.25000000  1
  C  C22  1  0.75000000  0.65937800  0.00000000  1
  C  C23  1  0.00000000  0.25000000  0.84062200  1
  C  C24  1  0.84062200  0.00000000  0.25000000  1
  C  C25  1  0.00000000  0.75000000  0.65937800  1
  C  C26  1  0.25000000  0.84062200  0.00000000  1
  C  C27  1  0.65937800  0.00000000  0.75000000  1
  O  O28  1  0.75000000  0.46526800  0.50000000  1
  O  O29  1  0.46526800  0.50000000  0.75000000  1
  O  O30  1  0.48369450  0.14374550  0.22046350  1
  O  O31  1  0.22046350  0.48369450  0.14374550  1
  O  O32  1  0.14374550  0.22046350  0.48369450  1
  O  O33  1  0.50000000  0.75000000  0.46526800  1
  O  O34  1  0.22046350  0.51630550  0.35625450  1
  O  O35  1  0.14374550  0.77953650  0.01630550  1
  O  O36  1  0.48369450  0.85625450  0.27953650  1
  O  O37  1  0.27953650  0.48369450  0.85625450  1
  O  O38  1  0.01630550  0.14374550  0.77953650  1
  O  O39  1  0.77953650  0.01630550  0.14374550  1
  O  O40  1  0.50000000  0.25000000  0.03473200  1
  O  O41  1  0.03473200  0.50000000  0.25000000  1
  O  O42  1  0.85625450  0.27953650  0.48369450  1
  O  O43  1  0.51630550  0.35625450  0.22046350  1
  O  O44  1  0.25000000  0.03473200  0.50000000  1
  O  O45  1  0.35625450  0.22046350  0.51630550  1
  O  O46  1  0.25000000  0.96526800  0.00000000  1
  O  O47  1  0.96526800  0.00000000  0.25000000  1
  O  O48  1  0.98369450  0.64374550  0.72046350  1
  O  O49  1  0.72046350  0.98369450  0.64374550  1
  O  O50  1  0.64374550  0.72046350  0.98369450  1
  O  O51  1  0.00000000  0.25000000  0.96526800  1
  O  O52  1  0.72046350  0.01630550  0.85625450  1
  O  O53  1  0.64374550  0.27953650  0.51630550  1
  O  O54  1  0.98369450  0.35625450  0.77953650  1
  O  O55  1  0.77953650  0.98369450  0.35625450  1
  O  O56  1  0.51630550  0.64374550  0.27953650  1
  O  O57  1  0.27953650  0.51630550  0.64374550  1
  O  O58  1  0.00000000  0.75000000  0.53473200  1
  O  O59  1  0.53473200  0.00000000  0.75000000  1
  O  O60  1  0.35625450  0.77953650  0.98369450  1
  O  O61  1  0.01630550  0.85625450  0.72046350  1
  O  O62  1  0.75000000  0.53473200  0.00000000  1
  O  O63  1  0.85625450  0.72046350  0.01630550  1
