# generated using pymatgen
data_Rb2CdSiO4
_symmetry_space_group_name_H-M   'P 1'
_cell_length_a   11.17256000
_cell_length_b   11.64357200
_cell_length_c   16.93679500
_cell_angle_alpha   90.00000000
_cell_angle_beta   90.00000000
_cell_angle_gamma   90.00000000
_symmetry_Int_Tables_number   1
_chemical_formula_structural   Rb2CdSiO4
_chemical_formula_sum   'Rb32 Cd16 Si16 O64'
_cell_volume   2203.28237126
_cell_formula_units_Z   16
loop_
 _symmetry_equiv_pos_site_id
 _symmetry_equiv_pos_as_xyz
  1  'x, y, z'
loop_
 _atom_site_type_symbol
 _atom_site_label
 _atom_site_symmetry_multiplicity
 _atom_site_fract_x
 _atom_site_fract_y
 _atom_site_fract_z
 _atom_site_occupancy
  Rb  Rb0  1  0.50678450  0.24921550  0.14056000  1
  Rb  Rb1  1  0.95770500  0.00000000  0.00000000  1
  Rb  Rb2  1  0.25308700  0.99526700  0.10942200  1
  Rb  Rb3  1  0.30019950  0.75211050  0.26199300  1
  Rb  Rb4  1  0.25308700  0.00473300  0.89057800  1
  Rb  Rb5  1  0.74691300  0.00473300  0.60942200  1
  Rb  Rb6  1  0.44641200  0.00000000  0.50000000  1
  Rb  Rb7  1  0.49321550  0.75078450  0.64056000  1
  Rb  Rb8  1  0.50678450  0.75078450  0.85944000  1
  Rb  Rb9  1  0.69980050  0.75211050  0.23800700  1
  Rb  Rb10  1  0.69980050  0.24788950  0.76199300  1
  Rb  Rb11  1  0.55358800  0.00000000  0.00000000  1
  Rb  Rb12  1  0.49321550  0.24921550  0.35944000  1
  Rb  Rb13  1  0.30019950  0.24788950  0.73800700  1
  Rb  Rb14  1  0.74691300  0.99526700  0.39057800  1
  Rb  Rb15  1  0.04229500  0.00000000  0.50000000  1
  Rb  Rb16  1  0.00678450  0.74921550  0.14056000  1
  Rb  Rb17  1  0.45770500  0.50000000  0.00000000  1
  Rb  Rb18  1  0.75308700  0.49526700  0.10942200  1
  Rb  Rb19  1  0.80019950  0.25211050  0.26199300  1
  Rb  Rb20  1  0.75308700  0.50473300  0.89057800  1
  Rb  Rb21  1  0.24691300  0.50473300  0.60942200  1
  Rb  Rb22  1  0.94641200  0.50000000  0.50000000  1
  Rb  Rb23  1  0.99321550  0.25078450  0.64056000  1
  Rb  Rb24  1  0.00678450  0.25078450  0.85944000  1
  Rb  Rb25  1  0.19980050  0.25211050  0.23800700  1
  Rb  Rb26  1  0.19980050  0.74788950  0.76199300  1
  Rb  Rb27  1  0.05358800  0.50000000  0.00000000  1
  Rb  Rb28  1  0.99321550  0.74921550  0.35944000  1
  Rb  Rb29  1  0.80019950  0.74788950  0.73800700  1
  Rb  Rb30  1  0.24691300  0.49526700  0.39057800  1
  Rb  Rb31  1  0.54229500  0.50000000  0.50000000  1
  Cd  Cd32  1  0.47963950  0.74851450  0.09387500  1
  Cd  Cd33  1  0.52036050  0.25148550  0.59387500  1
  Cd  Cd34  1  0.47963950  0.25148550  0.90612500  1
  Cd  Cd35  1  0.52036050  0.74851450  0.40612500  1
  Cd  Cd36  1  0.76191300  0.00941700  0.15655200  1
  Cd  Cd37  1  0.23808700  0.00941700  0.34344800  1
  Cd  Cd38  1  0.23808700  0.99058300  0.65655200  1
  Cd  Cd39  1  0.76191300  0.99058300  0.84344800  1
  Cd  Cd40  1  0.97963950  0.24851450  0.09387500  1
  Cd  Cd41  1  0.02036050  0.75148550  0.59387500  1
  Cd  Cd42  1  0.97963950  0.75148550  0.90612500  1
  Cd  Cd43  1  0.02036050  0.24851450  0.40612500  1
  Cd  Cd44  1  0.26191300  0.50941700  0.15655200  1
  Cd  Cd45  1  0.73808700  0.50941700  0.34344800  1
  Cd  Cd46  1  0.73808700  0.49058300  0.65655200  1
  Cd  Cd47  1  0.26191300  0.49058300  0.84344800  1
  Si  Si48  1  0.75203950  0.76488750  0.00459400  1
  Si  Si49  1  0.75203950  0.23511250  0.99540600  1
  Si  Si50  1  0.50000000  0.98239000  0.25000000  1
  Si  Si51  1  0.50000000  0.51040600  0.25000000  1
  Si  Si52  1  0.24796050  0.23511250  0.50459400  1
  Si  Si53  1  0.24796050  0.76488750  0.49540600  1
  Si  Si54  1  0.50000000  0.48959400  0.75000000  1
  Si  Si55  1  0.50000000  0.01761000  0.75000000  1
  Si  Si56  1  0.25203950  0.26488750  0.00459400  1
  Si  Si57  1  0.25203950  0.73511250  0.99540600  1
  Si  Si58  1  0.00000000  0.48239000  0.25000000  1
  Si  Si59  1  0.00000000  0.01040600  0.25000000  1
  Si  Si60  1  0.74796050  0.73511250  0.50459400  1
  Si  Si61  1  0.74796050  0.26488750  0.49540600  1
  Si  Si62  1  0.00000000  0.98959400  0.75000000  1
  Si  Si63  1  0.00000000  0.51761000  0.75000000  1
  O  O64  1  0.38053850  0.93295850  0.74135500  1
  O  O65  1  0.12096700  0.92764600  0.24871300  1
  O  O66  1  0.51371650  0.90227750  0.33030200  1
  O  O67  1  0.61946150  0.93295850  0.75864500  1
  O  O68  1  0.24236900  0.83074400  0.58302700  1
  O  O69  1  0.36660400  0.17350900  0.00487200  1
  O  O70  1  0.50828850  0.41008450  0.66884700  1
  O  O71  1  0.61946150  0.06704150  0.24135500  1
  O  O72  1  0.51371650  0.09772250  0.66969800  1
  O  O73  1  0.37365950  0.30999250  0.51225400  1
  O  O74  1  0.63339600  0.17350900  0.49512800  1
  O  O75  1  0.76505350  0.85722250  0.07797400  1
  O  O76  1  0.23494650  0.14277750  0.57797400  1
  O  O77  1  0.76505350  0.14277750  0.92202600  1
  O  O78  1  0.63339600  0.82649100  0.50487200  1
  O  O79  1  0.49171150  0.58991550  0.16884700  1
  O  O80  1  0.50828850  0.58991550  0.33115300  1
  O  O81  1  0.49171150  0.41008450  0.83115300  1
  O  O82  1  0.87903300  0.92764600  0.25128700  1
  O  O83  1  0.75763100  0.16925600  0.08302700  1
  O  O84  1  0.23494650  0.85722250  0.42202600  1
  O  O85  1  0.36660400  0.82649100  0.99512800  1
  O  O86  1  0.38053850  0.06704150  0.25864500  1
  O  O87  1  0.48628350  0.90227750  0.16969800  1
  O  O88  1  0.75763100  0.83074400  0.91697300  1
  O  O89  1  0.62634050  0.69000750  0.01225400  1
  O  O90  1  0.12096700  0.07235400  0.75128700  1
  O  O91  1  0.24236900  0.16925600  0.41697300  1
  O  O92  1  0.48628350  0.09772250  0.83030200  1
  O  O93  1  0.87903300  0.07235400  0.74871300  1
  O  O94  1  0.37365950  0.69000750  0.48774600  1
  O  O95  1  0.62634050  0.30999250  0.98774600  1
  O  O96  1  0.88053850  0.43295850  0.74135500  1
  O  O97  1  0.62096700  0.42764600  0.24871300  1
  O  O98  1  0.01371650  0.40227750  0.33030200  1
  O  O99  1  0.11946150  0.43295850  0.75864500  1
  O  O100  1  0.74236900  0.33074400  0.58302700  1
  O  O101  1  0.86660400  0.67350900  0.00487200  1
  O  O102  1  0.00828850  0.91008450  0.66884700  1
  O  O103  1  0.11946150  0.56704150  0.24135500  1
  O  O104  1  0.01371650  0.59772250  0.66969800  1
  O  O105  1  0.87365950  0.80999250  0.51225400  1
  O  O106  1  0.13339600  0.67350900  0.49512800  1
  O  O107  1  0.26505350  0.35722250  0.07797400  1
  O  O108  1  0.73494650  0.64277750  0.57797400  1
  O  O109  1  0.26505350  0.64277750  0.92202600  1
  O  O110  1  0.13339600  0.32649100  0.50487200  1
  O  O111  1  0.99171150  0.08991550  0.16884700  1
  O  O112  1  0.00828850  0.08991550  0.33115300  1
  O  O113  1  0.99171150  0.91008450  0.83115300  1
  O  O114  1  0.37903300  0.42764600  0.25128700  1
  O  O115  1  0.25763100  0.66925600  0.08302700  1
  O  O116  1  0.73494650  0.35722250  0.42202600  1
  O  O117  1  0.86660400  0.32649100  0.99512800  1
  O  O118  1  0.88053850  0.56704150  0.25864500  1
  O  O119  1  0.98628350  0.40227750  0.16969800  1
  O  O120  1  0.25763100  0.33074400  0.91697300  1
  O  O121  1  0.12634050  0.19000750  0.01225400  1
  O  O122  1  0.62096700  0.57235400  0.75128700  1
  O  O123  1  0.74236900  0.66925600  0.41697300  1
  O  O124  1  0.98628350  0.59772250  0.83030200  1
  O  O125  1  0.37903300  0.57235400  0.74871300  1
  O  O126  1  0.87365950  0.19000750  0.48774600  1
  O  O127  1  0.12634050  0.80999250  0.98774600  1
