# generated using pymatgen
data_GePb3O5
_symmetry_space_group_name_H-M   'P 1'
_cell_length_a   7.57717200
_cell_length_b   7.68922600
_cell_length_c   5.50092800
_cell_angle_alpha   90.00000000
_cell_angle_beta   90.00000000
_cell_angle_gamma   90.00000000
_symmetry_Int_Tables_number   1
_chemical_formula_structural   GePb3O5
_chemical_formula_sum   'Ge2 Pb6 O10'
_cell_volume   320.49830140
_cell_formula_units_Z   2
loop_
 _symmetry_equiv_pos_site_id
 _symmetry_equiv_pos_as_xyz
  1  'x, y, z'
loop_
 _atom_site_type_symbol
 _atom_site_label
 _atom_site_symmetry_multiplicity
 _atom_site_fract_x
 _atom_site_fract_y
 _atom_site_fract_z
 _atom_site_occupancy
  Ge  Ge0  1  0.00000000  0.00000000  0.48337300  1
  Ge  Ge1  1  0.50000000  0.50000000  0.48337300  1
  Pb  Pb2  1  0.50000000  0.00000000  0.45186600  1
  Pb  Pb3  1  0.25000000  0.75000000  0.97853400  1
  Pb  Pb4  1  0.25000000  0.25000000  0.97853400  1
  Pb  Pb5  1  0.00000000  0.50000000  0.45186600  1
  Pb  Pb6  1  0.75000000  0.25000000  0.97853400  1
  Pb  Pb7  1  0.75000000  0.75000000  0.97853400  1
  O  O8  1  0.50000000  0.68654600  0.29054000  1
  O  O9  1  0.80932100  0.00000000  0.67277200  1
  O  O10  1  0.19067900  0.00000000  0.67277200  1
  O  O11  1  0.50000000  0.31345400  0.29054000  1
  O  O12  1  0.50000000  0.00000000  0.03098800  1
  O  O13  1  0.00000000  0.18654600  0.29054000  1
  O  O14  1  0.30932100  0.50000000  0.67277200  1
  O  O15  1  0.69067900  0.50000000  0.67277200  1
  O  O16  1  0.00000000  0.81345400  0.29054000  1
  O  O17  1  0.00000000  0.50000000  0.03098800  1
