# generated using pymatgen
data_K3Na3(NO4)2
_symmetry_space_group_name_H-M   'P 1'
_cell_length_a   7.10411800
_cell_length_b   7.38412100
_cell_length_c   16.32032800
_cell_angle_alpha   90.00000000
_cell_angle_beta   90.00000000
_cell_angle_gamma   90.00000000
_symmetry_Int_Tables_number   1
_chemical_formula_structural   K3Na3(NO4)2
_chemical_formula_sum   'K12 Na12 N8 O32'
_cell_volume   856.12633009
_cell_formula_units_Z   4
loop_
 _symmetry_equiv_pos_site_id
 _symmetry_equiv_pos_as_xyz
  1  'x, y, z'
loop_
 _atom_site_type_symbol
 _atom_site_label
 _atom_site_symmetry_multiplicity
 _atom_site_fract_x
 _atom_site_fract_y
 _atom_site_fract_z
 _atom_site_occupancy
  K  K0  1  0.08519100  0.20616800  0.86699600  1
  K  K1  1  0.91480900  0.79383200  0.13300400  1
  K  K2  1  0.25000000  0.50000000  0.01073000  1
  K  K3  1  0.75000000  0.50000000  0.98927000  1
  K  K4  1  0.25000000  0.00000000  0.51073000  1
  K  K5  1  0.75000000  0.00000000  0.48927000  1
  K  K6  1  0.58519100  0.29383200  0.63300400  1
  K  K7  1  0.58519100  0.20616800  0.13300400  1
  K  K8  1  0.08519100  0.29383200  0.36699600  1
  K  K9  1  0.41480900  0.70616800  0.36699600  1
  K  K10  1  0.91480900  0.70616800  0.63300400  1
  K  K11  1  0.41480900  0.79383200  0.86699600  1
  Na  Na12  1  0.75000000  0.50000000  0.79291600  1
  Na  Na13  1  0.25000000  0.50000000  0.53040000  1
  Na  Na14  1  0.75000000  0.00000000  0.75788200  1
  Na  Na15  1  0.75000000  0.50000000  0.25788200  1
  Na  Na16  1  0.25000000  0.50000000  0.20708400  1
  Na  Na17  1  0.25000000  0.00000000  0.24211800  1
  Na  Na18  1  0.75000000  0.50000000  0.46960000  1
  Na  Na19  1  0.75000000  0.00000000  0.29291600  1
  Na  Na20  1  0.75000000  0.00000000  0.96960000  1
  Na  Na21  1  0.25000000  0.50000000  0.74211800  1
  Na  Na22  1  0.25000000  0.00000000  0.03040000  1
  Na  Na23  1  0.25000000  0.00000000  0.70708400  1
  N  N24  1  0.01661700  0.24055300  0.13016600  1
  N  N25  1  0.51661700  0.24055300  0.86983400  1
  N  N26  1  0.51661700  0.25944700  0.36983400  1
  N  N27  1  0.01661700  0.25944700  0.63016600  1
  N  N28  1  0.48338300  0.75944700  0.13016600  1
  N  N29  1  0.48338300  0.74055300  0.63016600  1
  N  N30  1  0.98338300  0.75944700  0.86983400  1
  N  N31  1  0.98338300  0.74055300  0.36983400  1
  O  O32  1  0.54009400  0.57884900  0.13490400  1
  O  O33  1  0.05238100  0.64481000  0.30255600  1
  O  O34  1  0.94761900  0.14481000  0.19744400  1
  O  O35  1  0.54009400  0.92115100  0.63490400  1
  O  O36  1  0.55238100  0.85519000  0.19744400  1
  O  O37  1  0.05238100  0.85519000  0.80255600  1
  O  O38  1  0.44761900  0.14481000  0.80255600  1
  O  O39  1  0.78519700  0.76913900  0.86888600  1
  O  O40  1  0.95990600  0.42115100  0.13490400  1
  O  O41  1  0.71480300  0.23086100  0.86888600  1
  O  O42  1  0.45990600  0.42115100  0.86509600  1
  O  O43  1  0.95110700  0.16461200  0.05653200  1
  O  O44  1  0.95110700  0.33538800  0.55653200  1
  O  O45  1  0.04889300  0.66461200  0.44346800  1
  O  O46  1  0.28519700  0.73086100  0.63111400  1
  O  O47  1  0.54889300  0.66461200  0.55653200  1
  O  O48  1  0.45110700  0.33538800  0.44346800  1
  O  O49  1  0.44761900  0.35519000  0.30255600  1
  O  O50  1  0.45110700  0.16461200  0.94346800  1
  O  O51  1  0.94761900  0.35519000  0.69744400  1
  O  O52  1  0.71480300  0.26913900  0.36888600  1
  O  O53  1  0.45990600  0.07884900  0.36509600  1
  O  O54  1  0.95990600  0.07884900  0.63490400  1
  O  O55  1  0.78519700  0.73086100  0.36888600  1
  O  O56  1  0.04009400  0.92115100  0.36509600  1
  O  O57  1  0.21480300  0.26913900  0.63111400  1
  O  O58  1  0.54889300  0.83538800  0.05653200  1
  O  O59  1  0.55238100  0.64481000  0.69744400  1
  O  O60  1  0.28519700  0.76913900  0.13111400  1
  O  O61  1  0.21480300  0.23086100  0.13111400  1
  O  O62  1  0.04889300  0.83538800  0.94346800  1
  O  O63  1  0.04009400  0.57884900  0.86509600  1
