# generated using pymatgen
data_HfNCl
_symmetry_space_group_name_H-M   'P 1'
_cell_length_a   3.58233230
_cell_length_b   3.58233230
_cell_length_c   29.62028064
_cell_angle_alpha   90.00000000
_cell_angle_beta   90.00000000
_cell_angle_gamma   120.00000000
_symmetry_Int_Tables_number   1
_chemical_formula_structural   HfNCl
_chemical_formula_sum   'Hf6 N6 Cl6'
_cell_volume   329.19371818
_cell_formula_units_Z   6
loop_
 _symmetry_equiv_pos_site_id
 _symmetry_equiv_pos_as_xyz
  1  'x, y, z'
loop_
 _atom_site_type_symbol
 _atom_site_label
 _atom_site_symmetry_multiplicity
 _atom_site_fract_x
 _atom_site_fract_y
 _atom_site_fract_z
 _atom_site_occupancy
  Hf  Hf0  1  0.00000000  0.00000000  0.12247800  1
  Hf  Hf1  1  0.66666667  0.33333333  0.21085533  1
  Hf  Hf2  1  0.66666667  0.33333333  0.45581133  1
  Hf  Hf3  1  0.33333333  0.66666667  0.54418867  1
  Hf  Hf4  1  0.33333333  0.66666667  0.78914467  1
  Hf  Hf5  1  0.00000000  0.00000000  0.87752200  1
  N  N6  1  0.00000000  0.00000000  0.19606800  1
  N  N7  1  0.66666667  0.33333333  0.13726533  1
  N  N8  1  0.66666667  0.33333333  0.52940133  1
  N  N9  1  0.33333333  0.66666667  0.47059867  1
  N  N10  1  0.33333333  0.66666667  0.86273467  1
  N  N11  1  0.00000000  0.00000000  0.80393200  1
  Cl  Cl12  1  0.33333333  0.66666667  0.06108467  1
  Cl  Cl13  1  0.33333333  0.66666667  0.27224867  1
  Cl  Cl14  1  0.00000000  0.00000000  0.39441800  1
  Cl  Cl15  1  0.00000000  0.00000000  0.60558200  1
  Cl  Cl16  1  0.66666667  0.33333333  0.72775133  1
  Cl  Cl17  1  0.66666667  0.33333333  0.93891533  1
