# generated using pymatgen
data_Rb3YCl6
_symmetry_space_group_name_H-M   'P 1'
_cell_length_a   26.18122000
_cell_length_b   8.02201000
_cell_length_c   13.07278725
_cell_angle_alpha   90.00000000
_cell_angle_beta   99.50634026
_cell_angle_gamma   90.00000000
_symmetry_Int_Tables_number   1
_chemical_formula_structural   Rb3YCl6
_chemical_formula_sum   'Rb24 Y8 Cl48'
_cell_volume   2707.92056639
_cell_formula_units_Z   8
loop_
 _symmetry_equiv_pos_site_id
 _symmetry_equiv_pos_as_xyz
  1  'x, y, z'
loop_
 _atom_site_type_symbol
 _atom_site_label
 _atom_site_symmetry_multiplicity
 _atom_site_fract_x
 _atom_site_fract_y
 _atom_site_fract_z
 _atom_site_occupancy
  Rb  Rb0  1  0.54969450  0.24456850  0.93337300  1
  Rb  Rb1  1  0.83686600  0.81212700  0.19479400  1
  Rb  Rb2  1  0.84655500  0.31524600  0.35350700  1
  Rb  Rb3  1  0.54969450  0.75543150  0.43337300  1
  Rb  Rb4  1  0.65344500  0.81524600  0.14649300  1
  Rb  Rb5  1  0.84655500  0.68475400  0.85350700  1
  Rb  Rb6  1  0.95030550  0.25543150  0.06662700  1
  Rb  Rb7  1  0.95030550  0.74456850  0.56662700  1
  Rb  Rb8  1  0.83686600  0.18787300  0.69479400  1
  Rb  Rb9  1  0.66313400  0.68787300  0.80520600  1
  Rb  Rb10  1  0.66313400  0.31212700  0.30520600  1
  Rb  Rb11  1  0.65344500  0.18475400  0.64649300  1
  Rb  Rb12  1  0.04969450  0.74456850  0.93337300  1
  Rb  Rb13  1  0.33686600  0.31212700  0.19479400  1
  Rb  Rb14  1  0.34655500  0.81524600  0.35350700  1
  Rb  Rb15  1  0.04969450  0.25543150  0.43337300  1
  Rb  Rb16  1  0.15344500  0.31524600  0.14649300  1
  Rb  Rb17  1  0.34655500  0.18475400  0.85350700  1
  Rb  Rb18  1  0.45030550  0.75543150  0.06662700  1
  Rb  Rb19  1  0.45030550  0.24456850  0.56662700  1
  Rb  Rb20  1  0.33686600  0.68787300  0.69479400  1
  Rb  Rb21  1  0.16313400  0.18787300  0.80520600  1
  Rb  Rb22  1  0.16313400  0.81212700  0.30520600  1
  Rb  Rb23  1  0.15344500  0.68475400  0.64649300  1
  Y  Y24  1  0.00000000  0.79150300  0.25000000  1
  Y  Y25  1  0.00000000  0.20849700  0.75000000  1
  Y  Y26  1  0.75000000  0.25000000  0.00000000  1
  Y  Y27  1  0.75000000  0.75000000  0.50000000  1
  Y  Y28  1  0.50000000  0.29150300  0.25000000  1
  Y  Y29  1  0.50000000  0.70849700  0.75000000  1
  Y  Y30  1  0.25000000  0.75000000  0.00000000  1
  Y  Y31  1  0.25000000  0.25000000  0.50000000  1
  Cl  Cl32  1  0.82981650  0.55510650  0.57733600  1
  Cl  Cl33  1  0.56006500  0.06530600  0.18058700  1
  Cl  Cl34  1  0.82012700  0.02934900  0.96580400  1
  Cl  Cl35  1  0.56006500  0.93469400  0.68058700  1
  Cl  Cl36  1  0.74924000  0.11357700  0.18657000  1
  Cl  Cl37  1  0.67987300  0.47065100  0.03419600  1
  Cl  Cl38  1  0.67987300  0.52934900  0.53419600  1
  Cl  Cl39  1  0.93993500  0.43469400  0.81941300  1
  Cl  Cl40  1  0.56091450  0.53781950  0.20408100  1
  Cl  Cl41  1  0.93908550  0.03781950  0.29591900  1
  Cl  Cl42  1  0.82981650  0.44489350  0.07733600  1
  Cl  Cl43  1  0.75076000  0.61357700  0.31343000  1
  Cl  Cl44  1  0.67018350  0.94489350  0.42266400  1
  Cl  Cl45  1  0.82012700  0.97065100  0.46580400  1
  Cl  Cl46  1  0.93993500  0.56530600  0.31941300  1
  Cl  Cl47  1  0.94400100  0.78006300  0.06329900  1
  Cl  Cl48  1  0.94400100  0.21993700  0.56329900  1
  Cl  Cl49  1  0.55599900  0.28006300  0.43670100  1
  Cl  Cl50  1  0.75076000  0.38642300  0.81343000  1
  Cl  Cl51  1  0.56091450  0.46218050  0.70408100  1
  Cl  Cl52  1  0.93908550  0.96218050  0.79591900  1
  Cl  Cl53  1  0.55599900  0.71993700  0.93670100  1
  Cl  Cl54  1  0.67018350  0.05510650  0.92266400  1
  Cl  Cl55  1  0.74924000  0.88642300  0.68657000  1
  Cl  Cl56  1  0.32981650  0.05510650  0.57733600  1
  Cl  Cl57  1  0.06006500  0.56530600  0.18058700  1
  Cl  Cl58  1  0.32012700  0.52934900  0.96580400  1
  Cl  Cl59  1  0.06006500  0.43469400  0.68058700  1
  Cl  Cl60  1  0.24924000  0.61357700  0.18657000  1
  Cl  Cl61  1  0.17987300  0.97065100  0.03419600  1
  Cl  Cl62  1  0.17987300  0.02934900  0.53419600  1
  Cl  Cl63  1  0.43993500  0.93469400  0.81941300  1
  Cl  Cl64  1  0.06091450  0.03781950  0.20408100  1
  Cl  Cl65  1  0.43908550  0.53781950  0.29591900  1
  Cl  Cl66  1  0.32981650  0.94489350  0.07733600  1
  Cl  Cl67  1  0.25076000  0.11357700  0.31343000  1
  Cl  Cl68  1  0.17018350  0.44489350  0.42266400  1
  Cl  Cl69  1  0.32012700  0.47065100  0.46580400  1
  Cl  Cl70  1  0.43993500  0.06530600  0.31941300  1
  Cl  Cl71  1  0.44400100  0.28006300  0.06329900  1
  Cl  Cl72  1  0.44400100  0.71993700  0.56329900  1
  Cl  Cl73  1  0.05599900  0.78006300  0.43670100  1
  Cl  Cl74  1  0.25076000  0.88642300  0.81343000  1
  Cl  Cl75  1  0.06091450  0.96218050  0.70408100  1
  Cl  Cl76  1  0.43908550  0.46218050  0.79591900  1
  Cl  Cl77  1  0.05599900  0.21993700  0.93670100  1
  Cl  Cl78  1  0.17018350  0.55510650  0.92266400  1
  Cl  Cl79  1  0.24924000  0.38642300  0.68657000  1
