# generated using pymatgen
data_CaCrF5
_symmetry_space_group_name_H-M   'P 1'
_cell_length_a   9.09536400
_cell_length_b   6.57530000
_cell_length_c   7.68024469
_cell_angle_alpha   90.00000000
_cell_angle_beta   115.10912513
_cell_angle_gamma   90.00000000
_symmetry_Int_Tables_number   1
_chemical_formula_structural   CaCrF5
_chemical_formula_sum   'Ca4 Cr4 F20'
_cell_volume   415.91037804
_cell_formula_units_Z   4
loop_
 _symmetry_equiv_pos_site_id
 _symmetry_equiv_pos_as_xyz
  1  'x, y, z'
loop_
 _atom_site_type_symbol
 _atom_site_label
 _atom_site_symmetry_multiplicity
 _atom_site_fract_x
 _atom_site_fract_y
 _atom_site_fract_z
 _atom_site_occupancy
  Ca  Ca0  1  0.00000000  0.54210100  0.75000000  1
  Ca  Ca1  1  0.00000000  0.45789900  0.25000000  1
  Ca  Ca2  1  0.50000000  0.04210100  0.75000000  1
  Ca  Ca3  1  0.50000000  0.95789900  0.25000000  1
  Cr  Cr4  1  0.00000000  0.00000000  0.00000000  1
  Cr  Cr5  1  0.00000000  0.00000000  0.50000000  1
  Cr  Cr6  1  0.50000000  0.50000000  0.00000000  1
  Cr  Cr7  1  0.50000000  0.50000000  0.50000000  1
  F  F8  1  0.73129400  0.52090400  0.61945500  1
  F  F9  1  0.26870600  0.52090400  0.88054500  1
  F  F10  1  0.26870600  0.47909600  0.38054500  1
  F  F11  1  0.73129400  0.47909600  0.11945500  1
  F  F12  1  0.00000000  0.92303000  0.75000000  1
  F  F13  1  0.00000000  0.07697000  0.25000000  1
  F  F14  1  0.98853300  0.70624300  0.02860200  1
  F  F15  1  0.01146700  0.70624300  0.47139800  1
  F  F16  1  0.01146700  0.29375700  0.97139800  1
  F  F17  1  0.98853300  0.29375700  0.52860200  1
  F  F18  1  0.23129400  0.02090400  0.61945500  1
  F  F19  1  0.76870600  0.02090400  0.88054500  1
  F  F20  1  0.76870600  0.97909600  0.38054500  1
  F  F21  1  0.23129400  0.97909600  0.11945500  1
  F  F22  1  0.50000000  0.42303000  0.75000000  1
  F  F23  1  0.50000000  0.57697000  0.25000000  1
  F  F24  1  0.48853300  0.20624300  0.02860200  1
  F  F25  1  0.51146700  0.20624300  0.47139800  1
  F  F26  1  0.51146700  0.79375700  0.97139800  1
  F  F27  1  0.48853300  0.79375700  0.52860200  1
