# generated using pymatgen
data_SrZnF4
_symmetry_space_group_name_H-M   'P 1'
_cell_length_a   5.53616800
_cell_length_b   5.53616800
_cell_length_c   11.86695400
_cell_angle_alpha   90.00000000
_cell_angle_beta   90.00000000
_cell_angle_gamma   90.00000000
_symmetry_Int_Tables_number   1
_chemical_formula_structural   SrZnF4
_chemical_formula_sum   'Sr4 Zn4 F16'
_cell_volume   363.71212586
_cell_formula_units_Z   4
loop_
 _symmetry_equiv_pos_site_id
 _symmetry_equiv_pos_as_xyz
  1  'x, y, z'
loop_
 _atom_site_type_symbol
 _atom_site_label
 _atom_site_symmetry_multiplicity
 _atom_site_fract_x
 _atom_site_fract_y
 _atom_site_fract_z
 _atom_site_occupancy
  Sr  Sr0  1  0.00000000  0.50000000  0.25000000  1
  Sr  Sr1  1  0.00000000  0.00000000  0.00000000  1
  Sr  Sr2  1  0.50000000  0.00000000  0.75000000  1
  Sr  Sr3  1  0.50000000  0.50000000  0.50000000  1
  Zn  Zn4  1  0.50000000  0.00000000  0.25000000  1
  Zn  Zn5  1  0.50000000  0.50000000  0.00000000  1
  Zn  Zn6  1  0.00000000  0.50000000  0.75000000  1
  Zn  Zn7  1  0.00000000  0.00000000  0.50000000  1
  F  F8  1  0.75768150  0.33868450  0.08365450  1
  F  F9  1  0.33868450  0.74231850  0.33365450  1
  F  F10  1  0.66131550  0.25768150  0.33365450  1
  F  F11  1  0.24231850  0.66131550  0.08365450  1
  F  F12  1  0.75768150  0.83868450  0.16634550  1
  F  F13  1  0.83868450  0.74231850  0.41634550  1
  F  F14  1  0.16131550  0.25768150  0.41634550  1
  F  F15  1  0.24231850  0.16131550  0.16634550  1
  F  F16  1  0.25768150  0.83868450  0.58365450  1
  F  F17  1  0.83868450  0.24231850  0.83365450  1
  F  F18  1  0.16131550  0.75768150  0.83365450  1
  F  F19  1  0.74231850  0.16131550  0.58365450  1
  F  F20  1  0.25768150  0.33868450  0.66634550  1
  F  F21  1  0.33868450  0.24231850  0.91634550  1
  F  F22  1  0.66131550  0.75768150  0.91634550  1
  F  F23  1  0.74231850  0.66131550  0.66634550  1
