# generated using pymatgen
data_SrBiIO2
_symmetry_space_group_name_H-M   'P 1'
_cell_length_a   5.95006400
_cell_length_b   13.86717600
_cell_length_c   5.82327000
_cell_angle_alpha   90.00000000
_cell_angle_beta   90.00000000
_cell_angle_gamma   90.00000000
_symmetry_Int_Tables_number   1
_chemical_formula_structural   SrBiIO2
_chemical_formula_sum   'Sr4 Bi4 I4 O8'
_cell_volume   480.48141256
_cell_formula_units_Z   4
loop_
 _symmetry_equiv_pos_site_id
 _symmetry_equiv_pos_as_xyz
  1  'x, y, z'
loop_
 _atom_site_type_symbol
 _atom_site_label
 _atom_site_symmetry_multiplicity
 _atom_site_fract_x
 _atom_site_fract_y
 _atom_site_fract_z
 _atom_site_occupancy
  Sr  Sr0  1  0.00000000  0.09292200  0.25000000  1
  Sr  Sr1  1  0.50000000  0.40707800  0.75000000  1
  Sr  Sr2  1  0.50000000  0.59292200  0.25000000  1
  Sr  Sr3  1  0.00000000  0.90707800  0.75000000  1
  Bi  Bi4  1  0.00000000  0.42709300  0.25000000  1
  Bi  Bi5  1  0.50000000  0.07290700  0.75000000  1
  Bi  Bi6  1  0.50000000  0.92709300  0.25000000  1
  Bi  Bi7  1  0.00000000  0.57290700  0.75000000  1
  I  I8  1  0.50000000  0.25509800  0.25000000  1
  I  I9  1  0.00000000  0.24490200  0.75000000  1
  I  I10  1  0.00000000  0.75509800  0.25000000  1
  I  I11  1  0.50000000  0.74490200  0.75000000  1
  O  O12  1  0.26727300  0.00000000  0.50000000  1
  O  O13  1  0.26727300  0.00000000  0.00000000  1
  O  O14  1  0.73272700  0.00000000  0.00000000  1
  O  O15  1  0.73272700  0.00000000  0.50000000  1
  O  O16  1  0.76727300  0.50000000  0.50000000  1
  O  O17  1  0.76727300  0.50000000  0.00000000  1
  O  O18  1  0.23272700  0.50000000  0.00000000  1
  O  O19  1  0.23272700  0.50000000  0.50000000  1
