# generated using pymatgen
data_SmSI
_symmetry_space_group_name_H-M   'P 1'
_cell_length_a   4.60600804
_cell_length_b   4.60600804
_cell_length_c   33.41600419
_cell_angle_alpha   90.00000000
_cell_angle_beta   90.00000000
_cell_angle_gamma   120.00000000
_symmetry_Int_Tables_number   1
_chemical_formula_structural   SmSI
_chemical_formula_sum   'Sm6 S6 I6'
_cell_volume   613.95216162
_cell_formula_units_Z   6
loop_
 _symmetry_equiv_pos_site_id
 _symmetry_equiv_pos_as_xyz
  1  'x, y, z'
loop_
 _atom_site_type_symbol
 _atom_site_label
 _atom_site_symmetry_multiplicity
 _atom_site_fract_x
 _atom_site_fract_y
 _atom_site_fract_z
 _atom_site_occupancy
  Sm  Sm0  1  0.33333333  0.66666667  0.28007567  1
  Sm  Sm1  1  0.33333333  0.66666667  0.05325767  1
  Sm  Sm2  1  0.00000000  0.00000000  0.61340900  1
  Sm  Sm3  1  0.00000000  0.00000000  0.38659100  1
  Sm  Sm4  1  0.66666667  0.33333333  0.94674233  1
  Sm  Sm5  1  0.66666667  0.33333333  0.71992433  1
  S  S6  1  0.66666667  0.33333333  0.03139333  1
  S  S7  1  0.00000000  0.00000000  0.30194000  1
  S  S8  1  0.33333333  0.66666667  0.36472667  1
  S  S9  1  0.66666667  0.33333333  0.63527333  1
  S  S10  1  0.00000000  0.00000000  0.69806000  1
  S  S11  1  0.33333333  0.66666667  0.96860667  1
  I  I12  1  0.66666667  0.33333333  0.22011533  1
  I  I13  1  0.00000000  0.00000000  0.11321800  1
  I  I14  1  0.33333333  0.66666667  0.55344867  1
  I  I15  1  0.66666667  0.33333333  0.44655133  1
  I  I16  1  0.00000000  0.00000000  0.88678200  1
  I  I17  1  0.33333333  0.66666667  0.77988467  1
