# generated using pymatgen
data_NaTiP2O7
_symmetry_space_group_name_H-M   'P 1'
_cell_length_a   8.81078000
_cell_length_b   5.31362300
_cell_length_c   13.50745861
_cell_angle_alpha   90.00000000
_cell_angle_beta   116.92938865
_cell_angle_gamma   90.00000000
_symmetry_Int_Tables_number   1
_chemical_formula_structural   NaTiP2O7
_chemical_formula_sum   'Na4 Ti4 P8 O28'
_cell_volume   563.80889095
_cell_formula_units_Z   4
loop_
 _symmetry_equiv_pos_site_id
 _symmetry_equiv_pos_as_xyz
  1  'x, y, z'
loop_
 _atom_site_type_symbol
 _atom_site_label
 _atom_site_symmetry_multiplicity
 _atom_site_fract_x
 _atom_site_fract_y
 _atom_site_fract_z
 _atom_site_occupancy
  Na  Na0  1  0.44638800  0.22961400  0.81020300  1
  Na  Na1  1  0.44638800  0.27038600  0.31020300  1
  Na  Na2  1  0.55361200  0.77038600  0.18979700  1
  Na  Na3  1  0.55361200  0.72961400  0.68979700  1
  Ti  Ti4  1  0.73726000  0.73567100  0.47128900  1
  Ti  Ti5  1  0.26274000  0.23567100  0.02871100  1
  Ti  Ti6  1  0.26274000  0.26432900  0.52871100  1
  Ti  Ti7  1  0.73726000  0.76432900  0.97128900  1
  P  P8  1  0.31651700  0.77832000  0.38470900  1
  P  P9  1  0.68348300  0.22168000  0.61529100  1
  P  P10  1  0.68348300  0.27832000  0.11529100  1
  P  P11  1  0.83289000  0.24465600  0.85474400  1
  P  P12  1  0.83289000  0.25534400  0.35474400  1
  P  P13  1  0.16711000  0.75534400  0.14525600  1
  P  P14  1  0.16711000  0.74465600  0.64525600  1
  P  P15  1  0.31651700  0.72168000  0.88470900  1
  O  O16  1  0.70531800  0.09652500  0.03651600  1
  O  O17  1  0.29468200  0.59652500  0.46348400  1
  O  O18  1  0.69292200  0.94392500  0.58849700  1
  O  O19  1  0.70531800  0.40347500  0.53651600  1
  O  O20  1  0.98149100  0.75603400  0.55822200  1
  O  O21  1  0.74840200  0.51250200  0.34685400  1
  O  O22  1  0.16104300  0.71869800  0.26291000  1
  O  O23  1  0.30707800  0.44392500  0.91150300  1
  O  O24  1  0.25159800  0.01250200  0.15314600  1
  O  O25  1  0.29468200  0.90347500  0.96348400  1
  O  O26  1  0.98149100  0.74396600  0.05822200  1
  O  O27  1  0.72590600  0.45997900  0.86568300  1
  O  O28  1  0.74840200  0.98749800  0.84685400  1
  O  O29  1  0.69292200  0.55607500  0.08849700  1
  O  O30  1  0.52105200  0.27387800  0.62918100  1
  O  O31  1  0.47894800  0.72612200  0.37081900  1
  O  O32  1  0.47894800  0.77387800  0.87081900  1
  O  O33  1  0.30707800  0.05607500  0.41150300  1
  O  O34  1  0.72590600  0.04002100  0.36568300  1
  O  O35  1  0.52105200  0.22612200  0.12918100  1
  O  O36  1  0.01850900  0.25603400  0.94177800  1
  O  O37  1  0.27409400  0.95997900  0.63431700  1
  O  O38  1  0.16104300  0.78130200  0.76291000  1
  O  O39  1  0.83895700  0.21869800  0.23709000  1
  O  O40  1  0.27409400  0.54002100  0.13431700  1
  O  O41  1  0.25159800  0.48749800  0.65314600  1
  O  O42  1  0.01850900  0.24396600  0.44177800  1
  O  O43  1  0.83895700  0.28130200  0.73709000  1
