# generated using pymatgen
data_Ba3SnP3
_symmetry_space_group_name_H-M   'P 1'
_cell_length_a   8.70391300
_cell_length_b   12.86928000
_cell_length_c   8.92463189
_cell_angle_alpha   90.00000000
_cell_angle_beta   114.26993138
_cell_angle_gamma   90.00000000
_symmetry_Int_Tables_number   1
_chemical_formula_structural   Ba3SnP3
_chemical_formula_sum   'Ba12 Sn4 P12'
_cell_volume   911.32340689
_cell_formula_units_Z   4
loop_
 _symmetry_equiv_pos_site_id
 _symmetry_equiv_pos_as_xyz
  1  'x, y, z'
loop_
 _atom_site_type_symbol
 _atom_site_label
 _atom_site_symmetry_multiplicity
 _atom_site_fract_x
 _atom_site_fract_y
 _atom_site_fract_z
 _atom_site_occupancy
  Ba  Ba0  1  0.20106000  0.93062900  0.73051800  1
  Ba  Ba1  1  0.29894000  0.43062900  0.26948200  1
  Ba  Ba2  1  0.79894000  0.06937100  0.26948200  1
  Ba  Ba3  1  0.70106000  0.56937100  0.73051800  1
  Ba  Ba4  1  0.67799700  0.79371200  0.05761800  1
  Ba  Ba5  1  0.82200300  0.29371200  0.94238200  1
  Ba  Ba6  1  0.32200300  0.20628800  0.94238200  1
  Ba  Ba7  1  0.17799700  0.70628800  0.05761800  1
  Ba  Ba8  1  0.00805000  0.33442000  0.50171300  1
  Ba  Ba9  1  0.49195000  0.83442000  0.49828700  1
  Ba  Ba10  1  0.99195000  0.66558000  0.49828700  1
  Ba  Ba11  1  0.50805000  0.16558000  0.50171300  1
  Sn  Sn12  1  0.13860100  0.00625000  0.16563800  1
  Sn  Sn13  1  0.36139900  0.50625000  0.83436200  1
  Sn  Sn14  1  0.86139900  0.99375000  0.83436200  1
  Sn  Sn15  1  0.63860100  0.49375000  0.16563800  1
  P  P16  1  0.87542800  0.80298000  0.75577700  1
  P  P17  1  0.62457200  0.30298000  0.24422300  1
  P  P18  1  0.12457200  0.19702000  0.24422300  1
  P  P19  1  0.37542800  0.69702000  0.75577700  1
  P  P20  1  0.58061500  0.03085700  0.84154100  1
  P  P21  1  0.91938500  0.53085700  0.15845900  1
  P  P22  1  0.41938500  0.96914300  0.15845900  1
  P  P23  1  0.08061500  0.46914300  0.84154100  1
  P  P24  1  0.56651900  0.63228800  0.33289200  1
  P  P25  1  0.93348100  0.13228800  0.66710800  1
  P  P26  1  0.43348100  0.36771200  0.66710800  1
  P  P27  1  0.06651900  0.86771200  0.33289200  1
