# generated using pymatgen
data_Si6Cl10O7
_symmetry_space_group_name_H-M   'P 1'
_cell_length_a   6.45488300
_cell_length_b   21.40350000
_cell_length_c   8.63825126
_cell_angle_alpha   90.00000000
_cell_angle_beta   99.28449863
_cell_angle_gamma   90.00000000
_symmetry_Int_Tables_number   1
_chemical_formula_structural   Si6Cl10O7
_chemical_formula_sum   'Si12 Cl20 O14'
_cell_volume   1177.80092103
_cell_formula_units_Z   2
loop_
 _symmetry_equiv_pos_site_id
 _symmetry_equiv_pos_as_xyz
  1  'x, y, z'
loop_
 _atom_site_type_symbol
 _atom_site_label
 _atom_site_symmetry_multiplicity
 _atom_site_fract_x
 _atom_site_fract_y
 _atom_site_fract_z
 _atom_site_occupancy
  Si  Si0  1  0.21735500  0.25000000  0.61860200  1
  Si  Si1  1  0.78264500  0.75000000  0.38139800  1
  Si  Si2  1  0.00740500  0.38111300  0.55074100  1
  Si  Si3  1  0.99259500  0.88111300  0.44925900  1
  Si  Si4  1  0.99259500  0.61888700  0.44925900  1
  Si  Si5  1  0.00740500  0.11888700  0.55074100  1
  Si  Si6  1  0.12464400  0.37910800  0.20182300  1
  Si  Si7  1  0.87535600  0.87910800  0.79817700  1
  Si  Si8  1  0.87535600  0.62089200  0.79817700  1
  Si  Si9  1  0.12464400  0.12089200  0.20182300  1
  Si  Si10  1  0.35008500  0.25000000  0.27885300  1
  Si  Si11  1  0.64991500  0.75000000  0.72114700  1
  Cl  Cl12  1  0.44119200  0.25000000  0.81224300  1
  Cl  Cl13  1  0.55880800  0.75000000  0.18775700  1
  Cl  Cl14  1  0.69801100  0.39577500  0.55582400  1
  Cl  Cl15  1  0.30198900  0.89577500  0.44417600  1
  Cl  Cl16  1  0.30198900  0.60422500  0.44417600  1
  Cl  Cl17  1  0.69801100  0.10422500  0.55582400  1
  Cl  Cl18  1  0.17950700  0.44613500  0.68685400  1
  Cl  Cl19  1  0.82049300  0.94613500  0.31314600  1
  Cl  Cl20  1  0.82049300  0.55386500  0.31314600  1
  Cl  Cl21  1  0.17950700  0.05386500  0.68685400  1
  Cl  Cl22  1  0.32605500  0.44849400  0.16707500  1
  Cl  Cl23  1  0.67394500  0.94849400  0.83292500  1
  Cl  Cl24  1  0.67394500  0.55150600  0.83292500  1
  Cl  Cl25  1  0.32605500  0.05150600  0.16707500  1
  Cl  Cl26  1  0.86890100  0.38280500  0.03158500  1
  Cl  Cl27  1  0.13109900  0.88280500  0.96841500  1
  Cl  Cl28  1  0.13109900  0.61719500  0.96841500  1
  Cl  Cl29  1  0.86890100  0.11719500  0.03158500  1
  Cl  Cl30  1  0.65879500  0.25000000  0.25688800  1
  Cl  Cl31  1  0.34120500  0.75000000  0.74311200  1
  O  O32  1  0.33149000  0.25000000  0.46389700  1
  O  O33  1  0.66851000  0.75000000  0.53610300  1
  O  O34  1  0.06965400  0.31158200  0.61874100  1
  O  O35  1  0.93034600  0.81158200  0.38125900  1
  O  O36  1  0.93034600  0.68841800  0.38125900  1
  O  O37  1  0.06965400  0.18841800  0.61874100  1
  O  O38  1  0.05272900  0.38757400  0.37214700  1
  O  O39  1  0.94727100  0.88757400  0.62785300  1
  O  O40  1  0.94727100  0.61242600  0.62785300  1
  O  O41  1  0.05272900  0.11242600  0.37214700  1
  O  O42  1  0.23868700  0.31166900  0.19295800  1
  O  O43  1  0.76131300  0.81166900  0.80704200  1
  O  O44  1  0.76131300  0.68833100  0.80704200  1
  O  O45  1  0.23868700  0.18833100  0.19295800  1
