# generated using pymatgen
data_Fe2(TeO3)3
_symmetry_space_group_name_H-M   'P 1'
_cell_length_a   7.63185500
_cell_length_b   9.65660000
_cell_length_c   11.23929700
_cell_angle_alpha   90.00000000
_cell_angle_beta   90.00000000
_cell_angle_gamma   90.00000000
_symmetry_Int_Tables_number   1
_chemical_formula_structural   Fe2(TeO3)3
_chemical_formula_sum   'Fe8 Te12 O36'
_cell_volume   828.31113643
_cell_formula_units_Z   4
loop_
 _symmetry_equiv_pos_site_id
 _symmetry_equiv_pos_as_xyz
  1  'x, y, z'
loop_
 _atom_site_type_symbol
 _atom_site_label
 _atom_site_symmetry_multiplicity
 _atom_site_fract_x
 _atom_site_fract_y
 _atom_site_fract_z
 _atom_site_occupancy
  Fe  Fe0  1  0.05574100  0.22689400  0.94097300  1
  Fe  Fe1  1  0.44425900  0.72689400  0.55902700  1
  Fe  Fe2  1  0.05574100  0.72689400  0.55902700  1
  Fe  Fe3  1  0.55574100  0.27310600  0.44097300  1
  Fe  Fe4  1  0.55574100  0.77310600  0.05902700  1
  Fe  Fe5  1  0.94425900  0.27310600  0.44097300  1
  Fe  Fe6  1  0.94425900  0.77310600  0.05902700  1
  Fe  Fe7  1  0.44425900  0.22689400  0.94097300  1
  Te  Te8  1  0.25000000  0.89055400  0.82319300  1
  Te  Te9  1  0.75000000  0.96692700  0.83600600  1
  Te  Te10  1  0.75000000  0.45910900  0.01118500  1
  Te  Te11  1  0.75000000  0.46692700  0.66399400  1
  Te  Te12  1  0.25000000  0.39055400  0.67680700  1
  Te  Te13  1  0.75000000  0.10944600  0.17680700  1
  Te  Te14  1  0.75000000  0.60944600  0.32319300  1
  Te  Te15  1  0.25000000  0.53307300  0.33600600  1
  Te  Te16  1  0.25000000  0.04089100  0.51118500  1
  Te  Te17  1  0.25000000  0.54089100  0.98881500  1
  Te  Te18  1  0.25000000  0.03307300  0.16399400  1
  Te  Te19  1  0.75000000  0.95910900  0.48881500  1
  O  O20  1  0.06670200  0.59798900  0.09561000  1
  O  O21  1  0.06278600  0.90847300  0.15650700  1
  O  O22  1  0.25000000  0.26191200  0.81052500  1
  O  O23  1  0.06513400  0.80025100  0.90370700  1
  O  O24  1  0.56278600  0.09152700  0.84349300  1
  O  O25  1  0.75000000  0.73808800  0.18947500  1
  O  O26  1  0.43329800  0.09798900  0.40439000  1
  O  O27  1  0.06278600  0.40847300  0.34349300  1
  O  O28  1  0.93721400  0.59152700  0.65650700  1
  O  O29  1  0.93721400  0.09152700  0.84349300  1
  O  O30  1  0.75000000  0.64937100  0.96314800  1
  O  O31  1  0.25000000  0.57871300  0.50920600  1
  O  O32  1  0.93329800  0.40201100  0.90439000  1
  O  O33  1  0.56513400  0.69974900  0.40370700  1
  O  O34  1  0.56670200  0.40201100  0.90439000  1
  O  O35  1  0.43329800  0.59798900  0.09561000  1
  O  O36  1  0.56278600  0.59152700  0.65650700  1
  O  O37  1  0.25000000  0.85062900  0.46314800  1
  O  O38  1  0.75000000  0.42128700  0.49079400  1
  O  O39  1  0.43721400  0.40847300  0.34349300  1
  O  O40  1  0.06670200  0.09798900  0.40439000  1
  O  O41  1  0.25000000  0.35062900  0.03685200  1
  O  O42  1  0.75000000  0.23808800  0.31052500  1
  O  O43  1  0.75000000  0.92128700  0.00920600  1
  O  O44  1  0.43486600  0.30025100  0.59629300  1
  O  O45  1  0.93329800  0.90201100  0.59561000  1
  O  O46  1  0.25000000  0.07871300  0.99079400  1
  O  O47  1  0.43486600  0.80025100  0.90370700  1
  O  O48  1  0.56513400  0.19974900  0.09629300  1
  O  O49  1  0.93486600  0.69974900  0.40370700  1
  O  O50  1  0.25000000  0.76191200  0.68947500  1
  O  O51  1  0.56670200  0.90201100  0.59561000  1
  O  O52  1  0.75000000  0.14937100  0.53685200  1
  O  O53  1  0.43721400  0.90847300  0.15650700  1
  O  O54  1  0.93486600  0.19974900  0.09629300  1
  O  O55  1  0.06513400  0.30025100  0.59629300  1
