# generated using pymatgen
data_LiEr(PO3)4
_symmetry_space_group_name_H-M   'P 1'
_cell_length_a   16.36299600
_cell_length_b   7.11256000
_cell_length_c   9.62577903
_cell_angle_alpha   90.00000000
_cell_angle_beta   125.91505980
_cell_angle_gamma   90.00000000
_symmetry_Int_Tables_number   1
_chemical_formula_structural   LiEr(PO3)4
_chemical_formula_sum   'Li4 Er4 P16 O48'
_cell_volume   907.29672799
_cell_formula_units_Z   4
loop_
 _symmetry_equiv_pos_site_id
 _symmetry_equiv_pos_as_xyz
  1  'x, y, z'
loop_
 _atom_site_type_symbol
 _atom_site_label
 _atom_site_symmetry_multiplicity
 _atom_site_fract_x
 _atom_site_fract_y
 _atom_site_fract_z
 _atom_site_occupancy
  Li  Li0  1  0.00000000  0.29343400  0.75000000  1
  Li  Li1  1  0.00000000  0.70656600  0.25000000  1
  Li  Li2  1  0.50000000  0.79343400  0.75000000  1
  Li  Li3  1  0.50000000  0.20656600  0.25000000  1
  Er  Er4  1  0.00000000  0.79677400  0.75000000  1
  Er  Er5  1  0.00000000  0.20322600  0.25000000  1
  Er  Er6  1  0.50000000  0.29677400  0.75000000  1
  Er  Er7  1  0.50000000  0.70322600  0.25000000  1
  P  P8  1  0.64530700  0.35110100  0.19311800  1
  P  P9  1  0.36327500  0.05029500  0.88373100  1
  P  P10  1  0.85469300  0.85110100  0.30688200  1
  P  P11  1  0.63672500  0.94970500  0.11626900  1
  P  P12  1  0.35469300  0.64889900  0.80688200  1
  P  P13  1  0.86327500  0.44970500  0.38373100  1
  P  P14  1  0.13672500  0.55029500  0.61626900  1
  P  P15  1  0.14530700  0.14889900  0.69311800  1
  P  P16  1  0.14530700  0.85110100  0.19311800  1
  P  P17  1  0.86327500  0.55029500  0.88373100  1
  P  P18  1  0.35469300  0.35110100  0.30688200  1
  P  P19  1  0.13672500  0.44970500  0.11626900  1
  P  P20  1  0.85469300  0.14889900  0.80688200  1
  P  P21  1  0.36327500  0.94970500  0.38373100  1
  P  P22  1  0.63672500  0.05029500  0.61626900  1
  P  P23  1  0.64530700  0.64889900  0.69311800  1
  O  O24  1  0.92928650  0.91950550  0.27523400  1
  O  O25  1  0.93408550  0.50240750  0.07203100  1
  O  O26  1  0.75471050  0.42240150  0.34822800  1
  O  O27  1  0.06591450  0.49759250  0.92796900  1
  O  O28  1  0.11125300  0.71211700  0.68438900  1
  O  O29  1  0.12556100  0.11746500  0.52199100  1
  O  O30  1  0.06591450  0.50240750  0.42796900  1
  O  O31  1  0.74528950  0.92240150  0.15177200  1
  O  O32  1  0.62556100  0.38253500  0.02199100  1
  O  O33  1  0.15554950  0.37202150  0.73405100  1
  O  O34  1  0.84445050  0.62797850  0.26594900  1
  O  O35  1  0.92928650  0.08049450  0.77523400  1
  O  O36  1  0.25471050  0.07759850  0.84822800  1
  O  O37  1  0.34445050  0.87202150  0.76594900  1
  O  O38  1  0.87443900  0.88253500  0.47800900  1
  O  O39  1  0.93408550  0.49759250  0.57203100  1
  O  O40  1  0.65554950  0.12797850  0.23405100  1
  O  O41  1  0.24528950  0.57759850  0.65177200  1
  O  O42  1  0.88874700  0.28788300  0.31561100  1
  O  O43  1  0.07071350  0.08049450  0.72476600  1
  O  O44  1  0.37443900  0.61746500  0.97800900  1
  O  O45  1  0.07071350  0.91950550  0.22476600  1
  O  O46  1  0.61125300  0.78788300  0.18438900  1
  O  O47  1  0.38874700  0.21211700  0.81561100  1
  O  O48  1  0.42928650  0.41950550  0.27523400  1
  O  O49  1  0.43408550  0.00240750  0.07203100  1
  O  O50  1  0.25471050  0.92240150  0.34822800  1
  O  O51  1  0.56591450  0.99759250  0.92796900  1
  O  O52  1  0.61125300  0.21211700  0.68438900  1
  O  O53  1  0.62556100  0.61746500  0.52199100  1
  O  O54  1  0.56591450  0.00240750  0.42796900  1
  O  O55  1  0.24528950  0.42240150  0.15177200  1
  O  O56  1  0.12556100  0.88253500  0.02199100  1
  O  O57  1  0.65554950  0.87202150  0.73405100  1
  O  O58  1  0.34445050  0.12797850  0.26594900  1
  O  O59  1  0.42928650  0.58049450  0.77523400  1
  O  O60  1  0.75471050  0.57759850  0.84822800  1
  O  O61  1  0.84445050  0.37202150  0.76594900  1
  O  O62  1  0.37443900  0.38253500  0.47800900  1
  O  O63  1  0.43408550  0.99759250  0.57203100  1
  O  O64  1  0.15554950  0.62797850  0.23405100  1
  O  O65  1  0.74528950  0.07759850  0.65177200  1
  O  O66  1  0.38874700  0.78788300  0.31561100  1
  O  O67  1  0.57071350  0.58049450  0.72476600  1
  O  O68  1  0.87443900  0.11746500  0.97800900  1
  O  O69  1  0.57071350  0.41950550  0.22476600  1
  O  O70  1  0.11125300  0.28788300  0.18438900  1
  O  O71  1  0.88874700  0.71211700  0.81561100  1
