# generated using pymatgen
data_BaTeO3
_symmetry_space_group_name_H-M   'P 1'
_cell_length_a   6.23690500
_cell_length_b   12.51636000
_cell_length_c   15.19278200
_cell_angle_alpha   90.00000000
_cell_angle_beta   90.00000000
_cell_angle_gamma   90.00000000
_symmetry_Int_Tables_number   1
_chemical_formula_structural   BaTeO3
_chemical_formula_sum   'Ba12 Te12 O36'
_cell_volume   1185.99943239
_cell_formula_units_Z   12
loop_
 _symmetry_equiv_pos_site_id
 _symmetry_equiv_pos_as_xyz
  1  'x, y, z'
loop_
 _atom_site_type_symbol
 _atom_site_label
 _atom_site_symmetry_multiplicity
 _atom_site_fract_x
 _atom_site_fract_y
 _atom_site_fract_z
 _atom_site_occupancy
  Ba  Ba0  1  0.25000000  0.85794700  0.19374800  1
  Ba  Ba1  1  0.25000000  0.87243100  0.48435700  1
  Ba  Ba2  1  0.75000000  0.14205300  0.80625200  1
  Ba  Ba3  1  0.75000000  0.12756900  0.51564300  1
  Ba  Ba4  1  0.75000000  0.35794700  0.30625200  1
  Ba  Ba5  1  0.75000000  0.37243100  0.01564300  1
  Ba  Ba6  1  0.25000000  0.13638300  0.00495700  1
  Ba  Ba7  1  0.75000000  0.63638300  0.49504300  1
  Ba  Ba8  1  0.25000000  0.36361700  0.50495700  1
  Ba  Ba9  1  0.25000000  0.64205300  0.69374800  1
  Ba  Ba10  1  0.25000000  0.62756900  0.98435700  1
  Ba  Ba11  1  0.75000000  0.86361700  0.99504300  1
  Te  Te12  1  0.25000000  0.38526900  0.16158700  1
  Te  Te13  1  0.25000000  0.34760000  0.81548500  1
  Te  Te14  1  0.75000000  0.40278700  0.63786100  1
  Te  Te15  1  0.75000000  0.61473100  0.83841300  1
  Te  Te16  1  0.25000000  0.59721300  0.36213900  1
  Te  Te17  1  0.25000000  0.90278700  0.86213900  1
  Te  Te18  1  0.25000000  0.11473100  0.66158700  1
  Te  Te19  1  0.75000000  0.88526900  0.33841300  1
  Te  Te20  1  0.75000000  0.09721300  0.13786100  1
  Te  Te21  1  0.75000000  0.65240000  0.18451500  1
  Te  Te22  1  0.25000000  0.15240000  0.31548500  1
  Te  Te23  1  0.75000000  0.84760000  0.68451500  1
  O  O24  1  0.25000000  0.84546400  0.97697800  1
  O  O25  1  0.52312300  0.71227700  0.11640300  1
  O  O26  1  0.02018800  0.50021300  0.38288900  1
  O  O27  1  0.02312300  0.21227700  0.38359700  1
  O  O28  1  0.25000000  0.42630400  0.04336300  1
  O  O29  1  0.25000000  0.07369600  0.54336300  1
  O  O30  1  0.75000000  0.34546400  0.52302200  1
  O  O31  1  0.47981200  0.50021300  0.38288900  1
  O  O32  1  0.75000000  0.15453600  0.02302200  1
  O  O33  1  0.97687700  0.71227700  0.11640300  1
  O  O34  1  0.25000000  0.49496700  0.84209500  1
  O  O35  1  0.75000000  0.99496700  0.65790500  1
  O  O36  1  0.48222200  0.28759800  0.15691200  1
  O  O37  1  0.52018800  0.00021300  0.11711100  1
  O  O38  1  0.98222200  0.78759800  0.34308800  1
  O  O39  1  0.52312300  0.78772300  0.61640300  1
  O  O40  1  0.97981200  0.49978700  0.61711100  1
  O  O41  1  0.75000000  0.57369600  0.95663700  1
  O  O42  1  0.47687700  0.28772300  0.88359700  1
  O  O43  1  0.25000000  0.65453600  0.47697800  1
  O  O44  1  0.98222200  0.71240200  0.84308800  1
  O  O45  1  0.02018800  0.99978700  0.88288900  1
  O  O46  1  0.52018800  0.49978700  0.61711100  1
  O  O47  1  0.48222200  0.21240200  0.65691200  1
  O  O48  1  0.47687700  0.21227700  0.38359700  1
  O  O49  1  0.02312300  0.28772300  0.88359700  1
  O  O50  1  0.75000000  0.92630400  0.45663700  1
  O  O51  1  0.01777800  0.21240200  0.65691200  1
  O  O52  1  0.75000000  0.50503300  0.15790500  1
  O  O53  1  0.25000000  0.00503300  0.34209500  1
  O  O54  1  0.51777800  0.71240200  0.84308800  1
  O  O55  1  0.01777800  0.28759800  0.15691200  1
  O  O56  1  0.47981200  0.99978700  0.88288900  1
  O  O57  1  0.51777800  0.78759800  0.34308800  1
  O  O58  1  0.97687700  0.78772300  0.61640300  1
  O  O59  1  0.97981200  0.00021300  0.11711100  1
