# generated using pymatgen
data_AlBiSCl4
_symmetry_space_group_name_H-M   'P 1'
_cell_length_a   12.12805000
_cell_length_b   12.12805000
_cell_length_c   11.36519400
_cell_angle_alpha   90.00000000
_cell_angle_beta   90.00000000
_cell_angle_gamma   90.00000000
_symmetry_Int_Tables_number   1
_chemical_formula_structural   AlBiSCl4
_chemical_formula_sum   'Al8 Bi8 S8 Cl32'
_cell_volume   1671.70180304
_cell_formula_units_Z   8
loop_
 _symmetry_equiv_pos_site_id
 _symmetry_equiv_pos_as_xyz
  1  'x, y, z'
loop_
 _atom_site_type_symbol
 _atom_site_label
 _atom_site_symmetry_multiplicity
 _atom_site_fract_x
 _atom_site_fract_y
 _atom_site_fract_z
 _atom_site_occupancy
  Al  Al0  1  0.30483600  0.42511000  0.28581700  1
  Al  Al1  1  0.92511000  0.19516400  0.21418300  1
  Al  Al2  1  0.19516400  0.07489000  0.78581700  1
  Al  Al3  1  0.57489000  0.30483600  0.71418300  1
  Al  Al4  1  0.80483600  0.92511000  0.78581700  1
  Al  Al5  1  0.42511000  0.69516400  0.71418300  1
  Al  Al6  1  0.69516400  0.57489000  0.28581700  1
  Al  Al7  1  0.07489000  0.80483600  0.21418300  1
  Bi  Bi8  1  0.44000700  0.84790400  0.36738700  1
  Bi  Bi9  1  0.65209600  0.94000700  0.13261300  1
  Bi  Bi10  1  0.55999300  0.15209600  0.36738700  1
  Bi  Bi11  1  0.34790400  0.05999300  0.13261300  1
  Bi  Bi12  1  0.94000700  0.34790400  0.86738700  1
  Bi  Bi13  1  0.15209600  0.44000700  0.63261300  1
  Bi  Bi14  1  0.05999300  0.65209600  0.86738700  1
  Bi  Bi15  1  0.84790400  0.55999300  0.63261300  1
  S  S16  1  0.13882850  0.44589950  0.87220850  1
  S  S17  1  0.36117150  0.05410050  0.37220850  1
  S  S18  1  0.94589950  0.36117150  0.62779150  1
  S  S19  1  0.55410050  0.13882850  0.12779150  1
  S  S20  1  0.63882850  0.94589950  0.37220850  1
  S  S21  1  0.86117150  0.55410050  0.87220850  1
  S  S22  1  0.44589950  0.86117150  0.12779150  1
  S  S23  1  0.05410050  0.63882850  0.62779150  1
  Cl  Cl24  1  0.19932650  0.18436250  0.63481750  1
  Cl  Cl25  1  0.14182700  0.44630300  0.36699800  1
  Cl  Cl26  1  0.39856850  0.34369750  0.42379050  1
  Cl  Cl27  1  0.81563750  0.19932650  0.36518250  1
  Cl  Cl28  1  0.68436250  0.30067350  0.86518250  1
  Cl  Cl29  1  0.84369750  0.10143150  0.07620950  1
  Cl  Cl30  1  0.10143150  0.15630250  0.92379050  1
  Cl  Cl31  1  0.65630250  0.39856850  0.57620950  1
  Cl  Cl32  1  0.85817300  0.55369700  0.36699800  1
  Cl  Cl33  1  0.94630300  0.35817300  0.13300200  1
  Cl  Cl34  1  0.41886600  0.36499400  0.77049800  1
  Cl  Cl35  1  0.08113400  0.13500600  0.27049800  1
  Cl  Cl36  1  0.05369700  0.64182700  0.13300200  1
  Cl  Cl37  1  0.13500600  0.91886600  0.72950200  1
  Cl  Cl38  1  0.30067350  0.31563750  0.13481750  1
  Cl  Cl39  1  0.36499400  0.58113400  0.22950200  1
  Cl  Cl40  1  0.69932650  0.68436250  0.13481750  1
  Cl  Cl41  1  0.64182700  0.94630300  0.86699800  1
  Cl  Cl42  1  0.89856850  0.84369750  0.92379050  1
  Cl  Cl43  1  0.31563750  0.69932650  0.86518250  1
  Cl  Cl44  1  0.18436250  0.80067350  0.36518250  1
  Cl  Cl45  1  0.34369750  0.60143150  0.57620950  1
  Cl  Cl46  1  0.60143150  0.65630250  0.42379050  1
  Cl  Cl47  1  0.15630250  0.89856850  0.07620950  1
  Cl  Cl48  1  0.35817300  0.05369700  0.86699800  1
  Cl  Cl49  1  0.44630300  0.85817300  0.63300200  1
  Cl  Cl50  1  0.91886600  0.86499400  0.27049800  1
  Cl  Cl51  1  0.58113400  0.63500600  0.77049800  1
  Cl  Cl52  1  0.55369700  0.14182700  0.63300200  1
  Cl  Cl53  1  0.63500600  0.41886600  0.22950200  1
  Cl  Cl54  1  0.80067350  0.81563750  0.63481750  1
  Cl  Cl55  1  0.86499400  0.08113400  0.72950200  1
