# generated using pymatgen
data_MnSbS2Br
_symmetry_space_group_name_H-M   'P 1'
_cell_length_a   12.72571400
_cell_length_b   3.86265400
_cell_length_c   9.59898971
_cell_angle_alpha   90.00000000
_cell_angle_beta   91.45916925
_cell_angle_gamma   90.00000000
_symmetry_Int_Tables_number   1
_chemical_formula_structural   MnSbS2Br
_chemical_formula_sum   'Mn4 Sb4 S8 Br4'
_cell_volume   471.68562263
_cell_formula_units_Z   4
loop_
 _symmetry_equiv_pos_site_id
 _symmetry_equiv_pos_as_xyz
  1  'x, y, z'
loop_
 _atom_site_type_symbol
 _atom_site_label
 _atom_site_symmetry_multiplicity
 _atom_site_fract_x
 _atom_site_fract_y
 _atom_site_fract_z
 _atom_site_occupancy
  Mn  Mn0  1  0.00000000  0.00000000  0.00000000  1
  Mn  Mn1  1  0.00000000  0.00000000  0.50000000  1
  Mn  Mn2  1  0.50000000  0.50000000  0.00000000  1
  Mn  Mn3  1  0.50000000  0.50000000  0.50000000  1
  Sb  Sb4  1  0.78964200  0.50000000  0.19056600  1
  Sb  Sb5  1  0.71035800  0.00000000  0.80943400  1
  Sb  Sb6  1  0.28964200  0.00000000  0.19056600  1
  Sb  Sb7  1  0.21035800  0.50000000  0.80943400  1
  S  S8  1  0.86205000  0.50000000  0.94951700  1
  S  S9  1  0.92548500  0.00000000  0.24244100  1
  S  S10  1  0.63795000  0.00000000  0.05048300  1
  S  S11  1  0.57451500  0.50000000  0.75755900  1
  S  S12  1  0.36205000  0.00000000  0.94951700  1
  S  S13  1  0.42548500  0.50000000  0.24244100  1
  S  S14  1  0.13795000  0.50000000  0.05048300  1
  S  S15  1  0.07451500  0.00000000  0.75755900  1
  Br  Br16  1  0.63267100  0.00000000  0.43081400  1
  Br  Br17  1  0.86732900  0.50000000  0.56918600  1
  Br  Br18  1  0.13267100  0.50000000  0.43081400  1
  Br  Br19  1  0.36732900  0.00000000  0.56918600  1
