# generated using pymatgen
data_Ba13Dy8Zn4Pt4O37
_symmetry_space_group_name_H-M   'P 1'
_cell_length_a   18.92239200
_cell_length_b   18.92239200
_cell_length_c   5.77838200
_cell_angle_alpha   90.00000000
_cell_angle_beta   90.00000000
_cell_angle_gamma   90.00000000
_symmetry_Int_Tables_number   1
_chemical_formula_structural   Ba13Dy8Zn4Pt4O37
_chemical_formula_sum   'Ba26 Dy16 Zn8 Pt8 O74'
_cell_volume   2068.98965573
_cell_formula_units_Z   2
loop_
 _symmetry_equiv_pos_site_id
 _symmetry_equiv_pos_as_xyz
  1  'x, y, z'
loop_
 _atom_site_type_symbol
 _atom_site_label
 _atom_site_symmetry_multiplicity
 _atom_site_fract_x
 _atom_site_fract_y
 _atom_site_fract_z
 _atom_site_occupancy
  Ba  Ba0  1  0.79601100  0.07170600  0.00000000  1
  Ba  Ba1  1  0.51667000  0.10842000  0.50000000  1
  Ba  Ba2  1  0.86285550  0.93602850  0.50000000  1
  Ba  Ba3  1  0.39158000  0.01667000  0.00000000  1
  Ba  Ba4  1  0.48333000  0.89158000  0.50000000  1
  Ba  Ba5  1  0.13714450  0.06397150  0.50000000  1
  Ba  Ba6  1  0.56397150  0.36285550  0.00000000  1
  Ba  Ba7  1  0.43602850  0.63714450  0.00000000  1
  Ba  Ba8  1  0.57170600  0.70398900  0.50000000  1
  Ba  Ba9  1  0.60842000  0.98333000  0.00000000  1
  Ba  Ba10  1  0.00000000  0.00000000  0.00000000  1
  Ba  Ba11  1  0.42829400  0.29601100  0.50000000  1
  Ba  Ba12  1  0.20398900  0.92829400  0.00000000  1
  Ba  Ba13  1  0.29601100  0.57170600  0.50000000  1
  Ba  Ba14  1  0.01667000  0.60842000  0.00000000  1
  Ba  Ba15  1  0.36285550  0.43602850  0.00000000  1
  Ba  Ba16  1  0.89158000  0.51667000  0.50000000  1
  Ba  Ba17  1  0.98333000  0.39158000  0.00000000  1
  Ba  Ba18  1  0.63714450  0.56397150  0.00000000  1
  Ba  Ba19  1  0.06397150  0.86285550  0.50000000  1
  Ba  Ba20  1  0.93602850  0.13714450  0.50000000  1
  Ba  Ba21  1  0.07170600  0.20398900  0.00000000  1
  Ba  Ba22  1  0.10842000  0.48333000  0.50000000  1
  Ba  Ba23  1  0.50000000  0.50000000  0.50000000  1
  Ba  Ba24  1  0.92829400  0.79601100  0.00000000  1
  Ba  Ba25  1  0.70398900  0.42829400  0.50000000  1
  Dy  Dy26  1  0.30711800  0.23799100  0.00000000  1
  Dy  Dy27  1  0.68401200  0.87847900  0.50000000  1
  Dy  Dy28  1  0.62152100  0.18401200  0.00000000  1
  Dy  Dy29  1  0.69288200  0.76200900  0.00000000  1
  Dy  Dy30  1  0.26200900  0.80711800  0.50000000  1
  Dy  Dy31  1  0.37847900  0.81598800  0.00000000  1
  Dy  Dy32  1  0.31598800  0.12152100  0.50000000  1
  Dy  Dy33  1  0.73799100  0.19288200  0.50000000  1
  Dy  Dy34  1  0.80711800  0.73799100  0.50000000  1
  Dy  Dy35  1  0.18401200  0.37847900  0.00000000  1
  Dy  Dy36  1  0.12152100  0.68401200  0.50000000  1
  Dy  Dy37  1  0.19288200  0.26200900  0.50000000  1
  Dy  Dy38  1  0.76200900  0.30711800  0.00000000  1
  Dy  Dy39  1  0.87847900  0.31598800  0.50000000  1
  Dy  Dy40  1  0.81598800  0.62152100  0.00000000  1
  Dy  Dy41  1  0.23799100  0.69288200  0.00000000  1
  Zn  Zn42  1  0.78164000  0.89750500  0.00000000  1
  Zn  Zn43  1  0.39750500  0.71836000  0.50000000  1
  Zn  Zn44  1  0.21836000  0.10249500  0.00000000  1
  Zn  Zn45  1  0.60249500  0.28164000  0.50000000  1
  Zn  Zn46  1  0.28164000  0.39750500  0.50000000  1
  Zn  Zn47  1  0.89750500  0.21836000  0.00000000  1
  Zn  Zn48  1  0.71836000  0.60249500  0.50000000  1
  Zn  Zn49  1  0.10249500  0.78164000  0.00000000  1
  Pt  Pt50  1  0.53768450  0.79974150  0.00000000  1
  Pt  Pt51  1  0.70025850  0.03768450  0.50000000  1
  Pt  Pt52  1  0.29974150  0.96231550  0.50000000  1
  Pt  Pt53  1  0.46231550  0.20025850  0.00000000  1
  Pt  Pt54  1  0.03768450  0.29974150  0.50000000  1
  Pt  Pt55  1  0.20025850  0.53768450  0.00000000  1
  Pt  Pt56  1  0.79974150  0.46231550  0.00000000  1
  Pt  Pt57  1  0.96231550  0.70025850  0.50000000  1
  O  O58  1  0.41737650  0.30135350  0.00000000  1
  O  O59  1  0.73027150  0.96427450  0.74272650  1
  O  O60  1  0.39744800  0.01610400  0.50000000  1
  O  O61  1  0.51610400  0.10255200  0.00000000  1
  O  O62  1  0.67280400  0.11200700  0.25822000  1
  O  O63  1  0.23390850  0.17712450  0.74803950  1
  O  O64  1  0.46427450  0.76972850  0.75727350  1
  O  O65  1  0.76609150  0.82287550  0.25196050  1
  O  O66  1  0.60255200  0.98389600  0.50000000  1
  O  O67  1  0.56221400  0.37596800  0.50000000  1
  O  O68  1  0.67712450  0.26609150  0.24803950  1
  O  O69  1  0.26972850  0.03572550  0.25727350  1
  O  O70  1  0.32719600  0.88799300  0.25822000  1
  O  O71  1  0.67280400  0.11200700  0.74178000  1
  O  O72  1  0.48389600  0.89744800  0.00000000  1
  O  O73  1  0.12403200  0.06221400  0.00000000  1
  O  O74  1  0.61200700  0.82719600  0.24178000  1
  O  O75  1  0.53572550  0.23027150  0.75727350  1
  O  O76  1  0.67712450  0.26609150  0.75196050  1
  O  O77  1  0.38799300  0.17280400  0.75822000  1
  O  O78  1  0.53572550  0.23027150  0.24272650  1
  O  O79  1  0.43778600  0.62403200  0.50000000  1
  O  O80  1  0.61200700  0.82719600  0.75822000  1
  O  O81  1  0.58262350  0.69864650  0.00000000  1
  O  O82  1  0.23390850  0.17712450  0.25196050  1
  O  O83  1  0.80135350  0.08262350  0.50000000  1
  O  O84  1  0.38799300  0.17280400  0.24178000  1
  O  O85  1  0.26972850  0.03572550  0.74272650  1
  O  O86  1  0.73027150  0.96427450  0.25727350  1
  O  O87  1  0.32287550  0.73390850  0.24803950  1
  O  O88  1  0.76609150  0.82287550  0.74803950  1
  O  O89  1  0.00000000  0.00000000  0.50000000  1
  O  O90  1  0.32719600  0.88799300  0.74178000  1
  O  O91  1  0.46427450  0.76972850  0.24272650  1
  O  O92  1  0.87596800  0.93778600  0.00000000  1
  O  O93  1  0.32287550  0.73390850  0.75196050  1
  O  O94  1  0.19864650  0.91737650  0.50000000  1
  O  O95  1  0.91737650  0.80135350  0.50000000  1
  O  O96  1  0.23027150  0.46427450  0.24272650  1
  O  O97  1  0.89744800  0.51610400  0.00000000  1
  O  O98  1  0.01610400  0.60255200  0.50000000  1
  O  O99  1  0.17280400  0.61200700  0.75822000  1
  O  O100  1  0.73390850  0.67712450  0.24803950  1
  O  O101  1  0.96427450  0.26972850  0.25727350  1
  O  O102  1  0.26609150  0.32287550  0.75196050  1
  O  O103  1  0.10255200  0.48389600  0.00000000  1
  O  O104  1  0.06221400  0.87596800  0.00000000  1
  O  O105  1  0.17712450  0.76609150  0.74803950  1
  O  O106  1  0.76972850  0.53572550  0.75727350  1
  O  O107  1  0.82719600  0.38799300  0.75822000  1
  O  O108  1  0.17280400  0.61200700  0.24178000  1
  O  O109  1  0.98389600  0.39744800  0.50000000  1
  O  O110  1  0.62403200  0.56221400  0.50000000  1
  O  O111  1  0.11200700  0.32719600  0.74178000  1
  O  O112  1  0.03572550  0.73027150  0.25727350  1
  O  O113  1  0.17712450  0.76609150  0.25196050  1
  O  O114  1  0.88799300  0.67280400  0.25822000  1
  O  O115  1  0.03572550  0.73027150  0.74272650  1
  O  O116  1  0.93778600  0.12403200  0.00000000  1
  O  O117  1  0.11200700  0.32719600  0.25822000  1
  O  O118  1  0.08262350  0.19864650  0.50000000  1
  O  O119  1  0.73390850  0.67712450  0.75196050  1
  O  O120  1  0.30135350  0.58262350  0.00000000  1
  O  O121  1  0.88799300  0.67280400  0.74178000  1
  O  O122  1  0.76972850  0.53572550  0.24272650  1
  O  O123  1  0.23027150  0.46427450  0.75727350  1
  O  O124  1  0.82287550  0.23390850  0.74803950  1
  O  O125  1  0.26609150  0.32287550  0.24803950  1
  O  O126  1  0.50000000  0.50000000  0.00000000  1
  O  O127  1  0.82719600  0.38799300  0.24178000  1
  O  O128  1  0.96427450  0.26972850  0.74272650  1
  O  O129  1  0.37596800  0.43778600  0.50000000  1
  O  O130  1  0.82287550  0.23390850  0.25196050  1
  O  O131  1  0.69864650  0.41737650  0.00000000  1
