# generated using pymatgen
data_La4S3NCl3
_symmetry_space_group_name_H-M   'P 1'
_cell_length_a   9.47532767
_cell_length_b   9.47532767
_cell_length_c   7.03242600
_cell_angle_alpha   90.00000000
_cell_angle_beta   90.00000000
_cell_angle_gamma   120.00000000
_symmetry_Int_Tables_number   1
_chemical_formula_structural   La4S3NCl3
_chemical_formula_sum   'La8 S6 N2 Cl6'
_cell_volume   546.79467640
_cell_formula_units_Z   2
loop_
 _symmetry_equiv_pos_site_id
 _symmetry_equiv_pos_as_xyz
  1  'x, y, z'
loop_
 _atom_site_type_symbol
 _atom_site_label
 _atom_site_symmetry_multiplicity
 _atom_site_fract_x
 _atom_site_fract_y
 _atom_site_fract_z
 _atom_site_occupancy
  La  La0  1  0.40274800  0.20137400  0.75066800  1
  La  La1  1  0.79862600  0.59725200  0.75066800  1
  La  La2  1  0.66666667  0.33333333  0.21083500  1
  La  La3  1  0.20137400  0.40274800  0.25066800  1
  La  La4  1  0.20137400  0.79862600  0.25066800  1
  La  La5  1  0.59725200  0.79862600  0.25066800  1
  La  La6  1  0.79862600  0.20137400  0.75066800  1
  La  La7  1  0.33333333  0.66666667  0.71083500  1
  S  S8  1  0.53173700  0.06347400  0.47170100  1
  S  S9  1  0.93652600  0.46826300  0.47170100  1
  S  S10  1  0.06347400  0.53173700  0.97170100  1
  S  S11  1  0.46826300  0.93652600  0.97170100  1
  S  S12  1  0.46826300  0.53173700  0.97170100  1
  S  S13  1  0.53173700  0.46826300  0.47170100  1
  N  N14  1  0.66666667  0.33333333  0.86547100  1
  N  N15  1  0.33333333  0.66666667  0.36547100  1
  Cl  Cl16  1  0.73617700  0.86808850  0.64209600  1
  Cl  Cl17  1  0.86808850  0.73617700  0.14209600  1
  Cl  Cl18  1  0.13191150  0.26382300  0.64209600  1
  Cl  Cl19  1  0.26382300  0.13191150  0.14209600  1
  Cl  Cl20  1  0.13191150  0.86808850  0.64209600  1
  Cl  Cl21  1  0.86808850  0.13191150  0.14209600  1
