# generated using pymatgen
data_P2Pb(XeF6)3
_symmetry_space_group_name_H-M   'P 1'
_cell_length_a   12.55134400
_cell_length_b   12.36368600
_cell_length_c   11.24166331
_cell_angle_alpha   90.00000000
_cell_angle_beta   98.86875381
_cell_angle_gamma   90.00000000
_symmetry_Int_Tables_number   1
_chemical_formula_structural   P2Pb(XeF6)3
_chemical_formula_sum   'P8 Pb4 Xe12 F72'
_cell_volume   1723.63418262
_cell_formula_units_Z   4
loop_
 _symmetry_equiv_pos_site_id
 _symmetry_equiv_pos_as_xyz
  1  'x, y, z'
loop_
 _atom_site_type_symbol
 _atom_site_label
 _atom_site_symmetry_multiplicity
 _atom_site_fract_x
 _atom_site_fract_y
 _atom_site_fract_z
 _atom_site_occupancy
  P  P0  1  0.30073700  0.50000000  0.40558300  1
  P  P1  1  0.75000000  0.75000000  0.00000000  1
  P  P2  1  0.69926300  0.50000000  0.59441700  1
  P  P3  1  0.25000000  0.75000000  0.00000000  1
  P  P4  1  0.80073700  0.00000000  0.40558300  1
  P  P5  1  0.25000000  0.25000000  0.00000000  1
  P  P6  1  0.19926300  0.00000000  0.59441700  1
  P  P7  1  0.75000000  0.25000000  0.00000000  1
  Pb  Pb8  1  0.21543100  0.50000000  0.72119700  1
  Pb  Pb9  1  0.78456900  0.50000000  0.27880300  1
  Pb  Pb10  1  0.71543100  0.00000000  0.72119700  1
  Pb  Pb11  1  0.28456900  0.00000000  0.27880300  1
  Xe  Xe12  1  0.94355550  0.73770350  0.66391500  1
  Xe  Xe13  1  0.05644450  0.26229650  0.33608500  1
  Xe  Xe14  1  0.05644450  0.73770350  0.33608500  1
  Xe  Xe15  1  0.94355550  0.26229650  0.66391500  1
  Xe  Xe16  1  0.00000000  0.50000000  0.00000000  1
  Xe  Xe17  1  0.00000000  0.00000000  0.00000000  1
  Xe  Xe18  1  0.44355550  0.23770350  0.66391500  1
  Xe  Xe19  1  0.55644450  0.76229650  0.33608500  1
  Xe  Xe20  1  0.55644450  0.23770350  0.33608500  1
  Xe  Xe21  1  0.44355550  0.76229650  0.66391500  1
  Xe  Xe22  1  0.50000000  0.00000000  0.00000000  1
  Xe  Xe23  1  0.50000000  0.50000000  0.00000000  1
  F  F24  1  0.76264900  0.62723500  0.06245100  1
  F  F25  1  0.70118550  0.63189050  0.59106400  1
  F  F26  1  0.23735100  0.62723500  0.93754900  1
  F  F27  1  0.23735100  0.37276500  0.93754900  1
  F  F28  1  0.30875000  0.67238300  0.68803700  1
  F  F29  1  0.17120800  0.20041600  0.88462000  1
  F  F30  1  0.14502300  0.72665400  0.06596100  1
  F  F31  1  0.19639400  0.50000000  0.48884900  1
  F  F32  1  0.96011600  0.50000000  0.17356600  1
  F  F33  1  0.61693700  0.50000000  0.46575200  1
  F  F34  1  0.30875000  0.32761700  0.68803700  1
  F  F35  1  0.82879200  0.79958400  0.11538000  1
  F  F36  1  0.03988400  0.50000000  0.82643400  1
  F  F37  1  0.39918200  0.50000000  0.32917800  1
  F  F38  1  0.85497700  0.27334600  0.93403900  1
  F  F39  1  0.21068500  0.50000000  0.28513200  1
  F  F40  1  0.38306300  0.50000000  0.53424800  1
  F  F41  1  0.80360600  0.50000000  0.51115100  1
  F  F42  1  0.41409800  0.50000000  0.82619100  1
  F  F43  1  0.85497700  0.72665400  0.93403900  1
  F  F44  1  0.29881450  0.63189050  0.40893600  1
  F  F45  1  0.60081800  0.50000000  0.67082200  1
  F  F46  1  0.92427500  0.64399900  0.36668800  1
  F  F47  1  0.07572500  0.35600100  0.63331200  1
  F  F48  1  0.29881450  0.36810950  0.40893600  1
  F  F49  1  0.17120800  0.79958400  0.88462000  1
  F  F50  1  0.76264900  0.37276500  0.06245100  1
  F  F51  1  0.70118550  0.36810950  0.59106400  1
  F  F52  1  0.92427500  0.35600100  0.36668800  1
  F  F53  1  0.82879200  0.20041600  0.11538000  1
  F  F54  1  0.58590200  0.50000000  0.17380900  1
  F  F55  1  0.14502300  0.27334600  0.06596100  1
  F  F56  1  0.69125000  0.32761700  0.31196300  1
  F  F57  1  0.69125000  0.67238300  0.31196300  1
  F  F58  1  0.07572500  0.64399900  0.63331200  1
  F  F59  1  0.78931500  0.50000000  0.71486800  1
  F  F60  1  0.26264900  0.12723500  0.06245100  1
  F  F61  1  0.20118550  0.13189050  0.59106400  1
  F  F62  1  0.73735100  0.12723500  0.93754900  1
  F  F63  1  0.73735100  0.87276500  0.93754900  1
  F  F64  1  0.80875000  0.17238300  0.68803700  1
  F  F65  1  0.67120800  0.70041600  0.88462000  1
  F  F66  1  0.64502300  0.22665400  0.06596100  1
  F  F67  1  0.69639400  0.00000000  0.48884900  1
  F  F68  1  0.46011600  0.00000000  0.17356600  1
  F  F69  1  0.11693700  0.00000000  0.46575200  1
  F  F70  1  0.80875000  0.82761700  0.68803700  1
  F  F71  1  0.32879200  0.29958400  0.11538000  1
  F  F72  1  0.53988400  0.00000000  0.82643400  1
  F  F73  1  0.89918200  0.00000000  0.32917800  1
  F  F74  1  0.35497700  0.77334600  0.93403900  1
  F  F75  1  0.71068500  0.00000000  0.28513200  1
  F  F76  1  0.88306300  0.00000000  0.53424800  1
  F  F77  1  0.30360600  0.00000000  0.51115100  1
  F  F78  1  0.91409800  0.00000000  0.82619100  1
  F  F79  1  0.35497700  0.22665400  0.93403900  1
  F  F80  1  0.79881450  0.13189050  0.40893600  1
  F  F81  1  0.10081800  0.00000000  0.67082200  1
  F  F82  1  0.42427500  0.14399900  0.36668800  1
  F  F83  1  0.57572500  0.85600100  0.63331200  1
  F  F84  1  0.79881450  0.86810950  0.40893600  1
  F  F85  1  0.67120800  0.29958400  0.88462000  1
  F  F86  1  0.26264900  0.87276500  0.06245100  1
  F  F87  1  0.20118550  0.86810950  0.59106400  1
  F  F88  1  0.42427500  0.85600100  0.36668800  1
  F  F89  1  0.32879200  0.70041600  0.11538000  1
  F  F90  1  0.08590200  0.00000000  0.17380900  1
  F  F91  1  0.64502300  0.77334600  0.06596100  1
  F  F92  1  0.19125000  0.82761700  0.31196300  1
  F  F93  1  0.19125000  0.17238300  0.31196300  1
  F  F94  1  0.57572500  0.14399900  0.63331200  1
  F  F95  1  0.28931500  0.00000000  0.71486800  1
