# generated using pymatgen
data_Pm2O3
_symmetry_space_group_name_H-M   'P 1'
_cell_length_a   11.07822200
_cell_length_b   11.07822200
_cell_length_c   11.07822200
_cell_angle_alpha   90.00000000
_cell_angle_beta   90.00000000
_cell_angle_gamma   90.00000000
_symmetry_Int_Tables_number   1
_chemical_formula_structural   Pm2O3
_chemical_formula_sum   'Pm32 O48'
_cell_volume   1359.59698110
_cell_formula_units_Z   16
loop_
 _symmetry_equiv_pos_site_id
 _symmetry_equiv_pos_as_xyz
  1  'x, y, z'
loop_
 _atom_site_type_symbol
 _atom_site_label
 _atom_site_symmetry_multiplicity
 _atom_site_fract_x
 _atom_site_fract_y
 _atom_site_fract_z
 _atom_site_occupancy
  Pm  Pm0  1  0.25000000  0.46868600  0.00000000  1
  Pm  Pm1  1  0.75000000  0.03131400  0.00000000  1
  Pm  Pm2  1  0.46868600  0.00000000  0.25000000  1
  Pm  Pm3  1  0.03131400  0.00000000  0.75000000  1
  Pm  Pm4  1  0.00000000  0.25000000  0.46868600  1
  Pm  Pm5  1  0.00000000  0.75000000  0.03131400  1
  Pm  Pm6  1  0.25000000  0.03131400  0.50000000  1
  Pm  Pm7  1  0.75000000  0.46868600  0.50000000  1
  Pm  Pm8  1  0.03131400  0.50000000  0.25000000  1
  Pm  Pm9  1  0.46868600  0.50000000  0.75000000  1
  Pm  Pm10  1  0.50000000  0.25000000  0.03131400  1
  Pm  Pm11  1  0.50000000  0.75000000  0.46868600  1
  Pm  Pm12  1  0.75000000  0.25000000  0.25000000  1
  Pm  Pm13  1  0.25000000  0.75000000  0.25000000  1
  Pm  Pm14  1  0.25000000  0.25000000  0.75000000  1
  Pm  Pm15  1  0.25000000  0.25000000  0.25000000  1
  Pm  Pm16  1  0.75000000  0.96868600  0.50000000  1
  Pm  Pm17  1  0.25000000  0.53131400  0.50000000  1
  Pm  Pm18  1  0.96868600  0.50000000  0.75000000  1
  Pm  Pm19  1  0.53131400  0.50000000  0.25000000  1
  Pm  Pm20  1  0.50000000  0.75000000  0.96868600  1
  Pm  Pm21  1  0.50000000  0.25000000  0.53131400  1
  Pm  Pm22  1  0.75000000  0.53131400  0.00000000  1
  Pm  Pm23  1  0.25000000  0.96868600  0.00000000  1
  Pm  Pm24  1  0.53131400  0.00000000  0.75000000  1
  Pm  Pm25  1  0.96868600  0.00000000  0.25000000  1
  Pm  Pm26  1  0.00000000  0.75000000  0.53131400  1
  Pm  Pm27  1  0.00000000  0.25000000  0.96868600  1
  Pm  Pm28  1  0.25000000  0.75000000  0.75000000  1
  Pm  Pm29  1  0.75000000  0.25000000  0.75000000  1
  Pm  Pm30  1  0.75000000  0.75000000  0.25000000  1
  Pm  Pm31  1  0.75000000  0.75000000  0.75000000  1
  O  O32  1  0.39069350  0.15014050  0.37882050  1
  O  O33  1  0.10930650  0.15014050  0.62117950  1
  O  O34  1  0.89069350  0.34985950  0.62117950  1
  O  O35  1  0.60930650  0.34985950  0.37882050  1
  O  O36  1  0.15014050  0.37882050  0.39069350  1
  O  O37  1  0.15014050  0.62117950  0.10930650  1
  O  O38  1  0.34985950  0.62117950  0.89069350  1
  O  O39  1  0.34985950  0.37882050  0.60930650  1
  O  O40  1  0.37882050  0.39069350  0.15014050  1
  O  O41  1  0.62117950  0.10930650  0.15014050  1
  O  O42  1  0.62117950  0.89069350  0.34985950  1
  O  O43  1  0.37882050  0.60930650  0.34985950  1
  O  O44  1  0.10930650  0.34985950  0.12117950  1
  O  O45  1  0.39069350  0.34985950  0.87882050  1
  O  O46  1  0.60930650  0.15014050  0.87882050  1
  O  O47  1  0.89069350  0.15014050  0.12117950  1
  O  O48  1  0.34985950  0.12117950  0.10930650  1
  O  O49  1  0.34985950  0.87882050  0.39069350  1
  O  O50  1  0.15014050  0.87882050  0.60930650  1
  O  O51  1  0.15014050  0.12117950  0.89069350  1
  O  O52  1  0.12117950  0.10930650  0.34985950  1
  O  O53  1  0.87882050  0.39069350  0.34985950  1
  O  O54  1  0.87882050  0.60930650  0.15014050  1
  O  O55  1  0.12117950  0.89069350  0.15014050  1
  O  O56  1  0.89069350  0.65014050  0.87882050  1
  O  O57  1  0.60930650  0.65014050  0.12117950  1
  O  O58  1  0.39069350  0.84985950  0.12117950  1
  O  O59  1  0.10930650  0.84985950  0.87882050  1
  O  O60  1  0.65014050  0.87882050  0.89069350  1
  O  O61  1  0.65014050  0.12117950  0.60930650  1
  O  O62  1  0.84985950  0.12117950  0.39069350  1
  O  O63  1  0.84985950  0.87882050  0.10930650  1
  O  O64  1  0.87882050  0.89069350  0.65014050  1
  O  O65  1  0.12117950  0.60930650  0.65014050  1
  O  O66  1  0.12117950  0.39069350  0.84985950  1
  O  O67  1  0.87882050  0.10930650  0.84985950  1
  O  O68  1  0.60930650  0.84985950  0.62117950  1
  O  O69  1  0.89069350  0.84985950  0.37882050  1
  O  O70  1  0.10930650  0.65014050  0.37882050  1
  O  O71  1  0.39069350  0.65014050  0.62117950  1
  O  O72  1  0.84985950  0.62117950  0.60930650  1
  O  O73  1  0.84985950  0.37882050  0.89069350  1
  O  O74  1  0.65014050  0.37882050  0.10930650  1
  O  O75  1  0.65014050  0.62117950  0.39069350  1
  O  O76  1  0.62117950  0.60930650  0.84985950  1
  O  O77  1  0.37882050  0.89069350  0.84985950  1
  O  O78  1  0.37882050  0.10930650  0.65014050  1
  O  O79  1  0.62117950  0.39069350  0.65014050  1
