# generated using pymatgen
data_K3Nb2AsSe11
_symmetry_space_group_name_H-M   'P 1'
_cell_length_a   15.25760800
_cell_length_b   13.37430400
_cell_length_c   10.09721085
_cell_angle_alpha   90.00000000
_cell_angle_beta   99.52673398
_cell_angle_gamma   90.00000000
_symmetry_Int_Tables_number   1
_chemical_formula_structural   K3Nb2AsSe11
_chemical_formula_sum   'K12 Nb8 As4 Se44'
_cell_volume   2032.01917907
_cell_formula_units_Z   4
loop_
 _symmetry_equiv_pos_site_id
 _symmetry_equiv_pos_as_xyz
  1  'x, y, z'
loop_
 _atom_site_type_symbol
 _atom_site_label
 _atom_site_symmetry_multiplicity
 _atom_site_fract_x
 _atom_site_fract_y
 _atom_site_fract_z
 _atom_site_occupancy
  K  K0  1  0.52246500  0.57812100  0.74994900  1
  K  K1  1  0.52246500  0.42187900  0.24994900  1
  K  K2  1  0.26835500  0.93112600  0.91621200  1
  K  K3  1  0.26835500  0.06887400  0.41621200  1
  K  K4  1  0.64843100  0.07924200  0.16523500  1
  K  K5  1  0.64843100  0.92075800  0.66523500  1
  K  K6  1  0.02246500  0.07812100  0.74994900  1
  K  K7  1  0.02246500  0.92187900  0.24994900  1
  K  K8  1  0.76835500  0.43112600  0.91621200  1
  K  K9  1  0.76835500  0.56887400  0.41621200  1
  K  K10  1  0.14843100  0.57924200  0.16523500  1
  K  K11  1  0.14843100  0.42075800  0.66523500  1
  Nb  Nb12  1  0.38154250  0.20829750  0.83067100  1
  Nb  Nb13  1  0.38154250  0.79170250  0.33067100  1
  Nb  Nb14  1  0.56673750  0.27570450  0.64647400  1
  Nb  Nb15  1  0.56673750  0.72429550  0.14647400  1
  Nb  Nb16  1  0.88154250  0.70829750  0.83067100  1
  Nb  Nb17  1  0.88154250  0.29170250  0.33067100  1
  Nb  Nb18  1  0.06673750  0.77570450  0.64647400  1
  Nb  Nb19  1  0.06673750  0.22429550  0.14647400  1
  As  As20  1  0.80172900  0.15272000  0.59756700  1
  As  As21  1  0.80172900  0.84728000  0.09756700  1
  As  As22  1  0.30172900  0.65272000  0.59756700  1
  As  As23  1  0.30172900  0.34728000  0.09756700  1
  Se  Se24  1  0.55923950  0.29932150  0.90388800  1
  Se  Se25  1  0.55923950  0.70067850  0.40388800  1
  Se  Se26  1  0.39860700  0.34222600  0.62738400  1
  Se  Se27  1  0.39860700  0.65777400  0.12738400  1
  Se  Se28  1  0.45934100  0.09958600  0.66778800  1
  Se  Se29  1  0.45934100  0.90041400  0.16778800  1
  Se  Se30  1  0.64697750  0.15427950  0.49220900  1
  Se  Se31  1  0.64697750  0.84572050  0.99220900  1
  Se  Se32  1  0.87075000  0.90357300  0.90511100  1
  Se  Se33  1  0.87075000  0.09642700  0.40511100  1
  Se  Se34  1  0.67473700  0.19372400  0.84375600  1
  Se  Se35  1  0.67473700  0.80627600  0.34375600  1
  Se  Se36  1  0.37181000  0.18648300  0.08932900  1
  Se  Se37  1  0.37181000  0.81351700  0.58932900  1
  Se  Se38  1  0.46611150  0.04065450  0.89238600  1
  Se  Se39  1  0.46611150  0.95934550  0.39238600  1
  Se  Se40  1  0.43686050  0.25248750  0.43908500  1
  Se  Se41  1  0.43686050  0.74751250  0.93908500  1
  Se  Se42  1  0.23017650  0.17264550  0.74692900  1
  Se  Se43  1  0.23017650  0.82735450  0.24692900  1
  Se  Se44  1  0.13831950  0.92334550  0.58659900  1
  Se  Se45  1  0.13831950  0.07665450  0.08659900  1
  Se  Se46  1  0.05923950  0.79932150  0.90388800  1
  Se  Se47  1  0.05923950  0.20067850  0.40388800  1
  Se  Se48  1  0.89860700  0.84222600  0.62738400  1
  Se  Se49  1  0.89860700  0.15777400  0.12738400  1
  Se  Se50  1  0.95934100  0.59958600  0.66778800  1
  Se  Se51  1  0.95934100  0.40041400  0.16778800  1
  Se  Se52  1  0.14697750  0.65427950  0.49220900  1
  Se  Se53  1  0.14697750  0.34572050  0.99220900  1
  Se  Se54  1  0.37075000  0.40357300  0.90511100  1
  Se  Se55  1  0.37075000  0.59642700  0.40511100  1
  Se  Se56  1  0.17473700  0.69372400  0.84375600  1
  Se  Se57  1  0.17473700  0.30627600  0.34375600  1
  Se  Se58  1  0.87181000  0.68648300  0.08932900  1
  Se  Se59  1  0.87181000  0.31351700  0.58932900  1
  Se  Se60  1  0.96611150  0.54065450  0.89238600  1
  Se  Se61  1  0.96611150  0.45934550  0.39238600  1
  Se  Se62  1  0.93686050  0.75248750  0.43908500  1
  Se  Se63  1  0.93686050  0.24751250  0.93908500  1
  Se  Se64  1  0.73017650  0.67264550  0.74692900  1
  Se  Se65  1  0.73017650  0.32735450  0.24692900  1
  Se  Se66  1  0.63831950  0.42334550  0.58659900  1
  Se  Se67  1  0.63831950  0.57665450  0.08659900  1
