# generated using pymatgen
data_CsReCl4
_symmetry_space_group_name_H-M   'P 1'
_cell_length_a   14.37130000
_cell_length_b   14.45877600
_cell_length_c   10.96821300
_cell_angle_alpha   90.00000000
_cell_angle_beta   90.00000000
_cell_angle_gamma   90.00000000
_symmetry_Int_Tables_number   1
_chemical_formula_structural   CsReCl4
_chemical_formula_sum   'Cs12 Re12 Cl48'
_cell_volume   2279.10041735
_cell_formula_units_Z   12
loop_
 _symmetry_equiv_pos_site_id
 _symmetry_equiv_pos_as_xyz
  1  'x, y, z'
loop_
 _atom_site_type_symbol
 _atom_site_label
 _atom_site_symmetry_multiplicity
 _atom_site_fract_x
 _atom_site_fract_y
 _atom_site_fract_z
 _atom_site_occupancy
  Cs  Cs0  1  0.62257450  0.18050050  0.75000000  1
  Cs  Cs1  1  0.39123050  0.09221450  0.25000000  1
  Cs  Cs2  1  0.39123050  0.90778550  0.75000000  1
  Cs  Cs3  1  0.00089400  0.00000000  0.00000000  1
  Cs  Cs4  1  0.62257450  0.81949950  0.25000000  1
  Cs  Cs5  1  0.00089400  0.00000000  0.50000000  1
  Cs  Cs6  1  0.12257450  0.68050050  0.75000000  1
  Cs  Cs7  1  0.89123050  0.59221450  0.25000000  1
  Cs  Cs8  1  0.89123050  0.40778550  0.75000000  1
  Cs  Cs9  1  0.50089400  0.50000000  0.00000000  1
  Cs  Cs10  1  0.12257450  0.31949950  0.25000000  1
  Cs  Cs11  1  0.50089400  0.50000000  0.50000000  1
  Re  Re12  1  0.23092950  0.78272150  0.36287400  1
  Re  Re13  1  0.23092950  0.21727850  0.63712600  1
  Re  Re14  1  0.77827750  0.85754150  0.75000000  1
  Re  Re15  1  0.23092950  0.21727850  0.86287400  1
  Re  Re16  1  0.77827750  0.14245850  0.25000000  1
  Re  Re17  1  0.23092950  0.78272150  0.13712600  1
  Re  Re18  1  0.73092950  0.28272150  0.36287400  1
  Re  Re19  1  0.73092950  0.71727850  0.63712600  1
  Re  Re20  1  0.27827750  0.35754150  0.75000000  1
  Re  Re21  1  0.73092950  0.71727850  0.86287400  1
  Re  Re22  1  0.27827750  0.64245850  0.25000000  1
  Re  Re23  1  0.73092950  0.28272150  0.13712600  1
  Cl  Cl24  1  0.37675850  0.14984350  0.89839600  1
  Cl  Cl25  1  0.63681800  0.06317900  0.25000000  1
  Cl  Cl26  1  0.57541450  0.75386450  0.60238900  1
  Cl  Cl27  1  0.20076400  0.86485000  0.92913700  1
  Cl  Cl28  1  0.77868750  0.85570750  0.97178400  1
  Cl  Cl29  1  0.43923850  0.33603050  0.75000000  1
  Cl  Cl30  1  0.37675850  0.85015650  0.39839600  1
  Cl  Cl31  1  0.20076400  0.13515000  0.42913700  1
  Cl  Cl32  1  0.57541450  0.24613550  0.39761100  1
  Cl  Cl33  1  0.63681800  0.93682100  0.75000000  1
  Cl  Cl34  1  0.77868750  0.14429250  0.47178400  1
  Cl  Cl35  1  0.18422000  0.08001400  0.75000000  1
  Cl  Cl36  1  0.77868750  0.14429250  0.02821600  1
  Cl  Cl37  1  0.37675850  0.85015650  0.10160400  1
  Cl  Cl38  1  0.77868750  0.85570750  0.52821600  1
  Cl  Cl39  1  0.83733850  0.02858950  0.75000000  1
  Cl  Cl40  1  0.20076400  0.86485000  0.57086300  1
  Cl  Cl41  1  0.57541450  0.75386450  0.89761100  1
  Cl  Cl42  1  0.43923850  0.66396950  0.25000000  1
  Cl  Cl43  1  0.57541450  0.24613550  0.10238900  1
  Cl  Cl44  1  0.37675850  0.14984350  0.60160400  1
  Cl  Cl45  1  0.20076400  0.13515000  0.07086300  1
  Cl  Cl46  1  0.18422000  0.91998600  0.25000000  1
  Cl  Cl47  1  0.83733850  0.97141050  0.25000000  1
  Cl  Cl48  1  0.87675850  0.64984350  0.89839600  1
  Cl  Cl49  1  0.13681800  0.56317900  0.25000000  1
  Cl  Cl50  1  0.07541450  0.25386450  0.60238900  1
  Cl  Cl51  1  0.70076400  0.36485000  0.92913700  1
  Cl  Cl52  1  0.27868750  0.35570750  0.97178400  1
  Cl  Cl53  1  0.93923850  0.83603050  0.75000000  1
  Cl  Cl54  1  0.87675850  0.35015650  0.39839600  1
  Cl  Cl55  1  0.70076400  0.63515000  0.42913700  1
  Cl  Cl56  1  0.07541450  0.74613550  0.39761100  1
  Cl  Cl57  1  0.13681800  0.43682100  0.75000000  1
  Cl  Cl58  1  0.27868750  0.64429250  0.47178400  1
  Cl  Cl59  1  0.68422000  0.58001400  0.75000000  1
  Cl  Cl60  1  0.27868750  0.64429250  0.02821600  1
  Cl  Cl61  1  0.87675850  0.35015650  0.10160400  1
  Cl  Cl62  1  0.27868750  0.35570750  0.52821600  1
  Cl  Cl63  1  0.33733850  0.52858950  0.75000000  1
  Cl  Cl64  1  0.70076400  0.36485000  0.57086300  1
  Cl  Cl65  1  0.07541450  0.25386450  0.89761100  1
  Cl  Cl66  1  0.93923850  0.16396950  0.25000000  1
  Cl  Cl67  1  0.07541450  0.74613550  0.10238900  1
  Cl  Cl68  1  0.87675850  0.64984350  0.60160400  1
  Cl  Cl69  1  0.70076400  0.63515000  0.07086300  1
  Cl  Cl70  1  0.68422000  0.41998600  0.25000000  1
  Cl  Cl71  1  0.33733850  0.47141050  0.25000000  1
