# generated using pymatgen
data_K5SnSb3
_symmetry_space_group_name_H-M   'P 1'
_cell_length_a   9.96080400
_cell_length_b   8.88428400
_cell_length_c   19.01123887
_cell_angle_alpha   90.00000000
_cell_angle_beta   121.30829994
_cell_angle_gamma   90.00000000
_symmetry_Int_Tables_number   1
_chemical_formula_structural   K5SnSb3
_chemical_formula_sum   'K20 Sn4 Sb12'
_cell_volume   1437.40824188
_cell_formula_units_Z   4
loop_
 _symmetry_equiv_pos_site_id
 _symmetry_equiv_pos_as_xyz
  1  'x, y, z'
loop_
 _atom_site_type_symbol
 _atom_site_label
 _atom_site_symmetry_multiplicity
 _atom_site_fract_x
 _atom_site_fract_y
 _atom_site_fract_z
 _atom_site_occupancy
  K  K0  1  0.16396100  0.84059800  0.74059800  1
  K  K1  1  0.83603900  0.34059800  0.75940200  1
  K  K2  1  0.83603900  0.15940200  0.25940200  1
  K  K3  1  0.16396100  0.65940200  0.24059800  1
  K  K4  1  0.84261800  0.82801300  0.42054500  1
  K  K5  1  0.15738200  0.32801300  0.07945500  1
  K  K6  1  0.15738200  0.17198700  0.57945500  1
  K  K7  1  0.84261800  0.67198700  0.92054500  1
  K  K8  1  0.88858700  0.99383000  0.08650100  1
  K  K9  1  0.11141300  0.49383000  0.41349900  1
  K  K10  1  0.11141300  0.00617000  0.91349900  1
  K  K11  1  0.88858700  0.50617000  0.58650100  1
  K  K12  1  0.73891000  0.48036300  0.07752300  1
  K  K13  1  0.26109000  0.98036300  0.42247700  1
  K  K14  1  0.26109000  0.51963700  0.92247700  1
  K  K15  1  0.73891000  0.01963700  0.57752300  1
  K  K16  1  0.44708200  0.00738900  0.25530200  1
  K  K17  1  0.55291800  0.50738900  0.24469800  1
  K  K18  1  0.55291800  0.99261100  0.74469800  1
  K  K19  1  0.44708200  0.49261100  0.75530200  1
  Sn  Sn20  1  0.51348100  0.64321800  0.58673600  1
  Sn  Sn21  1  0.48651900  0.14321800  0.91326400  1
  Sn  Sn22  1  0.48651900  0.35678200  0.41326400  1
  Sn  Sn23  1  0.51348100  0.85678200  0.08673600  1
  Sb  Sb24  1  0.23801100  0.73705600  0.08040000  1
  Sb  Sb25  1  0.76198900  0.23705600  0.41960000  1
  Sb  Sb26  1  0.76198900  0.26294400  0.91960000  1
  Sb  Sb27  1  0.23801100  0.76294400  0.58040000  1
  Sb  Sb28  1  0.51660000  0.81200600  0.93384600  1
  Sb  Sb29  1  0.48340000  0.31200600  0.56615400  1
  Sb  Sb30  1  0.48340000  0.18799400  0.06615400  1
  Sb  Sb31  1  0.51660000  0.68799400  0.43384600  1
  Sb  Sb32  1  0.80780500  0.73384200  0.72741900  1
  Sb  Sb33  1  0.19219500  0.23384200  0.77258100  1
  Sb  Sb34  1  0.19219500  0.26615800  0.27258100  1
  Sb  Sb35  1  0.80780500  0.76615800  0.22741900  1
