# generated using pymatgen
data_NaLa(GaSe2)4
_symmetry_space_group_name_H-M   'P 1'
_cell_length_a   12.87795600
_cell_length_b   21.48903400
_cell_length_c   21.58059800
_cell_angle_alpha   90.00000000
_cell_angle_beta   90.00000000
_cell_angle_gamma   90.00000000
_symmetry_Int_Tables_number   1
_chemical_formula_structural   NaLa(GaSe2)4
_chemical_formula_sum   'Na16 La16 Ga64 Se128'
_cell_volume   5972.10321237
_cell_formula_units_Z   16
loop_
 _symmetry_equiv_pos_site_id
 _symmetry_equiv_pos_as_xyz
  1  'x, y, z'
loop_
 _atom_site_type_symbol
 _atom_site_label
 _atom_site_symmetry_multiplicity
 _atom_site_fract_x
 _atom_site_fract_y
 _atom_site_fract_z
 _atom_site_occupancy
  Na  Na0  1  0.75000000  0.75000000  0.49691500  1
  Na  Na1  1  0.50000000  0.00000000  0.25308500  1
  Na  Na2  1  0.75000000  0.75000000  0.00308500  1
  Na  Na3  1  0.00000000  0.00000000  0.24691500  1
  Na  Na4  1  0.75000000  0.25000000  0.99691500  1
  Na  Na5  1  0.50000000  0.50000000  0.75308500  1
  Na  Na6  1  0.75000000  0.25000000  0.50308500  1
  Na  Na7  1  0.00000000  0.50000000  0.74691500  1
  Na  Na8  1  0.25000000  0.75000000  0.99691500  1
  Na  Na9  1  0.00000000  0.00000000  0.75308500  1
  Na  Na10  1  0.25000000  0.75000000  0.50308500  1
  Na  Na11  1  0.50000000  0.00000000  0.74691500  1
  Na  Na12  1  0.25000000  0.25000000  0.49691500  1
  Na  Na13  1  0.00000000  0.50000000  0.25308500  1
  Na  Na14  1  0.25000000  0.25000000  0.00308500  1
  Na  Na15  1  0.50000000  0.50000000  0.24691500  1
  La  La16  1  0.75000000  0.25000000  0.25000000  1
  La  La17  1  0.50000000  0.00000000  0.00000000  1
  La  La18  1  0.75000000  0.75000000  0.25000000  1
  La  La19  1  0.00000000  0.00000000  0.00000000  1
  La  La20  1  0.75000000  0.75000000  0.75000000  1
  La  La21  1  0.50000000  0.50000000  0.50000000  1
  La  La22  1  0.75000000  0.25000000  0.75000000  1
  La  La23  1  0.00000000  0.50000000  0.50000000  1
  La  La24  1  0.25000000  0.25000000  0.75000000  1
  La  La25  1  0.00000000  0.00000000  0.50000000  1
  La  La26  1  0.25000000  0.75000000  0.75000000  1
  La  La27  1  0.50000000  0.00000000  0.50000000  1
  La  La28  1  0.25000000  0.75000000  0.25000000  1
  La  La29  1  0.00000000  0.50000000  0.00000000  1
  La  La30  1  0.25000000  0.25000000  0.25000000  1
  La  La31  1  0.50000000  0.50000000  0.00000000  1
  Ga  Ga32  1  0.50098200  0.13528500  0.12720900  1
  Ga  Ga33  1  0.49901800  0.86471500  0.12720900  1
  Ga  Ga34  1  0.20893050  0.06995500  0.12455250  1
  Ga  Ga35  1  0.99901800  0.13528500  0.37279100  1
  Ga  Ga36  1  0.54106950  0.68004500  0.12544750  1
  Ga  Ga37  1  0.00098200  0.86471500  0.37279100  1
  Ga  Ga38  1  0.04106950  0.31995500  0.37455250  1
  Ga  Ga39  1  0.70893050  0.93004500  0.37544750  1
  Ga  Ga40  1  0.29106950  0.06995500  0.37544750  1
  Ga  Ga41  1  0.74901800  0.11471500  0.12279100  1
  Ga  Ga42  1  0.95893050  0.68004500  0.37455250  1
  Ga  Ga43  1  0.24901800  0.88528500  0.37720900  1
  Ga  Ga44  1  0.79106950  0.93004500  0.12455250  1
  Ga  Ga45  1  0.75098200  0.11471500  0.37720900  1
  Ga  Ga46  1  0.25098200  0.88528500  0.12279100  1
  Ga  Ga47  1  0.45893050  0.31995500  0.12544750  1
  Ga  Ga48  1  0.50098200  0.63528500  0.62720900  1
  Ga  Ga49  1  0.49901800  0.36471500  0.62720900  1
  Ga  Ga50  1  0.20893050  0.56995500  0.62455250  1
  Ga  Ga51  1  0.99901800  0.63528500  0.87279100  1
  Ga  Ga52  1  0.54106950  0.18004500  0.62544750  1
  Ga  Ga53  1  0.00098200  0.36471500  0.87279100  1
  Ga  Ga54  1  0.04106950  0.81995500  0.87455250  1
  Ga  Ga55  1  0.70893050  0.43004500  0.87544750  1
  Ga  Ga56  1  0.29106950  0.56995500  0.87544750  1
  Ga  Ga57  1  0.74901800  0.61471500  0.62279100  1
  Ga  Ga58  1  0.95893050  0.18004500  0.87455250  1
  Ga  Ga59  1  0.24901800  0.38528500  0.87720900  1
  Ga  Ga60  1  0.79106950  0.43004500  0.62455250  1
  Ga  Ga61  1  0.75098200  0.61471500  0.87720900  1
  Ga  Ga62  1  0.25098200  0.38528500  0.62279100  1
  Ga  Ga63  1  0.45893050  0.81995500  0.62544750  1
  Ga  Ga64  1  0.00098200  0.13528500  0.62720900  1
  Ga  Ga65  1  0.99901800  0.86471500  0.62720900  1
  Ga  Ga66  1  0.70893050  0.06995500  0.62455250  1
  Ga  Ga67  1  0.49901800  0.13528500  0.87279100  1
  Ga  Ga68  1  0.04106950  0.68004500  0.62544750  1
  Ga  Ga69  1  0.50098200  0.86471500  0.87279100  1
  Ga  Ga70  1  0.54106950  0.31995500  0.87455250  1
  Ga  Ga71  1  0.20893050  0.93004500  0.87544750  1
  Ga  Ga72  1  0.79106950  0.06995500  0.87544750  1
  Ga  Ga73  1  0.24901800  0.11471500  0.62279100  1
  Ga  Ga74  1  0.45893050  0.68004500  0.87455250  1
  Ga  Ga75  1  0.74901800  0.88528500  0.87720900  1
  Ga  Ga76  1  0.29106950  0.93004500  0.62455250  1
  Ga  Ga77  1  0.25098200  0.11471500  0.87720900  1
  Ga  Ga78  1  0.75098200  0.88528500  0.62279100  1
  Ga  Ga79  1  0.95893050  0.31995500  0.62544750  1
  Ga  Ga80  1  0.00098200  0.63528500  0.12720900  1
  Ga  Ga81  1  0.99901800  0.36471500  0.12720900  1
  Ga  Ga82  1  0.70893050  0.56995500  0.12455250  1
  Ga  Ga83  1  0.49901800  0.63528500  0.37279100  1
  Ga  Ga84  1  0.04106950  0.18004500  0.12544750  1
  Ga  Ga85  1  0.50098200  0.36471500  0.37279100  1
  Ga  Ga86  1  0.54106950  0.81995500  0.37455250  1
  Ga  Ga87  1  0.20893050  0.43004500  0.37544750  1
  Ga  Ga88  1  0.79106950  0.56995500  0.37544750  1
  Ga  Ga89  1  0.24901800  0.61471500  0.12279100  1
  Ga  Ga90  1  0.45893050  0.18004500  0.37455250  1
  Ga  Ga91  1  0.74901800  0.38528500  0.37720900  1
  Ga  Ga92  1  0.29106950  0.43004500  0.12455250  1
  Ga  Ga93  1  0.25098200  0.61471500  0.37720900  1
  Ga  Ga94  1  0.75098200  0.38528500  0.12279100  1
  Ga  Ga95  1  0.95893050  0.81995500  0.12544750  1
  Se  Se96  1  0.39096250  0.04139150  0.12646100  1
  Se  Se97  1  0.37991700  0.87667900  0.03889700  1
  Se  Se98  1  0.87271450  0.62673150  0.28851000  1
  Se  Se99  1  0.62008300  0.12332100  0.03889700  1
  Se  Se100  1  0.62271450  0.87673150  0.46149000  1
  Se  Se101  1  0.37292450  0.21766650  0.12691700  1
  Se  Se102  1  0.89096250  0.95860850  0.37353900  1
  Se  Se103  1  0.87728550  0.62326850  0.46149000  1
  Se  Se104  1  0.62707550  0.78233350  0.12691700  1
  Se  Se105  1  0.87008300  0.12667900  0.28889700  1
  Se  Se106  1  0.62991700  0.12667900  0.21110300  1
  Se  Se107  1  0.64096250  0.29139150  0.12353900  1
  Se  Se108  1  0.62292450  0.03233350  0.37691700  1
  Se  Se109  1  0.12707550  0.21766650  0.37308300  1
  Se  Se110  1  0.87271450  0.87326850  0.21149000  1
  Se  Se111  1  0.87991700  0.12332100  0.46110300  1
  Se  Se112  1  0.85903750  0.29139150  0.37646100  1
  Se  Se113  1  0.62292450  0.46766650  0.12308300  1
  Se  Se114  1  0.85903750  0.20860850  0.12353900  1
  Se  Se115  1  0.60903750  0.95860850  0.12646100  1
  Se  Se116  1  0.12008300  0.87667900  0.46110300  1
  Se  Se117  1  0.37008300  0.87332100  0.21110300  1
  Se  Se118  1  0.10903750  0.04139150  0.37353900  1
  Se  Se119  1  0.87707550  0.46766650  0.37691700  1
  Se  Se120  1  0.87707550  0.03233350  0.12308300  1
  Se  Se121  1  0.87728550  0.87673150  0.03851000  1
  Se  Se122  1  0.12991700  0.87332100  0.28889700  1
  Se  Se123  1  0.62728550  0.62673150  0.21149000  1
  Se  Se124  1  0.64096250  0.20860850  0.37646100  1
  Se  Se125  1  0.62728550  0.87326850  0.28851000  1
  Se  Se126  1  0.87292450  0.78233350  0.37308300  1
  Se  Se127  1  0.62271450  0.62326850  0.03851000  1
  Se  Se128  1  0.39096250  0.54139150  0.62646100  1
  Se  Se129  1  0.37991700  0.37667900  0.53889700  1
  Se  Se130  1  0.87271450  0.12673150  0.78851000  1
  Se  Se131  1  0.62008300  0.62332100  0.53889700  1
  Se  Se132  1  0.62271450  0.37673150  0.96149000  1
  Se  Se133  1  0.37292450  0.71766650  0.62691700  1
  Se  Se134  1  0.89096250  0.45860850  0.87353900  1
  Se  Se135  1  0.87728550  0.12326850  0.96149000  1
  Se  Se136  1  0.62707550  0.28233350  0.62691700  1
  Se  Se137  1  0.87008300  0.62667900  0.78889700  1
  Se  Se138  1  0.62991700  0.62667900  0.71110300  1
  Se  Se139  1  0.64096250  0.79139150  0.62353900  1
  Se  Se140  1  0.62292450  0.53233350  0.87691700  1
  Se  Se141  1  0.12707550  0.71766650  0.87308300  1
  Se  Se142  1  0.87271450  0.37326850  0.71149000  1
  Se  Se143  1  0.87991700  0.62332100  0.96110300  1
  Se  Se144  1  0.85903750  0.79139150  0.87646100  1
  Se  Se145  1  0.62292450  0.96766650  0.62308300  1
  Se  Se146  1  0.85903750  0.70860850  0.62353900  1
  Se  Se147  1  0.60903750  0.45860850  0.62646100  1
  Se  Se148  1  0.12008300  0.37667900  0.96110300  1
  Se  Se149  1  0.37008300  0.37332100  0.71110300  1
  Se  Se150  1  0.10903750  0.54139150  0.87353900  1
  Se  Se151  1  0.87707550  0.96766650  0.87691700  1
  Se  Se152  1  0.87707550  0.53233350  0.62308300  1
  Se  Se153  1  0.87728550  0.37673150  0.53851000  1
  Se  Se154  1  0.12991700  0.37332100  0.78889700  1
  Se  Se155  1  0.62728550  0.12673150  0.71149000  1
  Se  Se156  1  0.64096250  0.70860850  0.87646100  1
  Se  Se157  1  0.62728550  0.37326850  0.78851000  1
  Se  Se158  1  0.87292450  0.28233350  0.87308300  1
  Se  Se159  1  0.62271450  0.12326850  0.53851000  1
  Se  Se160  1  0.89096250  0.04139150  0.62646100  1
  Se  Se161  1  0.87991700  0.87667900  0.53889700  1
  Se  Se162  1  0.37271450  0.62673150  0.78851000  1
  Se  Se163  1  0.12008300  0.12332100  0.53889700  1
  Se  Se164  1  0.12271450  0.87673150  0.96149000  1
  Se  Se165  1  0.87292450  0.21766650  0.62691700  1
  Se  Se166  1  0.39096250  0.95860850  0.87353900  1
  Se  Se167  1  0.37728550  0.62326850  0.96149000  1
  Se  Se168  1  0.12707550  0.78233350  0.62691700  1
  Se  Se169  1  0.37008300  0.12667900  0.78889700  1
  Se  Se170  1  0.12991700  0.12667900  0.71110300  1
  Se  Se171  1  0.14096250  0.29139150  0.62353900  1
  Se  Se172  1  0.12292450  0.03233350  0.87691700  1
  Se  Se173  1  0.62707550  0.21766650  0.87308300  1
  Se  Se174  1  0.37271450  0.87326850  0.71149000  1
  Se  Se175  1  0.37991700  0.12332100  0.96110300  1
  Se  Se176  1  0.35903750  0.29139150  0.87646100  1
  Se  Se177  1  0.12292450  0.46766650  0.62308300  1
  Se  Se178  1  0.35903750  0.20860850  0.62353900  1
  Se  Se179  1  0.10903750  0.95860850  0.62646100  1
  Se  Se180  1  0.62008300  0.87667900  0.96110300  1
  Se  Se181  1  0.87008300  0.87332100  0.71110300  1
  Se  Se182  1  0.60903750  0.04139150  0.87353900  1
  Se  Se183  1  0.37707550  0.46766650  0.87691700  1
  Se  Se184  1  0.37707550  0.03233350  0.62308300  1
  Se  Se185  1  0.37728550  0.87673150  0.53851000  1
  Se  Se186  1  0.62991700  0.87332100  0.78889700  1
  Se  Se187  1  0.12728550  0.62673150  0.71149000  1
  Se  Se188  1  0.14096250  0.20860850  0.87646100  1
  Se  Se189  1  0.12728550  0.87326850  0.78851000  1
  Se  Se190  1  0.37292450  0.78233350  0.87308300  1
  Se  Se191  1  0.12271450  0.62326850  0.53851000  1
  Se  Se192  1  0.89096250  0.54139150  0.12646100  1
  Se  Se193  1  0.87991700  0.37667900  0.03889700  1
  Se  Se194  1  0.37271450  0.12673150  0.28851000  1
  Se  Se195  1  0.12008300  0.62332100  0.03889700  1
  Se  Se196  1  0.12271450  0.37673150  0.46149000  1
  Se  Se197  1  0.87292450  0.71766650  0.12691700  1
  Se  Se198  1  0.39096250  0.45860850  0.37353900  1
  Se  Se199  1  0.37728550  0.12326850  0.46149000  1
  Se  Se200  1  0.12707550  0.28233350  0.12691700  1
  Se  Se201  1  0.37008300  0.62667900  0.28889700  1
  Se  Se202  1  0.12991700  0.62667900  0.21110300  1
  Se  Se203  1  0.14096250  0.79139150  0.12353900  1
  Se  Se204  1  0.12292450  0.53233350  0.37691700  1
  Se  Se205  1  0.62707550  0.71766650  0.37308300  1
  Se  Se206  1  0.37271450  0.37326850  0.21149000  1
  Se  Se207  1  0.37991700  0.62332100  0.46110300  1
  Se  Se208  1  0.35903750  0.79139150  0.37646100  1
  Se  Se209  1  0.12292450  0.96766650  0.12308300  1
  Se  Se210  1  0.35903750  0.70860850  0.12353900  1
  Se  Se211  1  0.10903750  0.45860850  0.12646100  1
  Se  Se212  1  0.62008300  0.37667900  0.46110300  1
  Se  Se213  1  0.87008300  0.37332100  0.21110300  1
  Se  Se214  1  0.60903750  0.54139150  0.37353900  1
  Se  Se215  1  0.37707550  0.96766650  0.37691700  1
  Se  Se216  1  0.37707550  0.53233350  0.12308300  1
  Se  Se217  1  0.37728550  0.37673150  0.03851000  1
  Se  Se218  1  0.62991700  0.37332100  0.28889700  1
  Se  Se219  1  0.12728550  0.12673150  0.21149000  1
  Se  Se220  1  0.14096250  0.70860850  0.37646100  1
  Se  Se221  1  0.12728550  0.37326850  0.28851000  1
  Se  Se222  1  0.37292450  0.28233350  0.37308300  1
  Se  Se223  1  0.12271450  0.12326850  0.03851000  1
