# generated using pymatgen
data_SbO2
_symmetry_space_group_name_H-M   'P 1'
_cell_length_a   4.91324100
_cell_length_b   5.58158000
_cell_length_c   11.91387200
_cell_angle_alpha   90.00000000
_cell_angle_beta   90.00000000
_cell_angle_gamma   90.00000000
_symmetry_Int_Tables_number   1
_chemical_formula_structural   SbO2
_chemical_formula_sum   'Sb8 O16'
_cell_volume   326.72182848
_cell_formula_units_Z   8
loop_
 _symmetry_equiv_pos_site_id
 _symmetry_equiv_pos_as_xyz
  1  'x, y, z'
loop_
 _atom_site_type_symbol
 _atom_site_label
 _atom_site_symmetry_multiplicity
 _atom_site_fract_x
 _atom_site_fract_y
 _atom_site_fract_z
 _atom_site_occupancy
  Sb  Sb0  1  0.71282400  0.75000000  0.50000000  1
  Sb  Sb1  1  0.75000000  0.11985500  0.25000000  1
  Sb  Sb2  1  0.78717600  0.75000000  0.00000000  1
  Sb  Sb3  1  0.25000000  0.88014500  0.75000000  1
  Sb  Sb4  1  0.28717600  0.25000000  0.50000000  1
  Sb  Sb5  1  0.75000000  0.38014500  0.75000000  1
  Sb  Sb6  1  0.21282400  0.25000000  0.00000000  1
  Sb  Sb7  1  0.25000000  0.61985500  0.25000000  1
  O  O8  1  0.41847900  0.58009800  0.40507700  1
  O  O9  1  0.50250400  0.63526600  0.81237000  1
  O  O10  1  0.00250400  0.13526600  0.68763000  1
  O  O11  1  0.91847900  0.08009800  0.09492300  1
  O  O12  1  0.00250400  0.36473400  0.31237000  1
  O  O13  1  0.58152100  0.08009800  0.40507700  1
  O  O14  1  0.08152100  0.58009800  0.09492300  1
  O  O15  1  0.50250400  0.86473400  0.18763000  1
  O  O16  1  0.41847900  0.91990200  0.59492300  1
  O  O17  1  0.99749600  0.86473400  0.31237000  1
  O  O18  1  0.49749600  0.36473400  0.18763000  1
  O  O19  1  0.08152100  0.91990200  0.90507700  1
  O  O20  1  0.91847900  0.41990200  0.90507700  1
  O  O21  1  0.49749600  0.13526600  0.81237000  1
  O  O22  1  0.99749600  0.63526600  0.68763000  1
  O  O23  1  0.58152100  0.41990200  0.59492300  1
