# generated using pymatgen
data_Nd4(GeS4)3
_symmetry_space_group_name_H-M   'P 1'
_cell_length_a   19.48012558
_cell_length_b   19.48012558
_cell_length_c   8.02154528
_cell_angle_alpha   90.00000000
_cell_angle_beta   90.00000000
_cell_angle_gamma   120.00000000
_symmetry_Int_Tables_number   1
_chemical_formula_structural   Nd4(GeS4)3
_chemical_formula_sum   'Nd24 Ge18 S72'
_cell_volume   2636.16248687
_cell_formula_units_Z   6
loop_
 _symmetry_equiv_pos_site_id
 _symmetry_equiv_pos_as_xyz
  1  'x, y, z'
loop_
 _atom_site_type_symbol
 _atom_site_label
 _atom_site_symmetry_multiplicity
 _atom_site_fract_x
 _atom_site_fract_y
 _atom_site_fract_z
 _atom_site_occupancy
  Nd  Nd0  1  0.10031233  0.43852467  0.37442667  1
  Nd  Nd1  1  0.76697900  0.99512100  0.20776000  1
  Nd  Nd2  1  0.00000000  0.00000000  0.99914700  1
  Nd  Nd3  1  0.67154567  0.10519133  0.54109333  1
  Nd  Nd4  1  0.00487900  0.23302100  0.70776000  1
  Nd  Nd5  1  0.89480867  0.32845433  0.04109333  1
  Nd  Nd6  1  0.56147533  0.89968767  0.87442667  1
  Nd  Nd7  1  0.00000000  0.00000000  0.49914700  1
  Nd  Nd8  1  0.76697900  0.77185800  0.70776000  1
  Nd  Nd9  1  0.43364567  0.32845433  0.54109333  1
  Nd  Nd10  1  0.66666667  0.33333333  0.33248033  1
  Nd  Nd11  1  0.33821233  0.43852467  0.87442667  1
  Nd  Nd12  1  0.67154567  0.56635433  0.04109333  1
  Nd  Nd13  1  0.56147533  0.66178767  0.37442667  1
  Nd  Nd14  1  0.22814200  0.23302100  0.20776000  1
  Nd  Nd15  1  0.66666667  0.33333333  0.83248033  1
  Nd  Nd16  1  0.43364567  0.10519133  0.04109333  1
  Nd  Nd17  1  0.10031233  0.66178767  0.87442667  1
  Nd  Nd18  1  0.33333333  0.66666667  0.66581367  1
  Nd  Nd19  1  0.00487900  0.77185800  0.20776000  1
  Nd  Nd20  1  0.33821233  0.89968767  0.37442667  1
  Nd  Nd21  1  0.22814200  0.99512100  0.70776000  1
  Nd  Nd22  1  0.89480867  0.56635433  0.54109333  1
  Nd  Nd23  1  0.33333333  0.66666667  0.16581367  1
  Ge  Ge24  1  0.81297367  0.01237933  0.65640633  1
  Ge  Ge25  1  0.65428733  0.13392767  0.98973967  1
  Ge  Ge26  1  0.86607233  0.34571267  0.48973967  1
  Ge  Ge27  1  0.53273900  0.85369300  0.32307300  1
  Ge  Ge28  1  0.14630700  0.46726100  0.82307300  1
  Ge  Ge29  1  0.98762067  0.18702633  0.15640633  1
  Ge  Ge30  1  0.47964033  0.34571267  0.98973967  1
  Ge  Ge31  1  0.32095400  0.46726100  0.32307300  1
  Ge  Ge32  1  0.53273900  0.67904600  0.82307300  1
  Ge  Ge33  1  0.19940567  0.18702633  0.65640633  1
  Ge  Ge34  1  0.81297367  0.80059433  0.15640633  1
  Ge  Ge35  1  0.65428733  0.52035967  0.48973967  1
  Ge  Ge36  1  0.14630700  0.67904600  0.32307300  1
  Ge  Ge37  1  0.98762067  0.80059433  0.65640633  1
  Ge  Ge38  1  0.19940567  0.01237933  0.15640633  1
  Ge  Ge39  1  0.86607233  0.52035967  0.98973967  1
  Ge  Ge40  1  0.47964033  0.13392767  0.48973967  1
  Ge  Ge41  1  0.32095400  0.85369300  0.82307300  1
  S  S42  1  0.44690167  0.86781733  0.16518633  1
  S  S43  1  0.06270367  0.39201433  0.02372733  1
  S  S44  1  0.79021167  0.39396733  0.08218633  1
  S  S45  1  0.89240033  0.18062367  0.99333467  1
  S  S46  1  0.72937033  0.00402267  0.85706067  1
  S  S47  1  0.78023500  0.24575100  0.33185300  1
  S  S48  1  0.60798567  0.93729633  0.52372733  1
  S  S49  1  0.99597733  0.27062967  0.35706067  1
  S  S50  1  0.95489000  0.44093300  0.32666800  1
  S  S51  1  0.08758233  0.20115067  0.99851967  1
  S  S52  1  0.66264400  0.05868100  0.19039400  1
  S  S53  1  0.94131900  0.33735600  0.69039400  1
  S  S54  1  0.27042233  0.54312167  0.41551967  1
  S  S55  1  0.79884933  0.91241767  0.49851967  1
  S  S56  1  0.93708900  0.06063400  0.24885300  1
  S  S57  1  0.13218267  0.55309833  0.66518633  1
  S  S58  1  0.93936600  0.06291100  0.74885300  1
  S  S59  1  0.75424900  0.21976500  0.83185300  1
  S  S60  1  0.81937633  0.10759967  0.49333467  1
  S  S61  1  0.55906700  0.04511000  0.82666800  1
  S  S62  1  0.62155667  0.84729033  0.16000133  1
  S  S63  1  0.15270967  0.37844333  0.66000133  1
  S  S64  1  0.60603267  0.20978833  0.58218633  1
  S  S65  1  0.45687833  0.72957767  0.91551967  1
  S  S66  1  0.11356833  0.20115067  0.49851967  1
  S  S67  1  0.72937033  0.72534767  0.35706067  1
  S  S68  1  0.45687833  0.72730067  0.41551967  1
  S  S69  1  0.55906700  0.51395700  0.32666800  1
  S  S70  1  0.39603700  0.33735600  0.19039400  1
  S  S71  1  0.44690167  0.57908433  0.66518633  1
  S  S72  1  0.27465233  0.27062967  0.85706067  1
  S  S73  1  0.66264400  0.60396300  0.69039400  1
  S  S74  1  0.62155667  0.77426633  0.66000133  1
  S  S75  1  0.75424900  0.53448400  0.33185300  1
  S  S76  1  0.32931067  0.39201433  0.52372733  1
  S  S77  1  0.60798567  0.67068933  0.02372733  1
  S  S78  1  0.93708900  0.87645500  0.74885300  1
  S  S79  1  0.46551600  0.24575100  0.83185300  1
  S  S80  1  0.60375567  0.39396733  0.58218633  1
  S  S81  1  0.79884933  0.88643167  0.99851967  1
  S  S82  1  0.60603267  0.39624433  0.08218633  1
  S  S83  1  0.42091567  0.55309833  0.16518633  1
  S  S84  1  0.48604300  0.44093300  0.82666800  1
  S  S85  1  0.22573367  0.37844333  0.16000133  1
  S  S86  1  0.28822333  0.18062367  0.49333467  1
  S  S87  1  0.81937633  0.71177667  0.99333467  1
  S  S88  1  0.27269933  0.54312167  0.91551967  1
  S  S89  1  0.12354500  0.06291100  0.24885300  1
  S  S90  1  0.78023500  0.53448400  0.83185300  1
  S  S91  1  0.39603700  0.05868100  0.69039400  1
  S  S92  1  0.12354500  0.06063400  0.74885300  1
  S  S93  1  0.22573367  0.84729033  0.66000133  1
  S  S94  1  0.06270367  0.67068933  0.52372733  1
  S  S95  1  0.11356833  0.91241767  0.99851967  1
  S  S96  1  0.94131900  0.60396300  0.19039400  1
  S  S97  1  0.32931067  0.93729633  0.02372733  1
  S  S98  1  0.28822333  0.10759967  0.99333467  1
  S  S99  1  0.42091567  0.86781733  0.66518633  1
  S  S100  1  0.99597733  0.72534767  0.85706067  1
  S  S101  1  0.27465233  0.00402267  0.35706067  1
  S  S102  1  0.60375567  0.20978833  0.08218633  1
  S  S103  1  0.13218267  0.57908433  0.16518633  1
  S  S104  1  0.27042233  0.72730067  0.91551967  1
  S  S105  1  0.46551600  0.21976500  0.33185300  1
  S  S106  1  0.27269933  0.72957767  0.41551967  1
  S  S107  1  0.08758233  0.88643167  0.49851967  1
  S  S108  1  0.15270967  0.77426633  0.16000133  1
  S  S109  1  0.89240033  0.71177667  0.49333467  1
  S  S110  1  0.95489000  0.51395700  0.82666800  1
  S  S111  1  0.48604300  0.04511000  0.32666800  1
  S  S112  1  0.93936600  0.87645500  0.24885300  1
  S  S113  1  0.79021167  0.39624433  0.58218633  1
