# generated using pymatgen
data_PNCl2
_symmetry_space_group_name_H-M   'P 1'
_cell_length_a   11.40364600
_cell_length_b   11.40364600
_cell_length_c   6.32930000
_cell_angle_alpha   90.00000000
_cell_angle_beta   90.00000000
_cell_angle_gamma   90.00000000
_symmetry_Int_Tables_number   1
_chemical_formula_structural   PNCl2
_chemical_formula_sum   'P8 N8 Cl16'
_cell_volume   823.08205925
_cell_formula_units_Z   8
loop_
 _symmetry_equiv_pos_site_id
 _symmetry_equiv_pos_as_xyz
  1  'x, y, z'
loop_
 _atom_site_type_symbol
 _atom_site_label
 _atom_site_symmetry_multiplicity
 _atom_site_fract_x
 _atom_site_fract_y
 _atom_site_fract_z
 _atom_site_occupancy
  P  P0  1  0.33135900  0.54085000  0.05710900  1
  P  P1  1  0.04085000  0.16864100  0.55710900  1
  P  P2  1  0.16864100  0.95915000  0.44289100  1
  P  P3  1  0.95915000  0.83135900  0.55710900  1
  P  P4  1  0.83135900  0.04085000  0.44289100  1
  P  P5  1  0.66864100  0.45915000  0.05710900  1
  P  P6  1  0.54085000  0.66864100  0.94289100  1
  P  P7  1  0.45915000  0.33135900  0.94289100  1
  N  N8  1  0.13087900  0.09242600  0.42482500  1
  N  N9  1  0.36912100  0.40757400  0.07517500  1
  N  N10  1  0.86912100  0.90757400  0.42482500  1
  N  N11  1  0.90757400  0.13087900  0.57517500  1
  N  N12  1  0.09242600  0.86912100  0.57517500  1
  N  N13  1  0.63087900  0.59242600  0.07517500  1
  N  N14  1  0.40757400  0.63087900  0.92482500  1
  N  N15  1  0.59242600  0.36912100  0.92482500  1
  Cl  Cl16  1  0.69402500  0.40372800  0.35668900  1
  Cl  Cl17  1  0.16880900  0.55053500  0.93238200  1
  Cl  Cl18  1  0.30597500  0.59627200  0.35668900  1
  Cl  Cl19  1  0.66880900  0.05053500  0.56761800  1
  Cl  Cl20  1  0.59627200  0.69402500  0.64331100  1
  Cl  Cl21  1  0.55053500  0.83119100  0.06761800  1
  Cl  Cl22  1  0.83119100  0.44946500  0.93238200  1
  Cl  Cl23  1  0.90372800  0.80597500  0.85668900  1
  Cl  Cl24  1  0.05053500  0.33119100  0.43238200  1
  Cl  Cl25  1  0.80597500  0.09627200  0.14331100  1
  Cl  Cl26  1  0.94946500  0.66880900  0.43238200  1
  Cl  Cl27  1  0.33119100  0.94946500  0.56761800  1
  Cl  Cl28  1  0.44946500  0.16880900  0.06761800  1
  Cl  Cl29  1  0.09627200  0.19402500  0.85668900  1
  Cl  Cl30  1  0.40372800  0.30597500  0.64331100  1
  Cl  Cl31  1  0.19402500  0.90372800  0.14331100  1
