# generated using pymatgen
data_NaSbCO2F3
_symmetry_space_group_name_H-M   'P 1'
_cell_length_a   17.53036400
_cell_length_b   6.42899000
_cell_length_c   8.52205207
_cell_angle_alpha   90.00000000
_cell_angle_beta   96.74725930
_cell_angle_gamma   90.00000000
_symmetry_Int_Tables_number   1
_chemical_formula_structural   NaSbCO2F3
_chemical_formula_sum   'Na8 Sb8 C8 O16 F24'
_cell_volume   953.80482083
_cell_formula_units_Z   8
loop_
 _symmetry_equiv_pos_site_id
 _symmetry_equiv_pos_as_xyz
  1  'x, y, z'
loop_
 _atom_site_type_symbol
 _atom_site_label
 _atom_site_symmetry_multiplicity
 _atom_site_fract_x
 _atom_site_fract_y
 _atom_site_fract_z
 _atom_site_occupancy
  Na  Na0  1  0.89401850  0.38474650  0.56862600  1
  Na  Na1  1  0.81491700  0.11827800  0.21788700  1
  Na  Na2  1  0.89401850  0.61525350  0.06862600  1
  Na  Na3  1  0.81491700  0.88172200  0.71788700  1
  Na  Na4  1  0.39401850  0.88474650  0.56862600  1
  Na  Na5  1  0.31491700  0.61827800  0.21788700  1
  Na  Na6  1  0.39401850  0.11525350  0.06862600  1
  Na  Na7  1  0.31491700  0.38172200  0.71788700  1
  Sb  Sb8  1  0.99889750  0.87643150  0.49630700  1
  Sb  Sb9  1  0.71073800  0.62839000  0.28981700  1
  Sb  Sb10  1  0.71073800  0.37161000  0.78981700  1
  Sb  Sb11  1  0.99889750  0.12356850  0.99630700  1
  Sb  Sb12  1  0.49889750  0.37643150  0.49630700  1
  Sb  Sb13  1  0.21073800  0.12839000  0.28981700  1
  Sb  Sb14  1  0.21073800  0.87161000  0.78981700  1
  Sb  Sb15  1  0.49889750  0.62356850  0.99630700  1
  C  C16  1  0.57383100  0.92860200  0.42425900  1
  C  C17  1  0.63710350  0.92547250  0.86990000  1
  C  C18  1  0.57383100  0.07139800  0.92425900  1
  C  C19  1  0.63710350  0.07452750  0.36990000  1
  C  C20  1  0.07383100  0.42860200  0.42425900  1
  C  C21  1  0.13710350  0.42547250  0.86990000  1
  C  C22  1  0.07383100  0.57139800  0.92425900  1
  C  C23  1  0.13710350  0.57452750  0.36990000  1
  O  O24  1  0.57905600  0.26307800  0.89628200  1
  O  O25  1  0.68864300  0.99029400  0.29655500  1
  O  O26  1  0.68864300  0.00970600  0.79655500  1
  O  O27  1  0.57905600  0.73692200  0.39628200  1
  O  O28  1  0.63316550  0.73449250  0.90140300  1
  O  O29  1  0.63316550  0.26550750  0.40140300  1
  O  O30  1  0.52108150  0.01364350  0.49367600  1
  O  O31  1  0.52108150  0.98635650  0.99367600  1
  O  O32  1  0.07905600  0.76307800  0.89628200  1
  O  O33  1  0.18864300  0.49029400  0.29655500  1
  O  O34  1  0.18864300  0.50970600  0.79655500  1
  O  O35  1  0.07905600  0.23692200  0.39628200  1
  O  O36  1  0.13316550  0.23449250  0.90140300  1
  O  O37  1  0.13316550  0.76550750  0.40140300  1
  O  O38  1  0.02108150  0.51364350  0.49367600  1
  O  O39  1  0.02108150  0.48635650  0.99367600  1
  F  F40  1  0.79765400  0.22888600  0.69504800  1
  F  F41  1  0.97192900  0.80588000  0.27058000  1
  F  F42  1  0.90980550  0.73496950  0.58359800  1
  F  F43  1  0.79862900  0.58103700  0.84434300  1
  F  F44  1  0.79765400  0.77111400  0.19504800  1
  F  F45  1  0.90980550  0.26503050  0.08359800  1
  F  F46  1  0.91281550  0.08907750  0.43560300  1
  F  F47  1  0.74061600  0.69666600  0.51461700  1
  F  F48  1  0.79862900  0.41896300  0.34434300  1
  F  F49  1  0.74061600  0.30333400  0.01461700  1
  F  F50  1  0.91281550  0.91092250  0.93560300  1
  F  F51  1  0.97192900  0.19412000  0.77058000  1
  F  F52  1  0.29765400  0.72888600  0.69504800  1
  F  F53  1  0.47192900  0.30588000  0.27058000  1
  F  F54  1  0.40980550  0.23496950  0.58359800  1
  F  F55  1  0.29862900  0.08103700  0.84434300  1
  F  F56  1  0.29765400  0.27111400  0.19504800  1
  F  F57  1  0.40980550  0.76503050  0.08359800  1
  F  F58  1  0.41281550  0.58907750  0.43560300  1
  F  F59  1  0.24061600  0.19666600  0.51461700  1
  F  F60  1  0.29862900  0.91896300  0.34434300  1
  F  F61  1  0.24061600  0.80333400  0.01461700  1
  F  F62  1  0.41281550  0.41092250  0.93560300  1
  F  F63  1  0.47192900  0.69412000  0.77058000  1
