# generated using pymatgen
data_K13Na2W7N19
_symmetry_space_group_name_H-M   'P 1'
_cell_length_a   6.80307100
_cell_length_b   12.62373190
_cell_length_c   19.45111042
_cell_angle_alpha   90.59144093
_cell_angle_beta   93.97527085
_cell_angle_gamma   99.81106328
_symmetry_Int_Tables_number   1
_chemical_formula_structural   K13Na2W7N19
_chemical_formula_sum   'K26 Na4 W14 N38'
_cell_volume   1641.65702955
_cell_formula_units_Z   2
loop_
 _symmetry_equiv_pos_site_id
 _symmetry_equiv_pos_as_xyz
  1  'x, y, z'
loop_
 _atom_site_type_symbol
 _atom_site_label
 _atom_site_symmetry_multiplicity
 _atom_site_fract_x
 _atom_site_fract_y
 _atom_site_fract_z
 _atom_site_occupancy
  K  K0  1  0.92418800  0.02760000  0.39027300  1
  K  K1  1  0.87517400  0.90959900  0.89690700  1
  K  K2  1  0.09208400  0.33013200  0.20532800  1
  K  K3  1  0.97253900  0.34663100  0.01617600  1
  K  K4  1  0.12482600  0.09040100  0.10309300  1
  K  K5  1  0.60618400  0.89815300  0.52998200  1
  K  K6  1  0.25329000  0.74118600  0.61662500  1
  K  K7  1  0.72041300  0.08284400  0.00066900  1
  K  K8  1  0.74671000  0.25881400  0.38337500  1
  K  K9  1  0.76655900  0.76505200  0.27893600  1
  K  K10  1  0.07581200  0.97240000  0.60972700  1
  K  K11  1  0.72356600  0.01606800  0.19826000  1
  K  K12  1  0.90791600  0.66986800  0.79467200  1
  K  K13  1  0.58377200  0.46758300  0.28122300  1
  K  K14  1  0.15640500  0.82891500  0.17142000  1
  K  K15  1  0.84359500  0.17108500  0.82858000  1
  K  K16  1  0.38120600  0.86511000  0.35033900  1
  K  K17  1  0.02746100  0.65336900  0.98382400  1
  K  K18  1  0.27643400  0.98393200  0.80174000  1
  K  K19  1  0.61879400  0.13489000  0.64966100  1
  K  K20  1  0.39381600  0.10184700  0.47001800  1
  K  K21  1  0.41622800  0.53241700  0.71877700  1
  K  K22  1  0.23344100  0.23494800  0.72106400  1
  K  K23  1  0.49134900  0.37796000  0.55949900  1
  K  K24  1  0.50865100  0.62204000  0.44050100  1
  K  K25  1  0.27958700  0.91715600  0.99933100  1
  Na  Na26  1  0.60645100  0.36548100  0.85024600  1
  Na  Na27  1  0.39354900  0.63451900  0.14975400  1
  Na  Na28  1  0.00000000  0.50000000  0.50000000  1
  Na  Na29  1  0.50000000  0.50000000  0.00000000  1
  W  W30  1  0.75132000  0.65439500  0.60775400  1
  W  W31  1  0.41481900  0.73901100  0.87447500  1
  W  W32  1  0.67916600  0.78654000  0.05517600  1
  W  W33  1  0.86038900  0.54693900  0.13861900  1
  W  W34  1  0.24868000  0.34560500  0.39224600  1
  W  W35  1  0.13879900  0.59401300  0.30491300  1
  W  W36  1  0.13961100  0.45306100  0.86138100  1
  W  W37  1  0.33393500  0.11971800  0.27815300  1
  W  W38  1  0.58518100  0.26098900  0.12552500  1
  W  W39  1  0.32083400  0.21346000  0.94482400  1
  W  W40  1  0.66606500  0.88028200  0.72184700  1
  W  W41  1  0.00886400  0.23524200  0.54894100  1
  W  W42  1  0.86120100  0.40598700  0.69508700  1
  W  W43  1  0.99113600  0.76475800  0.45105900  1
  N  N44  1  0.13775500  0.00534900  0.25333200  1
  N  N45  1  0.91214100  0.88271800  0.05687500  1
  N  N46  1  0.37663800  0.65268600  0.27431900  1
  N  N47  1  0.80813000  0.12453500  0.52016900  1
  N  N48  1  0.50706600  0.39650100  0.41852600  1
  N  N49  1  0.42518100  0.20039200  0.19663400  1
  N  N50  1  0.91554100  0.47038400  0.90134200  1
  N  N51  1  0.54312000  0.07021600  0.32248000  1
  N  N52  1  0.49293400  0.60349900  0.58147400  1
  N  N53  1  0.84929900  0.54968900  0.66694900  1
  N  N54  1  0.49480800  0.16389000  0.88984300  1
  N  N55  1  0.06742100  0.40318100  0.76850600  1
  N  N56  1  0.77664800  0.81855200  0.41428900  1
  N  N57  1  0.08445900  0.52961600  0.09865800  1
  N  N58  1  0.56517800  0.77011000  0.96031600  1
  N  N59  1  0.45688000  0.92978400  0.67752000  1
  N  N60  1  0.80131700  0.19730600  0.12197200  1
  N  N61  1  0.86224500  0.99465100  0.74666800  1
  N  N62  1  0.19868300  0.80269400  0.87802800  1
  N  N63  1  0.22335200  0.18144800  0.58571100  1
  N  N64  1  0.57481900  0.79960800  0.80336600  1
  N  N65  1  0.22537600  0.21461300  0.34231400  1
  N  N66  1  0.19187000  0.87546500  0.47983100  1
  N  N67  1  0.50519200  0.83611000  0.11015700  1
  N  N68  1  0.09768400  0.32751100  0.47222400  1
  N  N69  1  0.43482200  0.22989000  0.03968400  1
  N  N70  1  0.93257900  0.59681900  0.23149400  1
  N  N71  1  0.27579100  0.35600300  0.91239500  1
  N  N72  1  0.08100800  0.67965300  0.37792400  1
  N  N73  1  0.67847500  0.41353700  0.13970900  1
  N  N74  1  0.72420900  0.64399700  0.08760500  1
  N  N75  1  0.62336200  0.34731400  0.72568100  1
  N  N76  1  0.08785900  0.11728200  0.94312500  1
  N  N77  1  0.32152500  0.58646300  0.86029100  1
  N  N78  1  0.77462400  0.78538700  0.65768600  1
  N  N79  1  0.90231600  0.67248900  0.52777600  1
  N  N80  1  0.15070100  0.45031100  0.33305100  1
  N  N81  1  0.91899200  0.32034700  0.62207600  1
