# generated using pymatgen
data_Ba3GaP3
_symmetry_space_group_name_H-M   'P 1'
_cell_length_a   6.76680400
_cell_length_b   19.63896800
_cell_length_c   13.14156500
_cell_angle_alpha   90.00000000
_cell_angle_beta   90.00000000
_cell_angle_gamma   90.00000000
_symmetry_Int_Tables_number   1
_chemical_formula_structural   Ba3GaP3
_chemical_formula_sum   'Ba24 Ga8 P24'
_cell_volume   1746.42261807
_cell_formula_units_Z   8
loop_
 _symmetry_equiv_pos_site_id
 _symmetry_equiv_pos_as_xyz
  1  'x, y, z'
loop_
 _atom_site_type_symbol
 _atom_site_label
 _atom_site_symmetry_multiplicity
 _atom_site_fract_x
 _atom_site_fract_y
 _atom_site_fract_z
 _atom_site_occupancy
  Ba  Ba0  1  0.17237400  0.00000000  0.34916800  1
  Ba  Ba1  1  0.67237400  0.00000000  0.15083200  1
  Ba  Ba2  1  0.32762600  0.00000000  0.84916800  1
  Ba  Ba3  1  0.82762600  0.00000000  0.65083200  1
  Ba  Ba4  1  0.18983050  0.32446650  0.87036300  1
  Ba  Ba5  1  0.18983050  0.17553350  0.62963700  1
  Ba  Ba6  1  0.81016950  0.17553350  0.37036300  1
  Ba  Ba7  1  0.81016950  0.32446650  0.12963700  1
  Ba  Ba8  1  0.31016950  0.17553350  0.12963700  1
  Ba  Ba9  1  0.31016950  0.32446650  0.37036300  1
  Ba  Ba10  1  0.68983050  0.32446650  0.62963700  1
  Ba  Ba11  1  0.68983050  0.17553350  0.87036300  1
  Ba  Ba12  1  0.67237400  0.50000000  0.34916800  1
  Ba  Ba13  1  0.17237400  0.50000000  0.15083200  1
  Ba  Ba14  1  0.82762600  0.50000000  0.84916800  1
  Ba  Ba15  1  0.32762600  0.50000000  0.65083200  1
  Ba  Ba16  1  0.68983050  0.82446650  0.87036300  1
  Ba  Ba17  1  0.68983050  0.67553350  0.62963700  1
  Ba  Ba18  1  0.31016950  0.67553350  0.37036300  1
  Ba  Ba19  1  0.31016950  0.82446650  0.12963700  1
  Ba  Ba20  1  0.81016950  0.67553350  0.12963700  1
  Ba  Ba21  1  0.81016950  0.82446650  0.37036300  1
  Ba  Ba22  1  0.18983050  0.82446650  0.62963700  1
  Ba  Ba23  1  0.18983050  0.67553350  0.87036300  1
  Ga  Ga24  1  0.50000000  0.41638500  0.00000000  1
  Ga  Ga25  1  0.50000000  0.08361500  0.50000000  1
  Ga  Ga26  1  0.00000000  0.08361500  0.00000000  1
  Ga  Ga27  1  0.00000000  0.41638500  0.50000000  1
  Ga  Ga28  1  0.00000000  0.91638500  0.00000000  1
  Ga  Ga29  1  0.00000000  0.58361500  0.50000000  1
  Ga  Ga30  1  0.50000000  0.58361500  0.00000000  1
  Ga  Ga31  1  0.50000000  0.91638500  0.50000000  1
  P  P32  1  0.69881400  0.00000000  0.40490200  1
  P  P33  1  0.19881400  0.00000000  0.09509800  1
  P  P34  1  0.80118600  0.00000000  0.90490200  1
  P  P35  1  0.30118600  0.00000000  0.59509800  1
  P  P36  1  0.80940650  0.34332750  0.38317200  1
  P  P37  1  0.80940650  0.15667250  0.11682800  1
  P  P38  1  0.19059350  0.15667250  0.88317200  1
  P  P39  1  0.19059350  0.34332750  0.61682800  1
  P  P40  1  0.69059350  0.15667250  0.61682800  1
  P  P41  1  0.69059350  0.34332750  0.88317200  1
  P  P42  1  0.30940650  0.34332750  0.11682800  1
  P  P43  1  0.30940650  0.15667250  0.38317200  1
  P  P44  1  0.19881400  0.50000000  0.40490200  1
  P  P45  1  0.69881400  0.50000000  0.09509800  1
  P  P46  1  0.30118600  0.50000000  0.90490200  1
  P  P47  1  0.80118600  0.50000000  0.59509800  1
  P  P48  1  0.30940650  0.84332750  0.38317200  1
  P  P49  1  0.30940650  0.65667250  0.11682800  1
  P  P50  1  0.69059350  0.65667250  0.88317200  1
  P  P51  1  0.69059350  0.84332750  0.61682800  1
  P  P52  1  0.19059350  0.65667250  0.61682800  1
  P  P53  1  0.19059350  0.84332750  0.88317200  1
  P  P54  1  0.80940650  0.84332750  0.11682800  1
  P  P55  1  0.80940650  0.65667250  0.38317200  1
