# generated using pymatgen
data_KAu(SO4)2
_symmetry_space_group_name_H-M   'P 1'
_cell_length_a   11.39389200
_cell_length_b   7.56591200
_cell_length_c   9.65347921
_cell_angle_alpha   90.00000000
_cell_angle_beta   118.29599143
_cell_angle_gamma   90.00000000
_symmetry_Int_Tables_number   1
_chemical_formula_structural   KAu(SO4)2
_chemical_formula_sum   'K4 Au4 S8 O32'
_cell_volume   732.74320373
_cell_formula_units_Z   4
loop_
 _symmetry_equiv_pos_site_id
 _symmetry_equiv_pos_as_xyz
  1  'x, y, z'
loop_
 _atom_site_type_symbol
 _atom_site_label
 _atom_site_symmetry_multiplicity
 _atom_site_fract_x
 _atom_site_fract_y
 _atom_site_fract_z
 _atom_site_occupancy
  K  K0  1  0.50000000  0.51887300  0.75000000  1
  K  K1  1  0.00000000  0.98112700  0.25000000  1
  K  K2  1  0.00000000  0.01887300  0.75000000  1
  K  K3  1  0.50000000  0.48112700  0.25000000  1
  Au  Au4  1  0.50000000  0.00000000  0.50000000  1
  Au  Au5  1  0.00000000  0.50000000  0.00000000  1
  Au  Au6  1  0.00000000  0.50000000  0.50000000  1
  Au  Au7  1  0.50000000  0.00000000  0.00000000  1
  S  S8  1  0.69704150  0.01811250  0.85911200  1
  S  S9  1  0.30295850  0.01811250  0.64088800  1
  S  S10  1  0.19704150  0.48188750  0.35911200  1
  S  S11  1  0.80295850  0.48188750  0.14088800  1
  S  S12  1  0.19704150  0.51811250  0.85911200  1
  S  S13  1  0.80295850  0.51811250  0.64088800  1
  S  S14  1  0.69704150  0.98188750  0.35911200  1
  S  S15  1  0.30295850  0.98188750  0.14088800  1
  O  O16  1  0.35239000  0.19648900  0.68066800  1
  O  O17  1  0.38522200  0.89213000  0.78302700  1
  O  O18  1  0.83817850  0.98868850  0.91465800  1
  O  O19  1  0.32850650  0.93883050  0.50860000  1
  O  O20  1  0.66182150  0.51131150  0.08534200  1
  O  O21  1  0.16182150  0.98868850  0.58534200  1
  O  O22  1  0.11477800  0.60787000  0.21697300  1
  O  O23  1  0.82850650  0.56116950  0.00860000  1
  O  O24  1  0.88522200  0.60787000  0.28302700  1
  O  O25  1  0.67149350  0.93883050  0.99140000  1
  O  O26  1  0.61477800  0.89213000  0.71697300  1
  O  O27  1  0.14761000  0.30351100  0.31933200  1
  O  O28  1  0.35239000  0.80351100  0.18066800  1
  O  O29  1  0.14761000  0.69648900  0.81933200  1
  O  O30  1  0.33817850  0.51131150  0.41465800  1
  O  O31  1  0.17149350  0.56116950  0.49140000  1
  O  O32  1  0.85239000  0.69648900  0.68066800  1
  O  O33  1  0.88522200  0.39213000  0.78302700  1
  O  O34  1  0.33817850  0.48868850  0.91465800  1
  O  O35  1  0.82850650  0.43883050  0.50860000  1
  O  O36  1  0.16182150  0.01131150  0.08534200  1
  O  O37  1  0.66182150  0.48868850  0.58534200  1
  O  O38  1  0.61477800  0.10787000  0.21697300  1
  O  O39  1  0.32850650  0.06116950  0.00860000  1
  O  O40  1  0.38522200  0.10787000  0.28302700  1
  O  O41  1  0.17149350  0.43883050  0.99140000  1
  O  O42  1  0.11477800  0.39213000  0.71697300  1
  O  O43  1  0.64761000  0.80351100  0.31933200  1
  O  O44  1  0.85239000  0.30351100  0.18066800  1
  O  O45  1  0.64761000  0.19648900  0.81933200  1
  O  O46  1  0.83817850  0.01131150  0.41465800  1
  O  O47  1  0.67149350  0.06116950  0.49140000  1
