# generated using pymatgen
data_InBiO3
_symmetry_space_group_name_H-M   'P 1'
_cell_length_a   5.71046200
_cell_length_b   6.05481900
_cell_length_c   8.41845500
_cell_angle_alpha   90.00000000
_cell_angle_beta   90.00000000
_cell_angle_gamma   90.00000000
_symmetry_Int_Tables_number   1
_chemical_formula_structural   InBiO3
_chemical_formula_sum   'In4 Bi4 O12'
_cell_volume   291.07493270
_cell_formula_units_Z   4
loop_
 _symmetry_equiv_pos_site_id
 _symmetry_equiv_pos_as_xyz
  1  'x, y, z'
loop_
 _atom_site_type_symbol
 _atom_site_label
 _atom_site_symmetry_multiplicity
 _atom_site_fract_x
 _atom_site_fract_y
 _atom_site_fract_z
 _atom_site_occupancy
  In  In0  1  0.99951000  0.50058200  0.48480300  1
  In  In1  1  0.00049000  0.49941800  0.98480300  1
  In  In2  1  0.49951000  0.99941800  0.98480300  1
  In  In3  1  0.50049000  0.00058200  0.48480300  1
  Bi  Bi4  1  0.99832200  0.93883100  0.20697300  1
  Bi  Bi5  1  0.50167800  0.43883100  0.20697300  1
  Bi  Bi6  1  0.49832200  0.56116900  0.70697300  1
  Bi  Bi7  1  0.00167800  0.06116900  0.70697300  1
  O  O8  1  0.80221800  0.79293500  0.56508100  1
  O  O9  1  0.11629400  0.44912700  0.74238700  1
  O  O10  1  0.88370600  0.55087300  0.24238700  1
  O  O11  1  0.15916700  0.16188800  0.47105700  1
  O  O12  1  0.65916700  0.33811200  0.97105700  1
  O  O13  1  0.34083300  0.66188800  0.47105700  1
  O  O14  1  0.84083300  0.83811200  0.97105700  1
  O  O15  1  0.61629400  0.05087300  0.24238700  1
  O  O16  1  0.19778200  0.20706500  0.06508100  1
  O  O17  1  0.69778200  0.29293500  0.56508100  1
  O  O18  1  0.38370600  0.94912700  0.74238700  1
  O  O19  1  0.30221800  0.70706500  0.06508100  1
