# generated using pymatgen
data_ReO2F3
_symmetry_space_group_name_H-M   'P 1'
_cell_length_a   10.43286600
_cell_length_b   11.45183400
_cell_length_c   13.87851600
_cell_angle_alpha   90.00000000
_cell_angle_beta   90.00000000
_cell_angle_gamma   90.00000000
_symmetry_Int_Tables_number   1
_chemical_formula_structural   ReO2F3
_chemical_formula_sum   'Re16 O32 F48'
_cell_volume   1658.14193855
_cell_formula_units_Z   16
loop_
 _symmetry_equiv_pos_site_id
 _symmetry_equiv_pos_as_xyz
  1  'x, y, z'
loop_
 _atom_site_type_symbol
 _atom_site_label
 _atom_site_symmetry_multiplicity
 _atom_site_fract_x
 _atom_site_fract_y
 _atom_site_fract_z
 _atom_site_occupancy
  Re  Re0  1  0.50000000  0.73898300  0.50000000  1
  Re  Re1  1  0.50000000  0.23898300  0.00000000  1
  Re  Re2  1  0.66836800  0.00000000  0.67633700  1
  Re  Re3  1  0.50000000  0.26101700  0.50000000  1
  Re  Re4  1  0.83163200  0.00000000  0.17633700  1
  Re  Re5  1  0.50000000  0.76101700  0.00000000  1
  Re  Re6  1  0.16836800  0.00000000  0.82366300  1
  Re  Re7  1  0.33163200  0.00000000  0.32366300  1
  Re  Re8  1  0.00000000  0.23898300  0.50000000  1
  Re  Re9  1  0.00000000  0.73898300  0.00000000  1
  Re  Re10  1  0.16836800  0.50000000  0.67633700  1
  Re  Re11  1  0.00000000  0.76101700  0.50000000  1
  Re  Re12  1  0.33163200  0.50000000  0.17633700  1
  Re  Re13  1  0.00000000  0.26101700  0.00000000  1
  Re  Re14  1  0.66836800  0.50000000  0.82366300  1
  Re  Re15  1  0.83163200  0.50000000  0.32366300  1
  O  O16  1  0.26909850  0.88422650  0.26266900  1
  O  O17  1  0.56905650  0.35455350  0.58022700  1
  O  O18  1  0.73090150  0.11577350  0.73733100  1
  O  O19  1  0.76909850  0.88422650  0.23733100  1
  O  O20  1  0.56905650  0.85455350  0.91977300  1
  O  O21  1  0.73090150  0.88422650  0.73733100  1
  O  O22  1  0.43094350  0.64544650  0.41977300  1
  O  O23  1  0.56905650  0.64544650  0.58022700  1
  O  O24  1  0.56905650  0.14544650  0.91977300  1
  O  O25  1  0.23090150  0.11577350  0.76266900  1
  O  O26  1  0.43094350  0.35455350  0.41977300  1
  O  O27  1  0.76909850  0.11577350  0.23733100  1
  O  O28  1  0.23090150  0.88422650  0.76266900  1
  O  O29  1  0.26909850  0.11577350  0.26266900  1
  O  O30  1  0.43094350  0.85455350  0.08022700  1
  O  O31  1  0.43094350  0.14544650  0.08022700  1
  O  O32  1  0.76909850  0.38422650  0.26266900  1
  O  O33  1  0.06905650  0.85455350  0.58022700  1
  O  O34  1  0.23090150  0.61577350  0.73733100  1
  O  O35  1  0.26909850  0.38422650  0.23733100  1
  O  O36  1  0.06905650  0.35455350  0.91977300  1
  O  O37  1  0.23090150  0.38422650  0.73733100  1
  O  O38  1  0.93094350  0.14544650  0.41977300  1
  O  O39  1  0.06905650  0.14544650  0.58022700  1
  O  O40  1  0.06905650  0.64544650  0.91977300  1
  O  O41  1  0.73090150  0.61577350  0.76266900  1
  O  O42  1  0.93094350  0.85455350  0.41977300  1
  O  O43  1  0.26909850  0.61577350  0.23733100  1
  O  O44  1  0.73090150  0.38422650  0.76266900  1
  O  O45  1  0.76909850  0.61577350  0.26266900  1
  O  O46  1  0.93094350  0.35455350  0.08022700  1
  O  O47  1  0.93094350  0.64544650  0.08022700  1
  F  F48  1  0.78490000  0.00000000  0.57331200  1
  F  F49  1  0.57154350  0.11589850  0.58009500  1
  F  F50  1  0.42845650  0.38410150  0.08009500  1
  F  F51  1  0.64554850  0.77519250  0.42726400  1
  F  F52  1  0.99484600  0.00000000  0.23221200  1
  F  F53  1  0.49484600  0.00000000  0.26778800  1
  F  F54  1  0.21510000  0.00000000  0.42668800  1
  F  F55  1  0.64554850  0.72480750  0.07273600  1
  F  F56  1  0.64554850  0.22480750  0.42726400  1
  F  F57  1  0.35445150  0.72480750  0.92726400  1
  F  F58  1  0.28490000  0.00000000  0.92668800  1
  F  F59  1  0.00515400  0.00000000  0.76778800  1
  F  F60  1  0.42845650  0.11589850  0.41990500  1
  F  F61  1  0.50515400  0.00000000  0.73221200  1
  F  F62  1  0.57154350  0.61589850  0.91990500  1
  F  F63  1  0.35445150  0.77519250  0.57273600  1
  F  F64  1  0.64554850  0.27519250  0.07273600  1
  F  F65  1  0.57154350  0.38410150  0.91990500  1
  F  F66  1  0.71510000  0.00000000  0.07331200  1
  F  F67  1  0.57154350  0.88410150  0.58009500  1
  F  F68  1  0.35445150  0.27519250  0.92726400  1
  F  F69  1  0.35445150  0.22480750  0.57273600  1
  F  F70  1  0.42845650  0.88410150  0.41990500  1
  F  F71  1  0.42845650  0.61589850  0.08009500  1
  F  F72  1  0.28490000  0.50000000  0.57331200  1
  F  F73  1  0.07154350  0.61589850  0.58009500  1
  F  F74  1  0.92845650  0.88410150  0.08009500  1
  F  F75  1  0.14554850  0.27519250  0.42726400  1
  F  F76  1  0.49484600  0.50000000  0.23221200  1
  F  F77  1  0.99484600  0.50000000  0.26778800  1
  F  F78  1  0.71510000  0.50000000  0.42668800  1
  F  F79  1  0.14554850  0.22480750  0.07273600  1
  F  F80  1  0.14554850  0.72480750  0.42726400  1
  F  F81  1  0.85445150  0.22480750  0.92726400  1
  F  F82  1  0.78490000  0.50000000  0.92668800  1
  F  F83  1  0.50515400  0.50000000  0.76778800  1
  F  F84  1  0.92845650  0.61589850  0.41990500  1
  F  F85  1  0.00515400  0.50000000  0.73221200  1
  F  F86  1  0.07154350  0.11589850  0.91990500  1
  F  F87  1  0.85445150  0.27519250  0.57273600  1
  F  F88  1  0.14554850  0.77519250  0.07273600  1
  F  F89  1  0.07154350  0.88410150  0.91990500  1
  F  F90  1  0.21510000  0.50000000  0.07331200  1
  F  F91  1  0.07154350  0.38410150  0.58009500  1
  F  F92  1  0.85445150  0.77519250  0.92726400  1
  F  F93  1  0.85445150  0.72480750  0.57273600  1
  F  F94  1  0.92845650  0.38410150  0.41990500  1
  F  F95  1  0.92845650  0.11589850  0.08009500  1
