# generated using pymatgen
data_Cs2Sb2OF10
_symmetry_space_group_name_H-M   'P 1'
_cell_length_a   7.59680100
_cell_length_b   5.46517900
_cell_length_c   14.27334705
_cell_angle_alpha   90.00000000
_cell_angle_beta   100.59655949
_cell_angle_gamma   90.00000000
_symmetry_Int_Tables_number   1
_chemical_formula_structural   Cs2Sb2OF10
_chemical_formula_sum   'Cs4 Sb4 O2 F20'
_cell_volume   582.49311975
_cell_formula_units_Z   2
loop_
 _symmetry_equiv_pos_site_id
 _symmetry_equiv_pos_as_xyz
  1  'x, y, z'
loop_
 _atom_site_type_symbol
 _atom_site_label
 _atom_site_symmetry_multiplicity
 _atom_site_fract_x
 _atom_site_fract_y
 _atom_site_fract_z
 _atom_site_occupancy
  Cs  Cs0  1  0.23456800  0.59049000  0.90720200  1
  Cs  Cs1  1  0.23456800  0.40951000  0.40720200  1
  Cs  Cs2  1  0.76543200  0.40951000  0.09279800  1
  Cs  Cs3  1  0.76543200  0.59049000  0.59279800  1
  Sb  Sb4  1  0.29377100  0.98319600  0.16649300  1
  Sb  Sb5  1  0.29377100  0.01680400  0.66649300  1
  Sb  Sb6  1  0.70622900  0.98319600  0.33350700  1
  Sb  Sb7  1  0.70622900  0.01680400  0.83350700  1
  O  O8  1  0.50000000  0.87018100  0.75000000  1
  O  O9  1  0.50000000  0.12981900  0.25000000  1
  F  F10  1  0.84793300  0.26830700  0.31653500  1
  F  F11  1  0.58044500  0.30687700  0.86185700  1
  F  F12  1  0.78967500  0.83399500  0.22721800  1
  F  F13  1  0.08629600  0.15122200  0.58351300  1
  F  F14  1  0.41955500  0.69312300  0.13814300  1
  F  F15  1  0.91370400  0.84877800  0.41648700  1
  F  F16  1  0.21032500  0.83399500  0.27278200  1
  F  F17  1  0.84793300  0.73169300  0.81653500  1
  F  F18  1  0.21032500  0.16600500  0.77278200  1
  F  F19  1  0.41955500  0.30687700  0.63814300  1
  F  F20  1  0.08629600  0.84877800  0.08351300  1
  F  F21  1  0.35909500  0.86064400  0.55574300  1
  F  F22  1  0.15206700  0.73169300  0.68346500  1
  F  F23  1  0.64090500  0.13935600  0.44425700  1
  F  F24  1  0.78967500  0.16600500  0.72721800  1
  F  F25  1  0.15206700  0.26830700  0.18346500  1
  F  F26  1  0.91370400  0.15122200  0.91648700  1
  F  F27  1  0.35909500  0.13935600  0.05574300  1
  F  F28  1  0.58044500  0.69312300  0.36185700  1
  F  F29  1  0.64090500  0.86064400  0.94425700  1
