# generated using pymatgen
data_Zr(TeCl6)2
_symmetry_space_group_name_H-M   'P 1'
_cell_length_a   11.76136576
_cell_length_b   11.76136576
_cell_length_c   75.84256348
_cell_angle_alpha   90.00000000
_cell_angle_beta   90.00000000
_cell_angle_gamma   120.00000000
_symmetry_Int_Tables_number   1
_chemical_formula_structural   Zr(TeCl6)2
_chemical_formula_sum   'Zr18 Te36 Cl216'
_cell_volume   9085.71579371
_cell_formula_units_Z   18
loop_
 _symmetry_equiv_pos_site_id
 _symmetry_equiv_pos_as_xyz
  1  'x, y, z'
loop_
 _atom_site_type_symbol
 _atom_site_label
 _atom_site_symmetry_multiplicity
 _atom_site_fract_x
 _atom_site_fract_y
 _atom_site_fract_z
 _atom_site_occupancy
  Zr  Zr0  1  0.33333333  0.66666667  0.04044467  1
  Zr  Zr1  1  0.00000000  0.00000000  0.12622200  1
  Zr  Zr2  1  0.33333333  0.66666667  0.29288867  1
  Zr  Zr3  1  0.66666667  0.33333333  0.08333333  1
  Zr  Zr4  1  0.66666667  0.33333333  0.20711133  1
  Zr  Zr5  1  0.00000000  0.00000000  0.25000000  1
  Zr  Zr6  1  0.00000000  0.00000000  0.37377800  1
  Zr  Zr7  1  0.66666667  0.33333333  0.45955533  1
  Zr  Zr8  1  0.00000000  0.00000000  0.62622200  1
  Zr  Zr9  1  0.33333333  0.66666667  0.41666667  1
  Zr  Zr10  1  0.33333333  0.66666667  0.54044467  1
  Zr  Zr11  1  0.66666667  0.33333333  0.58333333  1
  Zr  Zr12  1  0.66666667  0.33333333  0.70711133  1
  Zr  Zr13  1  0.33333333  0.66666667  0.79288867  1
  Zr  Zr14  1  0.66666667  0.33333333  0.95955533  1
  Zr  Zr15  1  0.00000000  0.00000000  0.75000000  1
  Zr  Zr16  1  0.00000000  0.00000000  0.87377800  1
  Zr  Zr17  1  0.33333333  0.66666667  0.91666667  1
  Te  Te18  1  0.31519400  0.33803200  0.20795800  1
  Te  Te19  1  0.00469867  0.35617133  0.12537533  1
  Te  Te20  1  0.32863467  0.01813933  0.04129133  1
  Te  Te21  1  0.68480600  0.02283800  0.29204200  1
  Te  Te22  1  0.35147267  0.99530133  0.12537533  1
  Te  Te23  1  0.33803200  0.31519400  0.29204200  1
  Te  Te24  1  0.98186067  0.31049533  0.04129133  1
  Te  Te25  1  0.64382867  0.64852733  0.12537533  1
  Te  Te26  1  0.68950467  0.67136533  0.04129133  1
  Te  Te27  1  0.02283800  0.68480600  0.20795800  1
  Te  Te28  1  0.97716200  0.66196800  0.29204200  1
  Te  Te29  1  0.66196800  0.97716200  0.20795800  1
  Te  Te30  1  0.98186067  0.67136533  0.54129133  1
  Te  Te31  1  0.67136533  0.68950467  0.45870867  1
  Te  Te32  1  0.99530133  0.35147267  0.37462467  1
  Te  Te33  1  0.35147267  0.35617133  0.62537533  1
  Te  Te34  1  0.01813933  0.32863467  0.45870867  1
  Te  Te35  1  0.00469867  0.64852733  0.62537533  1
  Te  Te36  1  0.64852733  0.64382867  0.37462467  1
  Te  Te37  1  0.31049533  0.98186067  0.45870867  1
  Te  Te38  1  0.35617133  0.00469867  0.37462467  1
  Te  Te39  1  0.68950467  0.01813933  0.54129133  1
  Te  Te40  1  0.64382867  0.99530133  0.62537533  1
  Te  Te41  1  0.32863467  0.31049533  0.54129133  1
  Te  Te42  1  0.64852733  0.00469867  0.87462467  1
  Te  Te43  1  0.33803200  0.02283800  0.79204200  1
  Te  Te44  1  0.66196800  0.68480600  0.70795800  1
  Te  Te45  1  0.01813933  0.68950467  0.95870867  1
  Te  Te46  1  0.68480600  0.66196800  0.79204200  1
  Te  Te47  1  0.67136533  0.98186067  0.95870867  1
  Te  Te48  1  0.31519400  0.97716200  0.70795800  1
  Te  Te49  1  0.97716200  0.31519400  0.79204200  1
  Te  Te50  1  0.02283800  0.33803200  0.70795800  1
  Te  Te51  1  0.35617133  0.35147267  0.87462467  1
  Te  Te52  1  0.31049533  0.32863467  0.95870867  1
  Te  Te53  1  0.99530133  0.64382867  0.87462467  1
  Cl  Cl54  1  0.14087367  0.91193033  0.02322233  1
  Cl  Cl55  1  0.42869567  0.89640033  0.10539733  1
  Cl  Cl56  1  0.46554400  0.23308800  0.10224400  1
  Cl  Cl57  1  0.43033867  0.20698033  0.02327433  1
  Cl  Cl58  1  0.13214167  0.55866133  0.02175033  1
  Cl  Cl59  1  0.57124267  0.13356033  0.22640233  1
  Cl  Cl60  1  0.52579300  0.42140300  0.31011100  1
  Cl  Cl61  1  0.53452500  0.77467200  0.31158300  1
  Cl  Cl62  1  0.90681367  0.10800533  0.14491633  1
  Cl  Cl63  1  0.22532800  0.75985300  0.31158300  1
  Cl  Cl64  1  0.24014700  0.46547500  0.31158300  1
  Cl  Cl65  1  0.79887733  0.89912267  0.26891067  1
  Cl  Cl66  1  0.86778933  0.43421067  0.06442267  1
  Cl  Cl67  1  0.47420700  0.89561000  0.18988900  1
  Cl  Cl68  1  0.10434900  0.90457600  0.10693100  1
  Cl  Cl69  1  0.56231767  0.42875733  0.22640233  1
  Cl  Cl70  1  0.20119167  0.09318633  0.14491633  1
  Cl  Cl71  1  0.10439000  0.57859700  0.18988900  1
  Cl  Cl72  1  0.76691200  0.23245600  0.10224400  1
  Cl  Cl73  1  0.46770467  0.57130433  0.10539733  1
  Cl  Cl74  1  0.90299467  0.44330833  0.14339233  1
  Cl  Cl75  1  0.76367200  0.89002500  0.18994100  1
  Cl  Cl76  1  0.90463767  0.13437133  0.06126933  1
  Cl  Cl77  1  0.86562867  0.77026633  0.06126933  1
  Cl  Cl78  1  0.42140300  0.52579300  0.18988900  1
  Cl  Cl79  1  0.77664167  0.56966133  0.02327433  1
  Cl  Cl80  1  0.56227667  0.75473633  0.14344433  1
  Cl  Cl81  1  0.10359967  0.53229533  0.10539733  1
  Cl  Cl82  1  0.89002500  0.76367200  0.31005900  1
  Cl  Cl83  1  0.23790933  0.77101567  0.05973567  1
  Cl  Cl84  1  0.19245967  0.43772333  0.14344433  1
  Cl  Cl85  1  0.89912267  0.79887733  0.23108933  1
  Cl  Cl86  1  0.76202900  0.19896200  0.27206400  1
  Cl  Cl87  1  0.13356033  0.57124267  0.27359767  1
  Cl  Cl88  1  0.54031367  0.09700533  0.14339233  1
  Cl  Cl89  1  0.42651967  0.86785833  0.02175033  1
  Cl  Cl90  1  0.56642133  0.13221067  0.06442267  1
  Cl  Cl91  1  0.87364700  0.10997500  0.31005900  1
  Cl  Cl92  1  0.24526367  0.80754033  0.14344433  1
  Cl  Cl93  1  0.89199467  0.79880833  0.14491633  1
  Cl  Cl94  1  0.75985300  0.22532800  0.18841700  1
  Cl  Cl95  1  0.23797100  0.43693300  0.22793600  1
  Cl  Cl96  1  0.77105667  0.85912633  0.02322233  1
  Cl  Cl97  1  0.80103800  0.56306700  0.27206400  1
  Cl  Cl98  1  0.42875733  0.56231767  0.27359767  1
  Cl  Cl99  1  0.53310633  0.76209067  0.05973567  1
  Cl  Cl100  1  0.55669167  0.45968633  0.14339233  1
  Cl  Cl101  1  0.10024533  0.20112267  0.26891067  1
  Cl  Cl102  1  0.80022700  0.89565100  0.10693100  1
  Cl  Cl103  1  0.56306700  0.80103800  0.22793600  1
  Cl  Cl104  1  0.89561000  0.47420700  0.31011100  1
  Cl  Cl105  1  0.19896200  0.76202900  0.22793600  1
  Cl  Cl106  1  0.23632800  0.12635300  0.31005900  1
  Cl  Cl107  1  0.22973367  0.09536233  0.06126933  1
  Cl  Cl108  1  0.76754400  0.53445600  0.10224400  1
  Cl  Cl109  1  0.79301967  0.22335833  0.02327433  1
  Cl  Cl110  1  0.43693300  0.23797100  0.27206400  1
  Cl  Cl111  1  0.08806967  0.22894333  0.02322233  1
  Cl  Cl112  1  0.20112267  0.10024533  0.23108933  1
  Cl  Cl113  1  0.09542400  0.19977300  0.10693100  1
  Cl  Cl114  1  0.86643967  0.43768233  0.22640233  1
  Cl  Cl115  1  0.10997500  0.87364700  0.18994100  1
  Cl  Cl116  1  0.89975467  0.10087733  0.23108933  1
  Cl  Cl117  1  0.44133867  0.57348033  0.02175033  1
  Cl  Cl118  1  0.43768233  0.86643967  0.27359767  1
  Cl  Cl119  1  0.57859700  0.10439000  0.31011100  1
  Cl  Cl120  1  0.12635300  0.23632800  0.18994100  1
  Cl  Cl121  1  0.77467200  0.53452500  0.18841700  1
  Cl  Cl122  1  0.10087733  0.89975467  0.26891067  1
  Cl  Cl123  1  0.22898433  0.46689367  0.05973567  1
  Cl  Cl124  1  0.46547500  0.24014700  0.18841700  1
  Cl  Cl125  1  0.56578933  0.43357867  0.06442267  1
  Cl  Cl126  1  0.80754033  0.24526367  0.35655567  1
  Cl  Cl127  1  0.09536233  0.22973367  0.43873067  1
  Cl  Cl128  1  0.13221067  0.56642133  0.43557733  1
  Cl  Cl129  1  0.09700533  0.54031367  0.35660767  1
  Cl  Cl130  1  0.79880833  0.89199467  0.35508367  1
  Cl  Cl131  1  0.23790933  0.46689367  0.55973567  1
  Cl  Cl132  1  0.19245967  0.75473633  0.64344433  1
  Cl  Cl133  1  0.20119167  0.10800533  0.64491633  1
  Cl  Cl134  1  0.57348033  0.44133867  0.47824967  1
  Cl  Cl135  1  0.89199467  0.09318633  0.64491633  1
  Cl  Cl136  1  0.90681367  0.79880833  0.64491633  1
  Cl  Cl137  1  0.46554400  0.23245600  0.60224400  1
  Cl  Cl138  1  0.53445600  0.76754400  0.39775600  1
  Cl  Cl139  1  0.14087367  0.22894333  0.52322233  1
  Cl  Cl140  1  0.77101567  0.23790933  0.44026433  1
  Cl  Cl141  1  0.22898433  0.76209067  0.55973567  1
  Cl  Cl142  1  0.86785833  0.42651967  0.47824967  1
  Cl  Cl143  1  0.77105667  0.91193033  0.52322233  1
  Cl  Cl144  1  0.43357867  0.56578933  0.43557733  1
  Cl  Cl145  1  0.13437133  0.90463767  0.43873067  1
  Cl  Cl146  1  0.56966133  0.77664167  0.47672567  1
  Cl  Cl147  1  0.43033867  0.22335833  0.52327433  1
  Cl  Cl148  1  0.57130433  0.46770467  0.39460267  1
  Cl  Cl149  1  0.53229533  0.10359967  0.39460267  1
  Cl  Cl150  1  0.08806967  0.85912633  0.52322233  1
  Cl  Cl151  1  0.44330833  0.90299467  0.35660767  1
  Cl  Cl152  1  0.22894333  0.08806967  0.47677767  1
  Cl  Cl153  1  0.77026633  0.86562867  0.43873067  1
  Cl  Cl154  1  0.55669167  0.09700533  0.64339233  1
  Cl  Cl155  1  0.90457600  0.10434900  0.39306900  1
  Cl  Cl156  1  0.85912633  0.77105667  0.47677767  1
  Cl  Cl157  1  0.56578933  0.13221067  0.56442267  1
  Cl  Cl158  1  0.42869567  0.53229533  0.60539733  1
  Cl  Cl159  1  0.80022700  0.90457600  0.60693100  1
  Cl  Cl160  1  0.20698033  0.43033867  0.47672567  1
  Cl  Cl161  1  0.09318633  0.20119167  0.35508367  1
  Cl  Cl162  1  0.23308800  0.46554400  0.39775600  1
  Cl  Cl163  1  0.54031367  0.44330833  0.64339233  1
  Cl  Cl164  1  0.91193033  0.14087367  0.47677767  1
  Cl  Cl165  1  0.55866133  0.13214167  0.47824967  1
  Cl  Cl166  1  0.42651967  0.55866133  0.52175033  1
  Cl  Cl167  1  0.90463767  0.77026633  0.56126933  1
  Cl  Cl168  1  0.43772333  0.19245967  0.35655567  1
  Cl  Cl169  1  0.46770467  0.89640033  0.60539733  1
  Cl  Cl170  1  0.09542400  0.89565100  0.60693100  1
  Cl  Cl171  1  0.19977300  0.09542400  0.39306900  1
  Cl  Cl172  1  0.22335833  0.79301967  0.47672567  1
  Cl  Cl173  1  0.76691200  0.53445600  0.60224400  1
  Cl  Cl174  1  0.46689367  0.22898433  0.44026433  1
  Cl  Cl175  1  0.22973367  0.13437133  0.56126933  1
  Cl  Cl176  1  0.56227667  0.80754033  0.64344433  1
  Cl  Cl177  1  0.86562867  0.09536233  0.56126933  1
  Cl  Cl178  1  0.90299467  0.45968633  0.64339233  1
  Cl  Cl179  1  0.89640033  0.42869567  0.39460267  1
  Cl  Cl180  1  0.43421067  0.86778933  0.43557733  1
  Cl  Cl181  1  0.45968633  0.55669167  0.35660767  1
  Cl  Cl182  1  0.10359967  0.57130433  0.60539733  1
  Cl  Cl183  1  0.75473633  0.56227667  0.35655567  1
  Cl  Cl184  1  0.86778933  0.43357867  0.56442267  1
  Cl  Cl185  1  0.76209067  0.53310633  0.44026433  1
  Cl  Cl186  1  0.53310633  0.77101567  0.55973567  1
  Cl  Cl187  1  0.77664167  0.20698033  0.52327433  1
  Cl  Cl188  1  0.56642133  0.43421067  0.56442267  1
  Cl  Cl189  1  0.10800533  0.90681367  0.35508367  1
  Cl  Cl190  1  0.10434900  0.19977300  0.60693100  1
  Cl  Cl191  1  0.24526367  0.43772333  0.64344433  1
  Cl  Cl192  1  0.79301967  0.56966133  0.52327433  1
  Cl  Cl193  1  0.44133867  0.86785833  0.52175033  1
  Cl  Cl194  1  0.76754400  0.23308800  0.60224400  1
  Cl  Cl195  1  0.89565100  0.80022700  0.39306900  1
  Cl  Cl196  1  0.13214167  0.57348033  0.52175033  1
  Cl  Cl197  1  0.23245600  0.76691200  0.39775600  1
  Cl  Cl198  1  0.47420700  0.57859700  0.68988900  1
  Cl  Cl199  1  0.76202900  0.56306700  0.77206400  1
  Cl  Cl200  1  0.79887733  0.89975467  0.76891067  1
  Cl  Cl201  1  0.76367200  0.87364700  0.68994100  1
  Cl  Cl202  1  0.46547500  0.22532800  0.68841700  1
  Cl  Cl203  1  0.90457600  0.80022700  0.89306900  1
  Cl  Cl204  1  0.85912633  0.08806967  0.97677767  1
  Cl  Cl205  1  0.86785833  0.44133867  0.97824967  1
  Cl  Cl206  1  0.24014700  0.77467200  0.81158300  1
  Cl  Cl207  1  0.55866133  0.42651967  0.97824967  1
  Cl  Cl208  1  0.57348033  0.13214167  0.97824967  1
  Cl  Cl209  1  0.13221067  0.56578933  0.93557733  1
  Cl  Cl210  1  0.20112267  0.10087733  0.73108933  1
  Cl  Cl211  1  0.80754033  0.56227667  0.85655567  1
  Cl  Cl212  1  0.43768233  0.57124267  0.77359767  1
  Cl  Cl213  1  0.89565100  0.09542400  0.89306900  1
  Cl  Cl214  1  0.53452500  0.75985300  0.81158300  1
  Cl  Cl215  1  0.43772333  0.24526367  0.85655567  1
  Cl  Cl216  1  0.10024533  0.89912267  0.76891067  1
  Cl  Cl217  1  0.80103800  0.23797100  0.77206400  1
  Cl  Cl218  1  0.23632800  0.10997500  0.81005900  1
  Cl  Cl219  1  0.09700533  0.55669167  0.85660767  1
  Cl  Cl220  1  0.23797100  0.80103800  0.72793600  1
  Cl  Cl221  1  0.19896200  0.43693300  0.72793600  1
  Cl  Cl222  1  0.75473633  0.19245967  0.85655567  1
  Cl  Cl223  1  0.10997500  0.23632800  0.68994100  1
  Cl  Cl224  1  0.89561000  0.42140300  0.81011100  1
  Cl  Cl225  1  0.43693300  0.19896200  0.77206400  1
  Cl  Cl226  1  0.22335833  0.43033867  0.97672567  1
  Cl  Cl227  1  0.57124267  0.43768233  0.72640233  1
  Cl  Cl228  1  0.52579300  0.10439000  0.81011100  1
  Cl  Cl229  1  0.23245600  0.46554400  0.89775600  1
  Cl  Cl230  1  0.09536233  0.86562867  0.93873067  1
  Cl  Cl231  1  0.46689367  0.23790933  0.94026433  1
  Cl  Cl232  1  0.87364700  0.76367200  0.81005900  1
  Cl  Cl233  1  0.75985300  0.53452500  0.68841700  1
  Cl  Cl234  1  0.89975467  0.79887733  0.73108933  1
  Cl  Cl235  1  0.20698033  0.77664167  0.97672567  1
  Cl  Cl236  1  0.57859700  0.47420700  0.81011100  1
  Cl  Cl237  1  0.22532800  0.46547500  0.81158300  1
  Cl  Cl238  1  0.09318633  0.89199467  0.85508367  1
  Cl  Cl239  1  0.57130433  0.10359967  0.89460267  1
  Cl  Cl240  1  0.10439000  0.52579300  0.68988900  1
  Cl  Cl241  1  0.13437133  0.22973367  0.93873067  1
  Cl  Cl242  1  0.76209067  0.22898433  0.94026433  1
  Cl  Cl243  1  0.86643967  0.42875733  0.72640233  1
  Cl  Cl244  1  0.89002500  0.12635300  0.81005900  1
  Cl  Cl245  1  0.43357867  0.86778933  0.93557733  1
  Cl  Cl246  1  0.13356033  0.56231767  0.77359767  1
  Cl  Cl247  1  0.89640033  0.46770467  0.89460267  1
  Cl  Cl248  1  0.22894333  0.14087367  0.97677767  1
  Cl  Cl249  1  0.53229533  0.42869567  0.89460267  1
  Cl  Cl250  1  0.56966133  0.79301967  0.97672567  1
  Cl  Cl251  1  0.56306700  0.76202900  0.72793600  1
  Cl  Cl252  1  0.10087733  0.20112267  0.76891067  1
  Cl  Cl253  1  0.12635300  0.89002500  0.68994100  1
  Cl  Cl254  1  0.77026633  0.90463767  0.93873067  1
  Cl  Cl255  1  0.42140300  0.89561000  0.68988900  1
  Cl  Cl256  1  0.53445600  0.76691200  0.89775600  1
  Cl  Cl257  1  0.42875733  0.86643967  0.77359767  1
  Cl  Cl258  1  0.19977300  0.10434900  0.89306900  1
  Cl  Cl259  1  0.44330833  0.54031367  0.85660767  1
  Cl  Cl260  1  0.23308800  0.76754400  0.89775600  1
  Cl  Cl261  1  0.77467200  0.24014700  0.68841700  1
  Cl  Cl262  1  0.77101567  0.53310633  0.94026433  1
  Cl  Cl263  1  0.91193033  0.77105667  0.97677767  1
  Cl  Cl264  1  0.45968633  0.90299467  0.85660767  1
  Cl  Cl265  1  0.10800533  0.20119167  0.85508367  1
  Cl  Cl266  1  0.43421067  0.56642133  0.93557733  1
  Cl  Cl267  1  0.56231767  0.13356033  0.72640233  1
  Cl  Cl268  1  0.79880833  0.90681367  0.85508367  1
  Cl  Cl269  1  0.89912267  0.10024533  0.73108933  1
