# generated using pymatgen
data_K2LaH4N5O17
_symmetry_space_group_name_H-M   'P 1'
_cell_length_a   11.45031000
_cell_length_b   12.47147400
_cell_length_c   21.82365000
_cell_angle_alpha   90.00000000
_cell_angle_beta   90.00000000
_cell_angle_gamma   90.00000000
_symmetry_Int_Tables_number   1
_chemical_formula_structural   K2LaH4N5O17
_chemical_formula_sum   'K16 La8 H32 N40 O136'
_cell_volume   3116.46618042
_cell_formula_units_Z   8
loop_
 _symmetry_equiv_pos_site_id
 _symmetry_equiv_pos_as_xyz
  1  'x, y, z'
loop_
 _atom_site_type_symbol
 _atom_site_label
 _atom_site_symmetry_multiplicity
 _atom_site_fract_x
 _atom_site_fract_y
 _atom_site_fract_z
 _atom_site_occupancy
  K  K0  1  0.68989350  0.98177950  0.85228600  1
  K  K1  1  0.31010650  0.98177950  0.14771400  1
  K  K2  1  0.56010650  0.23177950  0.10228600  1
  K  K3  1  0.43989350  0.23177950  0.89771400  1
  K  K4  1  0.68989350  0.48177950  0.35228600  1
  K  K5  1  0.31010650  0.48177950  0.64771400  1
  K  K6  1  0.56010650  0.73177950  0.60228600  1
  K  K7  1  0.43989350  0.73177950  0.39771400  1
  K  K8  1  0.18989350  0.48177950  0.85228600  1
  K  K9  1  0.81010650  0.48177950  0.14771400  1
  K  K10  1  0.06010650  0.73177950  0.10228600  1
  K  K11  1  0.93989350  0.73177950  0.89771400  1
  K  K12  1  0.18989350  0.98177950  0.35228600  1
  K  K13  1  0.81010650  0.98177950  0.64771400  1
  K  K14  1  0.06010650  0.23177950  0.60228600  1
  K  K15  1  0.93989350  0.23177950  0.39771400  1
  La  La16  1  0.75000000  0.50234800  0.75000000  1
  La  La17  1  0.50000000  0.75234800  0.00000000  1
  La  La18  1  0.75000000  0.00234800  0.25000000  1
  La  La19  1  0.50000000  0.25234800  0.50000000  1
  La  La20  1  0.25000000  0.00234800  0.75000000  1
  La  La21  1  0.00000000  0.25234800  0.00000000  1
  La  La22  1  0.25000000  0.50234800  0.25000000  1
  La  La23  1  0.00000000  0.75234800  0.50000000  1
  H  H24  1  0.28648100  0.95958400  0.89656700  1
  H  H25  1  0.71351900  0.95958400  0.10343300  1
  H  H26  1  0.46351900  0.70958400  0.14656700  1
  H  H27  1  0.53648100  0.70958400  0.85343300  1
  H  H28  1  0.18336650  0.03875050  0.89111000  1
  H  H29  1  0.81663350  0.03875050  0.10889000  1
  H  H30  1  0.56663350  0.78875050  0.14111000  1
  H  H31  1  0.43336650  0.78875050  0.85889000  1
  H  H32  1  0.28648100  0.45958400  0.39656700  1
  H  H33  1  0.71351900  0.45958400  0.60343300  1
  H  H34  1  0.46351900  0.20958400  0.64656700  1
  H  H35  1  0.53648100  0.20958400  0.35343300  1
  H  H36  1  0.18336650  0.53875050  0.39111000  1
  H  H37  1  0.81663350  0.53875050  0.60889000  1
  H  H38  1  0.56663350  0.28875050  0.64111000  1
  H  H39  1  0.43336650  0.28875050  0.35889000  1
  H  H40  1  0.78648100  0.45958400  0.89656700  1
  H  H41  1  0.21351900  0.45958400  0.10343300  1
  H  H42  1  0.96351900  0.20958400  0.14656700  1
  H  H43  1  0.03648100  0.20958400  0.85343300  1
  H  H44  1  0.68336650  0.53875050  0.89111000  1
  H  H45  1  0.31663350  0.53875050  0.10889000  1
  H  H46  1  0.06663350  0.28875050  0.14111000  1
  H  H47  1  0.93336650  0.28875050  0.85889000  1
  H  H48  1  0.78648100  0.95958400  0.39656700  1
  H  H49  1  0.21351900  0.95958400  0.60343300  1
  H  H50  1  0.96351900  0.70958400  0.64656700  1
  H  H51  1  0.03648100  0.70958400  0.35343300  1
  H  H52  1  0.68336650  0.03875050  0.39111000  1
  H  H53  1  0.31663350  0.03875050  0.60889000  1
  H  H54  1  0.06663350  0.78875050  0.64111000  1
  H  H55  1  0.93336650  0.78875050  0.35889000  1
  N  N56  1  0.98903900  0.06101600  0.75914500  1
  N  N57  1  0.01096100  0.06101600  0.24085500  1
  N  N58  1  0.76096100  0.81101600  0.00914500  1
  N  N59  1  0.23903900  0.81101600  0.99085500  1
  N  N60  1  0.69283250  0.29075500  0.82461150  1
  N  N61  1  0.30716750  0.29075500  0.17538850  1
  N  N62  1  0.05716750  0.04075500  0.07461150  1
  N  N63  1  0.94283250  0.04075500  0.92538850  1
  N  N64  1  0.75000000  0.75530800  0.75000000  1
  N  N65  1  0.50000000  0.00530800  0.00000000  1
  N  N66  1  0.98903900  0.56101600  0.25914500  1
  N  N67  1  0.01096100  0.56101600  0.74085500  1
  N  N68  1  0.76096100  0.31101600  0.50914500  1
  N  N69  1  0.23903900  0.31101600  0.49085500  1
  N  N70  1  0.69283250  0.79075500  0.32461150  1
  N  N71  1  0.30716750  0.79075500  0.67538850  1
  N  N72  1  0.05716750  0.54075500  0.57461150  1
  N  N73  1  0.94283250  0.54075500  0.42538850  1
  N  N74  1  0.75000000  0.25530800  0.25000000  1
  N  N75  1  0.50000000  0.50530800  0.50000000  1
  N  N76  1  0.48903900  0.56101600  0.75914500  1
  N  N77  1  0.51096100  0.56101600  0.24085500  1
  N  N78  1  0.26096100  0.31101600  0.00914500  1
  N  N79  1  0.73903900  0.31101600  0.99085500  1
  N  N80  1  0.19283250  0.79075500  0.82461150  1
  N  N81  1  0.80716750  0.79075500  0.17538850  1
  N  N82  1  0.55716750  0.54075500  0.07461150  1
  N  N83  1  0.44283250  0.54075500  0.92538850  1
  N  N84  1  0.25000000  0.25530800  0.75000000  1
  N  N85  1  0.00000000  0.50530800  0.00000000  1
  N  N86  1  0.48903900  0.06101600  0.25914500  1
  N  N87  1  0.51096100  0.06101600  0.74085500  1
  N  N88  1  0.26096100  0.81101600  0.50914500  1
  N  N89  1  0.73903900  0.81101600  0.49085500  1
  N  N90  1  0.19283250  0.29075500  0.32461150  1
  N  N91  1  0.80716750  0.29075500  0.67538850  1
  N  N92  1  0.55716750  0.04075500  0.57461150  1
  N  N93  1  0.44283250  0.04075500  0.42538850  1
  N  N94  1  0.25000000  0.75530800  0.25000000  1
  N  N95  1  0.00000000  0.00530800  0.50000000  1
  O  O96  1  0.06519750  0.09323600  0.79858550  1
  O  O97  1  0.93480250  0.09323600  0.20141450  1
  O  O98  1  0.68480250  0.84323600  0.04858550  1
  O  O99  1  0.31519750  0.84323600  0.95141450  1
  O  O100  1  0.52977550  0.01354800  0.21138650  1
  O  O101  1  0.47022450  0.01354800  0.78861350  1
  O  O102  1  0.72022450  0.76354800  0.96138650  1
  O  O103  1  0.27977550  0.76354800  0.03861350  1
  O  O104  1  0.88324050  0.07496850  0.76671900  1
  O  O105  1  0.11675950  0.07496850  0.23328100  1
  O  O106  1  0.36675950  0.32496850  0.01671900  1
  O  O107  1  0.63324050  0.32496850  0.98328100  1
  O  O108  1  0.61101700  0.35291500  0.80760000  1
  O  O109  1  0.38898300  0.35291500  0.19240000  1
  O  O110  1  0.13898300  0.10291500  0.05760000  1
  O  O111  1  0.86101700  0.10291500  0.94240000  1
  O  O112  1  0.79780550  0.31907900  0.81192450  1
  O  O113  1  0.20219450  0.31907900  0.18807550  1
  O  O114  1  0.45219450  0.56907900  0.06192450  1
  O  O115  1  0.54780550  0.56907900  0.93807550  1
  O  O116  1  0.67167650  0.20604200  0.85285750  1
  O  O117  1  0.32832350  0.20604200  0.14714250  1
  O  O118  1  0.07832350  0.95604200  0.10285750  1
  O  O119  1  0.92167650  0.95604200  0.89714250  1
  O  O120  1  0.21002950  0.70192000  0.20469650  1
  O  O121  1  0.78997050  0.70192000  0.79530350  1
  O  O122  1  0.53997050  0.95192000  0.95469650  1
  O  O123  1  0.46002950  0.95192000  0.04530350  1
  O  O124  1  0.75000000  0.85546100  0.75000000  1
  O  O125  1  0.50000000  0.10546100  0.00000000  1
  O  O126  1  0.26043050  0.02263400  0.87304750  1
  O  O127  1  0.73956950  0.02263400  0.12695250  1
  O  O128  1  0.48956950  0.77263400  0.12304750  1
  O  O129  1  0.51043050  0.77263400  0.87695250  1
  O  O130  1  0.06519750  0.59323600  0.29858550  1
  O  O131  1  0.93480250  0.59323600  0.70141450  1
  O  O132  1  0.68480250  0.34323600  0.54858550  1
  O  O133  1  0.31519750  0.34323600  0.45141450  1
  O  O134  1  0.52977550  0.51354800  0.71138650  1
  O  O135  1  0.47022450  0.51354800  0.28861350  1
  O  O136  1  0.72022450  0.26354800  0.46138650  1
  O  O137  1  0.27977550  0.26354800  0.53861350  1
  O  O138  1  0.88324050  0.57496850  0.26671900  1
  O  O139  1  0.11675950  0.57496850  0.73328100  1
  O  O140  1  0.36675950  0.82496850  0.51671900  1
  O  O141  1  0.63324050  0.82496850  0.48328100  1
  O  O142  1  0.61101700  0.85291500  0.30760000  1
  O  O143  1  0.38898300  0.85291500  0.69240000  1
  O  O144  1  0.13898300  0.60291500  0.55760000  1
  O  O145  1  0.86101700  0.60291500  0.44240000  1
  O  O146  1  0.79780550  0.81907900  0.31192450  1
  O  O147  1  0.20219450  0.81907900  0.68807550  1
  O  O148  1  0.45219450  0.06907900  0.56192450  1
  O  O149  1  0.54780550  0.06907900  0.43807550  1
  O  O150  1  0.67167650  0.70604200  0.35285750  1
  O  O151  1  0.32832350  0.70604200  0.64714250  1
  O  O152  1  0.07832350  0.45604200  0.60285750  1
  O  O153  1  0.92167650  0.45604200  0.39714250  1
  O  O154  1  0.21002950  0.20192000  0.70469650  1
  O  O155  1  0.78997050  0.20192000  0.29530350  1
  O  O156  1  0.53997050  0.45192000  0.45469650  1
  O  O157  1  0.46002950  0.45192000  0.54530350  1
  O  O158  1  0.75000000  0.35546100  0.25000000  1
  O  O159  1  0.50000000  0.60546100  0.50000000  1
  O  O160  1  0.26043050  0.52263400  0.37304750  1
  O  O161  1  0.73956950  0.52263400  0.62695250  1
  O  O162  1  0.48956950  0.27263400  0.62304750  1
  O  O163  1  0.51043050  0.27263400  0.37695250  1
  O  O164  1  0.56519750  0.59323600  0.79858550  1
  O  O165  1  0.43480250  0.59323600  0.20141450  1
  O  O166  1  0.18480250  0.34323600  0.04858550  1
  O  O167  1  0.81519750  0.34323600  0.95141450  1
  O  O168  1  0.02977550  0.51354800  0.21138650  1
  O  O169  1  0.97022450  0.51354800  0.78861350  1
  O  O170  1  0.22022450  0.26354800  0.96138650  1
  O  O171  1  0.77977550  0.26354800  0.03861350  1
  O  O172  1  0.38324050  0.57496850  0.76671900  1
  O  O173  1  0.61675950  0.57496850  0.23328100  1
  O  O174  1  0.86675950  0.82496850  0.01671900  1
  O  O175  1  0.13324050  0.82496850  0.98328100  1
  O  O176  1  0.11101700  0.85291500  0.80760000  1
  O  O177  1  0.88898300  0.85291500  0.19240000  1
  O  O178  1  0.63898300  0.60291500  0.05760000  1
  O  O179  1  0.36101700  0.60291500  0.94240000  1
  O  O180  1  0.29780550  0.81907900  0.81192450  1
  O  O181  1  0.70219450  0.81907900  0.18807550  1
  O  O182  1  0.95219450  0.06907900  0.06192450  1
  O  O183  1  0.04780550  0.06907900  0.93807550  1
  O  O184  1  0.17167650  0.70604200  0.85285750  1
  O  O185  1  0.82832350  0.70604200  0.14714250  1
  O  O186  1  0.57832350  0.45604200  0.10285750  1
  O  O187  1  0.42167650  0.45604200  0.89714250  1
  O  O188  1  0.71002950  0.20192000  0.20469650  1
  O  O189  1  0.28997050  0.20192000  0.79530350  1
  O  O190  1  0.03997050  0.45192000  0.95469650  1
  O  O191  1  0.96002950  0.45192000  0.04530350  1
  O  O192  1  0.25000000  0.35546100  0.75000000  1
  O  O193  1  0.00000000  0.60546100  0.00000000  1
  O  O194  1  0.76043050  0.52263400  0.87304750  1
  O  O195  1  0.23956950  0.52263400  0.12695250  1
  O  O196  1  0.98956950  0.27263400  0.12304750  1
  O  O197  1  0.01043050  0.27263400  0.87695250  1
  O  O198  1  0.56519750  0.09323600  0.29858550  1
  O  O199  1  0.43480250  0.09323600  0.70141450  1
  O  O200  1  0.18480250  0.84323600  0.54858550  1
  O  O201  1  0.81519750  0.84323600  0.45141450  1
  O  O202  1  0.02977550  0.01354800  0.71138650  1
  O  O203  1  0.97022450  0.01354800  0.28861350  1
  O  O204  1  0.22022450  0.76354800  0.46138650  1
  O  O205  1  0.77977550  0.76354800  0.53861350  1
  O  O206  1  0.38324050  0.07496850  0.26671900  1
  O  O207  1  0.61675950  0.07496850  0.73328100  1
  O  O208  1  0.86675950  0.32496850  0.51671900  1
  O  O209  1  0.13324050  0.32496850  0.48328100  1
  O  O210  1  0.11101700  0.35291500  0.30760000  1
  O  O211  1  0.88898300  0.35291500  0.69240000  1
  O  O212  1  0.63898300  0.10291500  0.55760000  1
  O  O213  1  0.36101700  0.10291500  0.44240000  1
  O  O214  1  0.29780550  0.31907900  0.31192450  1
  O  O215  1  0.70219450  0.31907900  0.68807550  1
  O  O216  1  0.95219450  0.56907900  0.56192450  1
  O  O217  1  0.04780550  0.56907900  0.43807550  1
  O  O218  1  0.17167650  0.20604200  0.35285750  1
  O  O219  1  0.82832350  0.20604200  0.64714250  1
  O  O220  1  0.57832350  0.95604200  0.60285750  1
  O  O221  1  0.42167650  0.95604200  0.39714250  1
  O  O222  1  0.71002950  0.70192000  0.70469650  1
  O  O223  1  0.28997050  0.70192000  0.29530350  1
  O  O224  1  0.03997050  0.95192000  0.45469650  1
  O  O225  1  0.96002950  0.95192000  0.54530350  1
  O  O226  1  0.25000000  0.85546100  0.25000000  1
  O  O227  1  0.00000000  0.10546100  0.50000000  1
  O  O228  1  0.76043050  0.02263400  0.37304750  1
  O  O229  1  0.23956950  0.02263400  0.62695250  1
  O  O230  1  0.98956950  0.77263400  0.62304750  1
  O  O231  1  0.01043050  0.77263400  0.37695250  1
