# generated using pymatgen
data_Sm2Zr2O7
_symmetry_space_group_name_H-M   'P 1'
_cell_length_a   13.19519400
_cell_length_b   7.58181200
_cell_length_c   25.03974562
_cell_angle_alpha   90.00000000
_cell_angle_beta   100.45409268
_cell_angle_gamma   90.00000000
_symmetry_Int_Tables_number   1
_chemical_formula_structural   Sm2Zr2O7
_chemical_formula_sum   'Sm32 Zr32 O112'
_cell_volume   2463.48076112
_cell_formula_units_Z   16
loop_
 _symmetry_equiv_pos_site_id
 _symmetry_equiv_pos_as_xyz
  1  'x, y, z'
loop_
 _atom_site_type_symbol
 _atom_site_label
 _atom_site_symmetry_multiplicity
 _atom_site_fract_x
 _atom_site_fract_y
 _atom_site_fract_z
 _atom_site_occupancy
  Sm  Sm0  1  0.36199800  0.00000000  0.11445400  1
  Sm  Sm1  1  0.11569850  0.25464950  0.12631400  1
  Sm  Sm2  1  0.24473800  0.50000000  0.25067200  1
  Sm  Sm3  1  0.63800200  0.00000000  0.88554600  1
  Sm  Sm4  1  0.11569850  0.74535050  0.12631400  1
  Sm  Sm5  1  0.88430150  0.74535050  0.87368600  1
  Sm  Sm6  1  0.00000000  0.00000000  0.00000000  1
  Sm  Sm7  1  0.88430150  0.25464950  0.87368600  1
  Sm  Sm8  1  0.37424600  0.00000000  0.62346100  1
  Sm  Sm9  1  0.62456750  0.25042450  0.62543300  1
  Sm  Sm10  1  0.75526200  0.50000000  0.74932800  1
  Sm  Sm11  1  0.62456750  0.74957550  0.62543300  1
  Sm  Sm12  1  0.62575400  0.00000000  0.37653900  1
  Sm  Sm13  1  0.37543250  0.74957550  0.37456700  1
  Sm  Sm14  1  0.50000000  0.00000000  0.50000000  1
  Sm  Sm15  1  0.37543250  0.25042450  0.37456700  1
  Sm  Sm16  1  0.86199800  0.50000000  0.11445400  1
  Sm  Sm17  1  0.61569850  0.75464950  0.12631400  1
  Sm  Sm18  1  0.74473800  0.00000000  0.25067200  1
  Sm  Sm19  1  0.13800200  0.50000000  0.88554600  1
  Sm  Sm20  1  0.61569850  0.24535050  0.12631400  1
  Sm  Sm21  1  0.38430150  0.24535050  0.87368600  1
  Sm  Sm22  1  0.50000000  0.50000000  0.00000000  1
  Sm  Sm23  1  0.38430150  0.75464950  0.87368600  1
  Sm  Sm24  1  0.87424600  0.50000000  0.62346100  1
  Sm  Sm25  1  0.12456750  0.75042450  0.62543300  1
  Sm  Sm26  1  0.25526200  0.00000000  0.74932800  1
  Sm  Sm27  1  0.12456750  0.24957550  0.62543300  1
  Sm  Sm28  1  0.12575400  0.50000000  0.37653900  1
  Sm  Sm29  1  0.87543250  0.24957550  0.37456700  1
  Sm  Sm30  1  0.00000000  0.50000000  0.50000000  1
  Sm  Sm31  1  0.87543250  0.75042450  0.37456700  1
  Zr  Zr32  1  0.49707650  0.75290950  0.24865300  1
  Zr  Zr33  1  0.49707650  0.24709050  0.24865300  1
  Zr  Zr34  1  0.24675400  0.00000000  0.24707200  1
  Zr  Zr35  1  0.25000000  0.25000000  0.00000000  1
  Zr  Zr36  1  0.37767800  0.50000000  0.13432300  1
  Zr  Zr37  1  0.25000000  0.75000000  0.00000000  1
  Zr  Zr38  1  0.00000000  0.50000000  0.00000000  1
  Zr  Zr39  1  0.50292350  0.24709050  0.75134700  1
  Zr  Zr40  1  0.62232200  0.50000000  0.86567700  1
  Zr  Zr41  1  0.37585200  0.50000000  0.62636700  1
  Zr  Zr42  1  0.50292350  0.75290950  0.75134700  1
  Zr  Zr43  1  0.75324600  0.00000000  0.75292800  1
  Zr  Zr44  1  0.25000000  0.75000000  0.50000000  1
  Zr  Zr45  1  0.62414800  0.50000000  0.37363300  1
  Zr  Zr46  1  0.25000000  0.25000000  0.50000000  1
  Zr  Zr47  1  0.50000000  0.50000000  0.50000000  1
  Zr  Zr48  1  0.99707650  0.25290950  0.24865300  1
  Zr  Zr49  1  0.99707650  0.74709050  0.24865300  1
  Zr  Zr50  1  0.74675400  0.50000000  0.24707200  1
  Zr  Zr51  1  0.75000000  0.75000000  0.00000000  1
  Zr  Zr52  1  0.87767800  0.00000000  0.13432300  1
  Zr  Zr53  1  0.75000000  0.25000000  0.00000000  1
  Zr  Zr54  1  0.50000000  0.00000000  0.00000000  1
  Zr  Zr55  1  0.00292350  0.74709050  0.75134700  1
  Zr  Zr56  1  0.12232200  0.00000000  0.86567700  1
  Zr  Zr57  1  0.87585200  0.00000000  0.62636700  1
  Zr  Zr58  1  0.00292350  0.25290950  0.75134700  1
  Zr  Zr59  1  0.25324600  0.50000000  0.75292800  1
  Zr  Zr60  1  0.75000000  0.25000000  0.50000000  1
  Zr  Zr61  1  0.12414800  0.00000000  0.37363300  1
  Zr  Zr62  1  0.75000000  0.75000000  0.50000000  1
  Zr  Zr63  1  0.00000000  0.00000000  0.50000000  1
  O  O64  1  0.46020500  0.77693700  0.16446200  1
  O  O65  1  0.56259400  0.00000000  0.27096100  1
  O  O66  1  0.46020500  0.22306300  0.16446200  1
  O  O67  1  0.35177350  0.79076550  0.26983900  1
  O  O68  1  0.30399650  0.30546050  0.08359600  1
  O  O69  1  0.22750000  0.00000000  0.15953300  1
  O  O70  1  0.35177350  0.20923450  0.26983900  1
  O  O71  1  0.42944600  0.50000000  0.22507300  1
  O  O72  1  0.69600350  0.69453950  0.91640400  1
  O  O73  1  0.74575300  0.00000000  0.97017500  1
  O  O74  1  0.30399650  0.69453950  0.08359600  1
  O  O75  1  0.69600350  0.30546050  0.91640400  1
  O  O76  1  0.14544050  0.21492850  0.22929400  1
  O  O77  1  0.10001600  0.26958400  0.01934000  1
  O  O78  1  0.22237100  0.50000000  0.15985100  1
  O  O79  1  0.53979500  0.22306300  0.83553800  1
  O  O80  1  0.48225500  0.00000000  0.91580700  1
  O  O81  1  0.10001600  0.73041600  0.01934000  1
  O  O82  1  0.25424700  0.00000000  0.02982500  1
  O  O83  1  0.14544050  0.78507150  0.22929400  1
  O  O84  1  0.51774500  0.00000000  0.08419300  1
  O  O85  1  0.46202200  0.28921600  0.66635300  1
  O  O86  1  0.57055400  0.50000000  0.77492700  1
  O  O87  1  0.53979500  0.77693700  0.83553800  1
  O  O88  1  0.46202200  0.71078400  0.66635300  1
  O  O89  1  0.89998400  0.73041600  0.98066000  1
  O  O90  1  0.51129200  0.50000000  0.09492400  1
  O  O91  1  0.85455950  0.78507150  0.77070600  1
  O  O92  1  0.48870800  0.50000000  0.90507600  1
  O  O93  1  0.79177400  0.21184600  0.58454600  1
  O  O94  1  0.43740600  0.00000000  0.72903900  1
  O  O95  1  0.85455950  0.21492850  0.77070600  1
  O  O96  1  0.75035200  0.00000000  0.66773500  1
  O  O97  1  0.89998400  0.26958400  0.98066000  1
  O  O98  1  0.20822600  0.78815400  0.41545400  1
  O  O99  1  0.77250000  0.00000000  0.84046700  1
  O  O100  1  0.31565500  0.00000000  0.52220000  1
  O  O101  1  0.79177400  0.78815400  0.58454600  1
  O  O102  1  0.20822600  0.21184600  0.41545400  1
  O  O103  1  0.64822650  0.20923450  0.73016100  1
  O  O104  1  0.77762900  0.50000000  0.84014900  1
  O  O105  1  0.60367550  0.28763850  0.52191800  1
  O  O106  1  0.71923300  0.50000000  0.65491600  1
  O  O107  1  0.53797800  0.71078400  0.33364700  1
  O  O108  1  0.49724600  0.50000000  0.41557200  1
  O  O109  1  0.60367550  0.71236150  0.52191800  1
  O  O110  1  0.68434500  0.00000000  0.47780000  1
  O  O111  1  0.64822650  0.79076550  0.73016100  1
  O  O112  1  0.50275400  0.50000000  0.58442800  1
  O  O113  1  0.53797800  0.28921600  0.33364700  1
  O  O114  1  0.39632450  0.71236150  0.47808200  1
  O  O115  1  0.53153100  0.00000000  0.59398300  1
  O  O116  1  0.46846900  0.00000000  0.40601700  1
  O  O117  1  0.39632450  0.28763850  0.47808200  1
  O  O118  1  0.24964800  0.00000000  0.33226500  1
  O  O119  1  0.28076700  0.50000000  0.34508400  1
  O  O120  1  0.96020500  0.27693700  0.16446200  1
  O  O121  1  0.06259400  0.50000000  0.27096100  1
  O  O122  1  0.96020500  0.72306300  0.16446200  1
  O  O123  1  0.85177350  0.29076550  0.26983900  1
  O  O124  1  0.80399650  0.80546050  0.08359600  1
  O  O125  1  0.72750000  0.50000000  0.15953300  1
  O  O126  1  0.85177350  0.70923450  0.26983900  1
  O  O127  1  0.92944600  0.00000000  0.22507300  1
  O  O128  1  0.19600350  0.19453950  0.91640400  1
  O  O129  1  0.24575300  0.50000000  0.97017500  1
  O  O130  1  0.80399650  0.19453950  0.08359600  1
  O  O131  1  0.19600350  0.80546050  0.91640400  1
  O  O132  1  0.64544050  0.71492850  0.22929400  1
  O  O133  1  0.60001600  0.76958400  0.01934000  1
  O  O134  1  0.72237100  0.00000000  0.15985100  1
  O  O135  1  0.03979500  0.72306300  0.83553800  1
  O  O136  1  0.98225500  0.50000000  0.91580700  1
  O  O137  1  0.60001600  0.23041600  0.01934000  1
  O  O138  1  0.75424700  0.50000000  0.02982500  1
  O  O139  1  0.64544050  0.28507150  0.22929400  1
  O  O140  1  0.01774500  0.50000000  0.08419300  1
  O  O141  1  0.96202200  0.78921600  0.66635300  1
  O  O142  1  0.07055400  0.00000000  0.77492700  1
  O  O143  1  0.03979500  0.27693700  0.83553800  1
  O  O144  1  0.96202200  0.21078400  0.66635300  1
  O  O145  1  0.39998400  0.23041600  0.98066000  1
  O  O146  1  0.01129200  0.00000000  0.09492400  1
  O  O147  1  0.35455950  0.28507150  0.77070600  1
  O  O148  1  0.98870800  0.00000000  0.90507600  1
  O  O149  1  0.29177400  0.71184600  0.58454600  1
  O  O150  1  0.93740600  0.50000000  0.72903900  1
  O  O151  1  0.35455950  0.71492850  0.77070600  1
  O  O152  1  0.25035200  0.50000000  0.66773500  1
  O  O153  1  0.39998400  0.76958400  0.98066000  1
  O  O154  1  0.70822600  0.28815400  0.41545400  1
  O  O155  1  0.27250000  0.50000000  0.84046700  1
  O  O156  1  0.81565500  0.50000000  0.52220000  1
  O  O157  1  0.29177400  0.28815400  0.58454600  1
  O  O158  1  0.70822600  0.71184600  0.41545400  1
  O  O159  1  0.14822650  0.70923450  0.73016100  1
  O  O160  1  0.27762900  0.00000000  0.84014900  1
  O  O161  1  0.10367550  0.78763850  0.52191800  1
  O  O162  1  0.21923300  0.00000000  0.65491600  1
  O  O163  1  0.03797800  0.21078400  0.33364700  1
  O  O164  1  0.99724600  0.00000000  0.41557200  1
  O  O165  1  0.10367550  0.21236150  0.52191800  1
  O  O166  1  0.18434500  0.50000000  0.47780000  1
  O  O167  1  0.14822650  0.29076550  0.73016100  1
  O  O168  1  0.00275400  0.00000000  0.58442800  1
  O  O169  1  0.03797800  0.78921600  0.33364700  1
  O  O170  1  0.89632450  0.21236150  0.47808200  1
  O  O171  1  0.03153100  0.50000000  0.59398300  1
  O  O172  1  0.96846900  0.50000000  0.40601700  1
  O  O173  1  0.89632450  0.78763850  0.47808200  1
  O  O174  1  0.74964800  0.50000000  0.33226500  1
  O  O175  1  0.78076700  0.00000000  0.34508400  1
