# generated using pymatgen
data_K3Bi5(PO4)6
_symmetry_space_group_name_H-M   'P 1'
_cell_length_a   17.83967800
_cell_length_b   7.05555200
_cell_length_c   18.89795740
_cell_angle_alpha   90.00000000
_cell_angle_beta   113.27218795
_cell_angle_gamma   90.00000000
_symmetry_Int_Tables_number   1
_chemical_formula_structural   K3Bi5(PO4)6
_chemical_formula_sum   'K12 Bi20 P24 O96'
_cell_volume   2185.13065897
_cell_formula_units_Z   4
loop_
 _symmetry_equiv_pos_site_id
 _symmetry_equiv_pos_as_xyz
  1  'x, y, z'
loop_
 _atom_site_type_symbol
 _atom_site_label
 _atom_site_symmetry_multiplicity
 _atom_site_fract_x
 _atom_site_fract_y
 _atom_site_fract_z
 _atom_site_occupancy
  K  K0  1  0.00000000  0.31307200  0.75000000  1
  K  K1  1  0.00000000  0.68692800  0.25000000  1
  K  K2  1  0.42220900  0.90066400  0.93007800  1
  K  K3  1  0.92220900  0.59933600  0.43007800  1
  K  K4  1  0.57779100  0.09933600  0.06992200  1
  K  K5  1  0.07779100  0.40066400  0.56992200  1
  K  K6  1  0.50000000  0.81307200  0.75000000  1
  K  K7  1  0.50000000  0.18692800  0.25000000  1
  K  K8  1  0.92220900  0.40066400  0.93007800  1
  K  K9  1  0.42220900  0.09933600  0.43007800  1
  K  K10  1  0.07779100  0.59933600  0.06992200  1
  K  K11  1  0.57779100  0.90066400  0.56992200  1
  Bi  Bi12  1  0.13723750  0.90080650  0.47146500  1
  Bi  Bi13  1  0.27541000  0.10858100  0.70442200  1
  Bi  Bi14  1  0.77541000  0.39141900  0.20442200  1
  Bi  Bi15  1  0.72459000  0.89141900  0.29557800  1
  Bi  Bi16  1  0.13723750  0.09919350  0.97146500  1
  Bi  Bi17  1  0.86276250  0.09919350  0.52853500  1
  Bi  Bi18  1  0.86276250  0.90080650  0.02853500  1
  Bi  Bi19  1  0.00000000  0.14733000  0.25000000  1
  Bi  Bi20  1  0.00000000  0.85267000  0.75000000  1
  Bi  Bi21  1  0.22459000  0.60858100  0.79557800  1
  Bi  Bi22  1  0.63723750  0.40080650  0.47146500  1
  Bi  Bi23  1  0.77541000  0.60858100  0.70442200  1
  Bi  Bi24  1  0.27541000  0.89141900  0.20442200  1
  Bi  Bi25  1  0.22459000  0.39141900  0.29557800  1
  Bi  Bi26  1  0.63723750  0.59919350  0.97146500  1
  Bi  Bi27  1  0.36276250  0.59919350  0.52853500  1
  Bi  Bi28  1  0.36276250  0.40080650  0.02853500  1
  Bi  Bi29  1  0.50000000  0.64733000  0.25000000  1
  Bi  Bi30  1  0.50000000  0.35267000  0.75000000  1
  Bi  Bi31  1  0.72459000  0.10858100  0.79557800  1
  P  P32  1  0.92751750  0.08125150  0.38183600  1
  P  P33  1  0.28448800  0.60277300  0.65123400  1
  P  P34  1  0.21551200  0.10277300  0.84876600  1
  P  P35  1  0.12988400  0.58681300  0.90878000  1
  P  P36  1  0.78448800  0.89722700  0.15123400  1
  P  P37  1  0.71551200  0.39722700  0.34876600  1
  P  P38  1  0.57248250  0.58125150  0.11816400  1
  P  P39  1  0.87011600  0.41318700  0.09122000  1
  P  P40  1  0.12988400  0.41318700  0.40878000  1
  P  P41  1  0.42751750  0.41874850  0.88183600  1
  P  P42  1  0.07248250  0.91874850  0.61816400  1
  P  P43  1  0.87011600  0.58681300  0.59122000  1
  P  P44  1  0.42751750  0.58125150  0.38183600  1
  P  P45  1  0.78448800  0.10277300  0.65123400  1
  P  P46  1  0.71551200  0.60277300  0.84876600  1
  P  P47  1  0.62988400  0.08681300  0.90878000  1
  P  P48  1  0.28448800  0.39722700  0.15123400  1
  P  P49  1  0.21551200  0.89722700  0.34876600  1
  P  P50  1  0.07248250  0.08125150  0.11816400  1
  P  P51  1  0.37011600  0.91318700  0.09122000  1
  P  P52  1  0.62988400  0.91318700  0.40878000  1
  P  P53  1  0.92751750  0.91874850  0.88183600  1
  P  P54  1  0.57248250  0.41874850  0.61816400  1
  P  P55  1  0.37011600  0.08681300  0.59122000  1
  O  O56  1  0.88115250  0.74780050  0.54283600  1
  O  O57  1  0.88115250  0.25219950  0.04283600  1
  O  O58  1  0.99836250  0.04747050  0.88134900  1
  O  O59  1  0.91839400  0.62154400  0.68205300  1
  O  O60  1  0.09276100  0.40013000  0.92459200  1
  O  O61  1  0.08160600  0.62154400  0.81794700  1
  O  O62  1  0.28028850  0.06659750  0.58464300  1
  O  O63  1  0.55565650  0.69090450  0.04296000  1
  O  O64  1  0.09079950  0.22334250  0.18692200  1
  O  O65  1  0.09079950  0.77665750  0.68692200  1
  O  O66  1  0.75998100  0.34180300  0.43431700  1
  O  O67  1  0.87330250  0.94943150  0.16187300  1
  O  O68  1  0.74076600  0.06619100  0.17319000  1
  O  O69  1  0.35414000  0.55524200  0.87016700  1
  O  O70  1  0.90723900  0.59987000  0.07540800  1
  O  O71  1  0.00163750  0.04747050  0.61865100  1
  O  O72  1  0.12669750  0.94943150  0.33812700  1
  O  O73  1  0.24001900  0.65819700  0.56568300  1
  O  O74  1  0.44434350  0.30909550  0.95704000  1
  O  O75  1  0.87330250  0.05056850  0.66187300  1
  O  O76  1  0.14586000  0.05524200  0.62983300  1
  O  O77  1  0.21279800  0.26315200  0.79093100  1
  O  O78  1  0.09276100  0.59987000  0.42459200  1
  O  O79  1  0.91839400  0.37845600  0.18205300  1
  O  O80  1  0.24076600  0.43380900  0.67319000  1
  O  O81  1  0.99836250  0.95252950  0.38134900  1
  O  O82  1  0.90920050  0.22334250  0.31307800  1
  O  O83  1  0.12669750  0.05056850  0.83812700  1
  O  O84  1  0.25923400  0.93380900  0.82681000  1
  O  O85  1  0.28720200  0.76315200  0.70906900  1
  O  O86  1  0.21971150  0.56659750  0.91535700  1
  O  O87  1  0.78028850  0.43340250  0.08464300  1
  O  O88  1  0.25998100  0.15819700  0.93431700  1
  O  O89  1  0.78720200  0.73684800  0.20906900  1
  O  O90  1  0.05565650  0.80909550  0.54296000  1
  O  O91  1  0.08160600  0.37845600  0.31794700  1
  O  O92  1  0.11884750  0.74780050  0.95716400  1
  O  O93  1  0.85414000  0.94475800  0.37016700  1
  O  O94  1  0.90723900  0.40013000  0.57540800  1
  O  O95  1  0.94434350  0.19090450  0.45704000  1
  O  O96  1  0.11884750  0.25219950  0.45716400  1
  O  O97  1  0.64586000  0.44475800  0.12983300  1
  O  O98  1  0.00163750  0.95252950  0.11865100  1
  O  O99  1  0.74001900  0.84180300  0.06568300  1
  O  O100  1  0.75923400  0.56619100  0.32681000  1
  O  O101  1  0.71279800  0.23684800  0.29093100  1
  O  O102  1  0.90920050  0.77665750  0.81307800  1
  O  O103  1  0.71971150  0.93340250  0.41535700  1
  O  O104  1  0.38115250  0.24780050  0.54283600  1
  O  O105  1  0.38115250  0.75219950  0.04283600  1
  O  O106  1  0.49836250  0.54747050  0.88134900  1
  O  O107  1  0.41839400  0.12154400  0.68205300  1
  O  O108  1  0.59276100  0.90013000  0.92459200  1
  O  O109  1  0.58160600  0.12154400  0.81794700  1
  O  O110  1  0.78028850  0.56659750  0.58464300  1
  O  O111  1  0.05565650  0.19090450  0.04296000  1
  O  O112  1  0.59079950  0.72334250  0.18692200  1
  O  O113  1  0.59079950  0.27665750  0.68692200  1
  O  O114  1  0.25998100  0.84180300  0.43431700  1
  O  O115  1  0.37330250  0.44943150  0.16187300  1
  O  O116  1  0.24076600  0.56619100  0.17319000  1
  O  O117  1  0.85414000  0.05524200  0.87016700  1
  O  O118  1  0.40723900  0.09987000  0.07540800  1
  O  O119  1  0.50163750  0.54747050  0.61865100  1
  O  O120  1  0.62669750  0.44943150  0.33812700  1
  O  O121  1  0.74001900  0.15819700  0.56568300  1
  O  O122  1  0.94434350  0.80909550  0.95704000  1
  O  O123  1  0.37330250  0.55056850  0.66187300  1
  O  O124  1  0.64586000  0.55524200  0.62983300  1
  O  O125  1  0.71279800  0.76315200  0.79093100  1
  O  O126  1  0.59276100  0.09987000  0.42459200  1
  O  O127  1  0.41839400  0.87845600  0.18205300  1
  O  O128  1  0.74076600  0.93380900  0.67319000  1
  O  O129  1  0.49836250  0.45252950  0.38134900  1
  O  O130  1  0.40920050  0.72334250  0.31307800  1
  O  O131  1  0.62669750  0.55056850  0.83812700  1
  O  O132  1  0.75923400  0.43380900  0.82681000  1
  O  O133  1  0.78720200  0.26315200  0.70906900  1
  O  O134  1  0.71971150  0.06659750  0.91535700  1
  O  O135  1  0.28028850  0.93340250  0.08464300  1
  O  O136  1  0.75998100  0.65819700  0.93431700  1
  O  O137  1  0.28720200  0.23684800  0.20906900  1
  O  O138  1  0.55565650  0.30909550  0.54296000  1
  O  O139  1  0.58160600  0.87845600  0.31794700  1
  O  O140  1  0.61884750  0.24780050  0.95716400  1
  O  O141  1  0.35414000  0.44475800  0.37016700  1
  O  O142  1  0.40723900  0.90013000  0.57540800  1
  O  O143  1  0.44434350  0.69090450  0.45704000  1
  O  O144  1  0.61884750  0.75219950  0.45716400  1
  O  O145  1  0.14586000  0.94475800  0.12983300  1
  O  O146  1  0.50163750  0.45252950  0.11865100  1
  O  O147  1  0.24001900  0.34180300  0.06568300  1
  O  O148  1  0.25923400  0.06619100  0.32681000  1
  O  O149  1  0.21279800  0.73684800  0.29093100  1
  O  O150  1  0.40920050  0.27665750  0.81307800  1
  O  O151  1  0.21971150  0.43340250  0.41535700  1
