# generated using pymatgen
data_Gd2Te4O11
_symmetry_space_group_name_H-M   'P 1'
_cell_length_a   12.60970800
_cell_length_b   5.22468800
_cell_length_c   16.43134000
_cell_angle_alpha   90.00000000
_cell_angle_beta   105.12384873
_cell_angle_gamma   90.00000000
_symmetry_Int_Tables_number   1
_chemical_formula_structural   Gd2Te4O11
_chemical_formula_sum   'Gd8 Te16 O44'
_cell_volume   1045.03184339
_cell_formula_units_Z   4
loop_
 _symmetry_equiv_pos_site_id
 _symmetry_equiv_pos_as_xyz
  1  'x, y, z'
loop_
 _atom_site_type_symbol
 _atom_site_label
 _atom_site_symmetry_multiplicity
 _atom_site_fract_x
 _atom_site_fract_y
 _atom_site_fract_z
 _atom_site_occupancy
  Gd  Gd0  1  0.38090250  0.75075850  0.96241600  1
  Gd  Gd1  1  0.11909750  0.25075850  0.53758400  1
  Gd  Gd2  1  0.61909750  0.24924150  0.03758400  1
  Gd  Gd3  1  0.88090250  0.74924150  0.46241600  1
  Gd  Gd4  1  0.88090250  0.25075850  0.96241600  1
  Gd  Gd5  1  0.61909750  0.75075850  0.53758400  1
  Gd  Gd6  1  0.11909750  0.74924150  0.03758400  1
  Gd  Gd7  1  0.38090250  0.24924150  0.46241600  1
  Te  Te8  1  0.87055700  0.28184600  0.62570300  1
  Te  Te9  1  0.12944300  0.28184600  0.87429700  1
  Te  Te10  1  0.12944300  0.71815400  0.37429700  1
  Te  Te11  1  0.87055700  0.71815400  0.12570300  1
  Te  Te12  1  0.37929000  0.22318100  0.80082200  1
  Te  Te13  1  0.12071000  0.72318100  0.69917800  1
  Te  Te14  1  0.62071000  0.77681900  0.19917800  1
  Te  Te15  1  0.87929000  0.27681900  0.30082200  1
  Te  Te16  1  0.37055700  0.78184600  0.62570300  1
  Te  Te17  1  0.62944300  0.78184600  0.87429700  1
  Te  Te18  1  0.62944300  0.21815400  0.37429700  1
  Te  Te19  1  0.37055700  0.21815400  0.12570300  1
  Te  Te20  1  0.87929000  0.72318100  0.80082200  1
  Te  Te21  1  0.62071000  0.22318100  0.69917800  1
  Te  Te22  1  0.12071000  0.27681900  0.19917800  1
  Te  Te23  1  0.37929000  0.77681900  0.30082200  1
  O  O24  1  0.24801350  0.56435750  0.62816600  1
  O  O25  1  0.25198650  0.06435750  0.87183400  1
  O  O26  1  0.75198650  0.43564250  0.37183400  1
  O  O27  1  0.74801350  0.93564250  0.12816600  1
  O  O28  1  0.79225000  0.54251300  0.55333200  1
  O  O29  1  0.20775000  0.54251300  0.94666800  1
  O  O30  1  0.20775000  0.45748700  0.44666800  1
  O  O31  1  0.79225000  0.45748700  0.05333200  1
  O  O32  1  0.92972450  0.11067750  0.54561100  1
  O  O33  1  0.07027550  0.11067750  0.95438900  1
  O  O34  1  0.07027550  0.88932250  0.45438900  1
  O  O35  1  0.92972450  0.88932250  0.04561100  1
  O  O36  1  0.02481400  0.58179200  0.59811800  1
  O  O37  1  0.97518600  0.58179200  0.90188200  1
  O  O38  1  0.97518600  0.41820800  0.40188200  1
  O  O39  1  0.02481400  0.41820800  0.09811800  1
  O  O40  1  0.14837850  0.05563350  0.66843900  1
  O  O41  1  0.35162150  0.55563350  0.83156100  1
  O  O42  1  0.85162150  0.94436650  0.33156100  1
  O  O43  1  0.64837850  0.44436650  0.16843900  1
  O  O44  1  0.00000000  0.85412100  0.75000000  1
  O  O45  1  0.00000000  0.14587900  0.25000000  1
  O  O46  1  0.74801350  0.06435750  0.62816600  1
  O  O47  1  0.75198650  0.56435750  0.87183400  1
  O  O48  1  0.25198650  0.93564250  0.37183400  1
  O  O49  1  0.24801350  0.43564250  0.12816600  1
  O  O50  1  0.29225000  0.04251300  0.55333200  1
  O  O51  1  0.70775000  0.04251300  0.94666800  1
  O  O52  1  0.70775000  0.95748700  0.44666800  1
  O  O53  1  0.29225000  0.95748700  0.05333200  1
  O  O54  1  0.42972450  0.61067750  0.54561100  1
  O  O55  1  0.57027550  0.61067750  0.95438900  1
  O  O56  1  0.57027550  0.38932250  0.45438900  1
  O  O57  1  0.42972450  0.38932250  0.04561100  1
  O  O58  1  0.52481400  0.08179200  0.59811800  1
  O  O59  1  0.47518600  0.08179200  0.90188200  1
  O  O60  1  0.47518600  0.91820800  0.40188200  1
  O  O61  1  0.52481400  0.91820800  0.09811800  1
  O  O62  1  0.64837850  0.55563350  0.66843900  1
  O  O63  1  0.85162150  0.05563350  0.83156100  1
  O  O64  1  0.35162150  0.44436650  0.33156100  1
  O  O65  1  0.14837850  0.94436650  0.16843900  1
  O  O66  1  0.50000000  0.35412100  0.75000000  1
  O  O67  1  0.50000000  0.64587900  0.25000000  1
