# generated using pymatgen
data_AsSOF9
_symmetry_space_group_name_H-M   'P 1'
_cell_length_a   7.45401500
_cell_length_b   8.70426700
_cell_length_c   11.17491800
_cell_angle_alpha   90.00000000
_cell_angle_beta   90.00000000
_cell_angle_gamma   90.00000000
_symmetry_Int_Tables_number   1
_chemical_formula_structural   AsSOF9
_chemical_formula_sum   'As4 S4 O4 F36'
_cell_volume   725.04808824
_cell_formula_units_Z   4
loop_
 _symmetry_equiv_pos_site_id
 _symmetry_equiv_pos_as_xyz
  1  'x, y, z'
loop_
 _atom_site_type_symbol
 _atom_site_label
 _atom_site_symmetry_multiplicity
 _atom_site_fract_x
 _atom_site_fract_y
 _atom_site_fract_z
 _atom_site_occupancy
  As  As0  1  0.75000000  0.70754800  0.48687400  1
  As  As1  1  0.25000000  0.20754800  0.01312600  1
  As  As2  1  0.25000000  0.29245200  0.51312600  1
  As  As3  1  0.75000000  0.79245200  0.98687400  1
  S  S4  1  0.25000000  0.83397800  0.30409500  1
  S  S5  1  0.75000000  0.33397800  0.19590500  1
  S  S6  1  0.75000000  0.16602200  0.69590500  1
  S  S7  1  0.25000000  0.66602200  0.80409500  1
  O  O8  1  0.25000000  0.70466800  0.23121800  1
  O  O9  1  0.25000000  0.79533200  0.73121800  1
  O  O10  1  0.75000000  0.29533200  0.76878200  1
  O  O11  1  0.75000000  0.20466800  0.26878200  1
  F  F12  1  0.75000000  0.50620400  0.50432200  1
  F  F13  1  0.08111700  0.27122700  0.40329600  1
  F  F14  1  0.75000000  0.30884100  0.06301300  1
  F  F15  1  0.09549700  0.55597100  0.78928900  1
  F  F16  1  0.91888300  0.77122700  0.09670400  1
  F  F17  1  0.25000000  0.08971200  0.53553200  1
  F  F18  1  0.90450300  0.44402900  0.21071100  1
  F  F19  1  0.41788800  0.31027800  0.62637400  1
  F  F20  1  0.58211200  0.81027800  0.87362600  1
  F  F21  1  0.75000000  0.91028800  0.46446800  1
  F  F22  1  0.91788800  0.81027800  0.87362600  1
  F  F23  1  0.59549700  0.44402900  0.21071100  1
  F  F24  1  0.25000000  0.49379600  0.49567800  1
  F  F25  1  0.40450300  0.55597100  0.78928900  1
  F  F26  1  0.25000000  0.00620400  0.99567800  1
  F  F27  1  0.58111700  0.77122700  0.09670400  1
  F  F28  1  0.08211200  0.31027800  0.62637400  1
  F  F29  1  0.08111700  0.22877300  0.90329600  1
  F  F30  1  0.75000000  0.99379600  0.00432200  1
  F  F31  1  0.41788800  0.18972200  0.12637400  1
  F  F32  1  0.41888300  0.22877300  0.90329600  1
  F  F33  1  0.41888300  0.27122700  0.40329600  1
  F  F34  1  0.75000000  0.58971200  0.96446800  1
  F  F35  1  0.25000000  0.80884100  0.43698700  1
  F  F36  1  0.59549700  0.05597100  0.71071100  1
  F  F37  1  0.08211200  0.18972200  0.12637400  1
  F  F38  1  0.75000000  0.19115900  0.56301300  1
  F  F39  1  0.40450300  0.94402900  0.28928900  1
  F  F40  1  0.91888300  0.72877300  0.59670400  1
  F  F41  1  0.91788800  0.68972200  0.37362600  1
  F  F42  1  0.25000000  0.69115900  0.93698700  1
  F  F43  1  0.09549700  0.94402900  0.28928900  1
  F  F44  1  0.25000000  0.41028800  0.03553200  1
  F  F45  1  0.58211200  0.68972200  0.37362600  1
  F  F46  1  0.58111700  0.72877300  0.59670400  1
  F  F47  1  0.90450300  0.05597100  0.71071100  1
