# generated using pymatgen
data_NbS3
_symmetry_space_group_name_H-M   'P 1'
_cell_length_a   5.03627400
_cell_length_b   6.81471518
_cell_length_c   9.60749256
_cell_angle_alpha   89.95955168
_cell_angle_beta   83.17267983
_cell_angle_gamma   89.98668227
_symmetry_Int_Tables_number   1
_chemical_formula_structural   NbS3
_chemical_formula_sum   'Nb4 S12'
_cell_volume   327.39830228
_cell_formula_units_Z   4
loop_
 _symmetry_equiv_pos_site_id
 _symmetry_equiv_pos_as_xyz
  1  'x, y, z'
loop_
 _atom_site_type_symbol
 _atom_site_label
 _atom_site_symmetry_multiplicity
 _atom_site_fract_x
 _atom_site_fract_y
 _atom_site_fract_z
 _atom_site_occupancy
  Nb  Nb0  1  0.71806300  0.85070200  0.64093500  1
  Nb  Nb1  1  0.71563300  0.40196300  0.64947700  1
  Nb  Nb2  1  0.28193700  0.14929800  0.35906500  1
  Nb  Nb3  1  0.28436700  0.59803700  0.35052300  1
  S  S4  1  0.52811000  0.36826800  0.17407700  1
  S  S5  1  0.75928500  0.13390900  0.45853700  1
  S  S6  1  0.76403900  0.61468600  0.43977900  1
  S  S7  1  0.23596100  0.38531400  0.56022100  1
  S  S8  1  0.87160300  0.63122600  0.82960300  1
  S  S9  1  0.24071500  0.86609100  0.54146300  1
  S  S10  1  0.51930100  0.87738600  0.19903100  1
  S  S11  1  0.48069900  0.12261400  0.80096900  1
  S  S12  1  0.47189000  0.63173200  0.82592300  1
  S  S13  1  0.12839700  0.36877400  0.17039700  1
  S  S14  1  0.11907700  0.87714800  0.19816500  1
  S  S15  1  0.88092300  0.12285200  0.80183500  1
