# generated using pymatgen
data_Ba(BrO3)2
_symmetry_space_group_name_H-M   'P 1'
_cell_length_a   12.57082000
_cell_length_b   8.15746000
_cell_length_c   8.68961012
_cell_angle_alpha   90.00000000
_cell_angle_beta   129.48224783
_cell_angle_gamma   90.00000000
_symmetry_Int_Tables_number   1
_chemical_formula_structural   Ba(BrO3)2
_chemical_formula_sum   'Ba4 Br8 O24'
_cell_volume   687.75822720
_cell_formula_units_Z   4
loop_
 _symmetry_equiv_pos_site_id
 _symmetry_equiv_pos_as_xyz
  1  'x, y, z'
loop_
 _atom_site_type_symbol
 _atom_site_label
 _atom_site_symmetry_multiplicity
 _atom_site_fract_x
 _atom_site_fract_y
 _atom_site_fract_z
 _atom_site_occupancy
  Ba  Ba0  1  0.00000000  0.85160700  0.25000000  1
  Ba  Ba1  1  0.50000000  0.64839300  0.75000000  1
  Ba  Ba2  1  0.50000000  0.35160700  0.25000000  1
  Ba  Ba3  1  0.00000000  0.14839300  0.75000000  1
  Br  Br4  1  0.19116150  0.49062850  0.18414700  1
  Br  Br5  1  0.30883850  0.00937150  0.81585300  1
  Br  Br6  1  0.19116150  0.50937150  0.68414700  1
  Br  Br7  1  0.30883850  0.99062850  0.31585300  1
  Br  Br8  1  0.69116150  0.99062850  0.18414700  1
  Br  Br9  1  0.80883850  0.50937150  0.81585300  1
  Br  Br10  1  0.69116150  0.00937150  0.68414700  1
  Br  Br11  1  0.80883850  0.49062850  0.31585300  1
  O  O12  1  0.14259800  0.94600500  0.65220000  1
  O  O13  1  0.85740200  0.94600500  0.84780000  1
  O  O14  1  0.35740200  0.55399500  0.34780000  1
  O  O15  1  0.31156050  0.90781950  0.49732000  1
  O  O16  1  0.59767200  0.83653700  0.58516500  1
  O  O17  1  0.64259800  0.55399500  0.15220000  1
  O  O18  1  0.18843950  0.59218050  0.50268000  1
  O  O19  1  0.18843950  0.40781950  0.00268000  1
  O  O20  1  0.31156050  0.09218050  0.99732000  1
  O  O21  1  0.09767200  0.66346300  0.08516500  1
  O  O22  1  0.90232800  0.66346300  0.41483500  1
  O  O23  1  0.40232800  0.83653700  0.91483500  1
  O  O24  1  0.64259800  0.44600500  0.65220000  1
  O  O25  1  0.35740200  0.44600500  0.84780000  1
  O  O26  1  0.85740200  0.05399500  0.34780000  1
  O  O27  1  0.81156050  0.40781950  0.49732000  1
  O  O28  1  0.09767200  0.33653700  0.58516500  1
  O  O29  1  0.14259800  0.05399500  0.15220000  1
  O  O30  1  0.68843950  0.09218050  0.50268000  1
  O  O31  1  0.68843950  0.90781950  0.00268000  1
  O  O32  1  0.81156050  0.59218050  0.99732000  1
  O  O33  1  0.59767200  0.16346300  0.08516500  1
  O  O34  1  0.40232800  0.16346300  0.41483500  1
  O  O35  1  0.90232800  0.33653700  0.91483500  1
