# generated using pymatgen
data_LiFe(PO3)4
_symmetry_space_group_name_H-M   'P 1'
_cell_length_a   17.03896000
_cell_length_b   12.17165000
_cell_length_c   5.22408163
_cell_angle_alpha   90.00000000
_cell_angle_beta   99.71004452
_cell_angle_gamma   90.00000000
_symmetry_Int_Tables_number   1
_chemical_formula_structural   LiFe(PO3)4
_chemical_formula_sum   'Li4 Fe4 P16 O48'
_cell_volume   1067.91271532
_cell_formula_units_Z   4
loop_
 _symmetry_equiv_pos_site_id
 _symmetry_equiv_pos_as_xyz
  1  'x, y, z'
loop_
 _atom_site_type_symbol
 _atom_site_label
 _atom_site_symmetry_multiplicity
 _atom_site_fract_x
 _atom_site_fract_y
 _atom_site_fract_z
 _atom_site_occupancy
  Li  Li0  1  0.42365000  0.00000000  0.42295300  1
  Li  Li1  1  0.57635000  0.00000000  0.57704700  1
  Li  Li2  1  0.92365000  0.50000000  0.42295300  1
  Li  Li3  1  0.07635000  0.50000000  0.57704700  1
  Fe  Fe4  1  0.25000000  0.25000000  0.00000000  1
  Fe  Fe5  1  0.25000000  0.75000000  0.00000000  1
  Fe  Fe6  1  0.75000000  0.75000000  0.00000000  1
  Fe  Fe7  1  0.75000000  0.25000000  0.00000000  1
  P  P8  1  0.42389750  0.20829250  0.82330700  1
  P  P9  1  0.17947100  0.12130900  0.46506900  1
  P  P10  1  0.82052900  0.12130900  0.53493100  1
  P  P11  1  0.57610250  0.20829250  0.17669300  1
  P  P12  1  0.57610250  0.79170750  0.17669300  1
  P  P13  1  0.17947100  0.87869100  0.46506900  1
  P  P14  1  0.42389750  0.79170750  0.82330700  1
  P  P15  1  0.82052900  0.87869100  0.53493100  1
  P  P16  1  0.92389750  0.70829250  0.82330700  1
  P  P17  1  0.67947100  0.62130900  0.46506900  1
  P  P18  1  0.32052900  0.62130900  0.53493100  1
  P  P19  1  0.07610250  0.70829250  0.17669300  1
  P  P20  1  0.07610250  0.29170750  0.17669300  1
  P  P21  1  0.67947100  0.37869100  0.46506900  1
  P  P22  1  0.92389750  0.29170750  0.82330700  1
  P  P23  1  0.32052900  0.37869100  0.53493100  1
  O  O24  1  0.40022550  0.31036350  0.62620700  1
  O  O25  1  0.44794500  0.11262400  0.67895500  1
  O  O26  1  0.35962900  0.19209900  0.98782900  1
  O  O27  1  0.59977450  0.31036350  0.37379300  1
  O  O28  1  0.14598200  0.00000000  0.39111500  1
  O  O29  1  0.64037100  0.19209900  0.01217100  1
  O  O30  1  0.50000000  0.73551500  0.00000000  1
  O  O31  1  0.79765000  0.12903900  0.24513300  1
  O  O32  1  0.20235000  0.87096100  0.75486700  1
  O  O33  1  0.85401800  0.00000000  0.60888500  1
  O  O34  1  0.59977450  0.68963650  0.37379300  1
  O  O35  1  0.20235000  0.12903900  0.75486700  1
  O  O36  1  0.55205500  0.88737600  0.32104500  1
  O  O37  1  0.79765000  0.87096100  0.24513300  1
  O  O38  1  0.75733900  0.85010400  0.69515400  1
  O  O39  1  0.55205500  0.11262400  0.32104500  1
  O  O40  1  0.24266100  0.14989600  0.30484600  1
  O  O41  1  0.64037100  0.80790100  0.01217100  1
  O  O42  1  0.35962900  0.80790100  0.98782900  1
  O  O43  1  0.24266100  0.85010400  0.30484600  1
  O  O44  1  0.40022550  0.68963650  0.62620700  1
  O  O45  1  0.44794500  0.88737600  0.67895500  1
  O  O46  1  0.50000000  0.26448500  0.00000000  1
  O  O47  1  0.75733900  0.14989600  0.69515400  1
  O  O48  1  0.90022550  0.81036350  0.62620700  1
  O  O49  1  0.94794500  0.61262400  0.67895500  1
  O  O50  1  0.85962900  0.69209900  0.98782900  1
  O  O51  1  0.09977450  0.81036350  0.37379300  1
  O  O52  1  0.64598200  0.50000000  0.39111500  1
  O  O53  1  0.14037100  0.69209900  0.01217100  1
  O  O54  1  0.00000000  0.23551500  0.00000000  1
  O  O55  1  0.29765000  0.62903900  0.24513300  1
  O  O56  1  0.70235000  0.37096100  0.75486700  1
  O  O57  1  0.35401800  0.50000000  0.60888500  1
  O  O58  1  0.09977450  0.18963650  0.37379300  1
  O  O59  1  0.70235000  0.62903900  0.75486700  1
  O  O60  1  0.05205500  0.38737600  0.32104500  1
  O  O61  1  0.29765000  0.37096100  0.24513300  1
  O  O62  1  0.25733900  0.35010400  0.69515400  1
  O  O63  1  0.05205500  0.61262400  0.32104500  1
  O  O64  1  0.74266100  0.64989600  0.30484600  1
  O  O65  1  0.14037100  0.30790100  0.01217100  1
  O  O66  1  0.85962900  0.30790100  0.98782900  1
  O  O67  1  0.74266100  0.35010400  0.30484600  1
  O  O68  1  0.90022550  0.18963650  0.62620700  1
  O  O69  1  0.94794500  0.38737600  0.67895500  1
  O  O70  1  0.00000000  0.76448500  0.00000000  1
  O  O71  1  0.25733900  0.64989600  0.69515400  1
