# generated using pymatgen
data_Mg(AlCl4)2
_symmetry_space_group_name_H-M   'P 1'
_cell_length_a   17.81874200
_cell_length_b   8.20955200
_cell_length_c   11.69648376
_cell_angle_alpha   90.00000000
_cell_angle_beta   128.35675307
_cell_angle_gamma   90.00000000
_symmetry_Int_Tables_number   1
_chemical_formula_structural   Mg(AlCl4)2
_chemical_formula_sum   'Mg4 Al8 Cl32'
_cell_volume   1341.70690681
_cell_formula_units_Z   4
loop_
 _symmetry_equiv_pos_site_id
 _symmetry_equiv_pos_as_xyz
  1  'x, y, z'
loop_
 _atom_site_type_symbol
 _atom_site_label
 _atom_site_symmetry_multiplicity
 _atom_site_fract_x
 _atom_site_fract_y
 _atom_site_fract_z
 _atom_site_occupancy
  Mg  Mg0  1  0.50000000  0.49816300  0.75000000  1
  Mg  Mg1  1  0.50000000  0.50183700  0.25000000  1
  Mg  Mg2  1  0.00000000  0.99816300  0.75000000  1
  Mg  Mg3  1  0.00000000  0.00183700  0.25000000  1
  Al  Al4  1  0.58599700  0.25478300  0.53181100  1
  Al  Al5  1  0.91400300  0.75478300  0.96818900  1
  Al  Al6  1  0.41400300  0.74521700  0.46818900  1
  Al  Al7  1  0.08599700  0.24521700  0.03181100  1
  Al  Al8  1  0.08599700  0.75478300  0.53181100  1
  Al  Al9  1  0.41400300  0.25478300  0.96818900  1
  Al  Al10  1  0.91400300  0.24521700  0.46818900  1
  Al  Al11  1  0.58599700  0.74521700  0.03181100  1
  Cl  Cl12  1  0.65497900  0.03820300  0.54897800  1
  Cl  Cl13  1  0.84502100  0.53820300  0.95102200  1
  Cl  Cl14  1  0.34502100  0.96179700  0.45102200  1
  Cl  Cl15  1  0.15497900  0.46179700  0.04897800  1
  Cl  Cl16  1  0.64876400  0.47301900  0.51287100  1
  Cl  Cl17  1  0.85123600  0.97301900  0.98712900  1
  Cl  Cl18  1  0.35123600  0.52698100  0.48712900  1
  Cl  Cl19  1  0.14876400  0.02698100  0.01287100  1
  Cl  Cl20  1  0.58458900  0.27353500  0.71731800  1
  Cl  Cl21  1  0.41541100  0.27353500  0.78268200  1
  Cl  Cl22  1  0.41541100  0.72646500  0.28268200  1
  Cl  Cl23  1  0.58458900  0.72646500  0.21731800  1
  Cl  Cl24  1  0.44013050  0.27925250  0.32846500  1
  Cl  Cl25  1  0.55986950  0.27925250  0.17153500  1
  Cl  Cl26  1  0.55986950  0.72074750  0.67153500  1
  Cl  Cl27  1  0.44013050  0.72074750  0.82846500  1
  Cl  Cl28  1  0.15497900  0.53820300  0.54897800  1
  Cl  Cl29  1  0.34502100  0.03820300  0.95102200  1
  Cl  Cl30  1  0.84502100  0.46179700  0.45102200  1
  Cl  Cl31  1  0.65497900  0.96179700  0.04897800  1
  Cl  Cl32  1  0.14876400  0.97301900  0.51287100  1
  Cl  Cl33  1  0.35123600  0.47301900  0.98712900  1
  Cl  Cl34  1  0.85123600  0.02698100  0.48712900  1
  Cl  Cl35  1  0.64876400  0.52698100  0.01287100  1
  Cl  Cl36  1  0.08458900  0.77353500  0.71731800  1
  Cl  Cl37  1  0.91541100  0.77353500  0.78268200  1
  Cl  Cl38  1  0.91541100  0.22646500  0.28268200  1
  Cl  Cl39  1  0.08458900  0.22646500  0.21731800  1
  Cl  Cl40  1  0.94013050  0.77925250  0.32846500  1
  Cl  Cl41  1  0.05986950  0.77925250  0.17153500  1
  Cl  Cl42  1  0.05986950  0.22074750  0.67153500  1
  Cl  Cl43  1  0.94013050  0.22074750  0.82846500  1
