# generated using pymatgen
data_Pb2CBr2O3
_symmetry_space_group_name_H-M   'P 1'
_cell_length_a   8.47971600
_cell_length_b   8.47971600
_cell_length_c   9.23209700
_cell_angle_alpha   90.00000000
_cell_angle_beta   90.00000000
_cell_angle_gamma   90.00000000
_symmetry_Int_Tables_number   1
_chemical_formula_structural   Pb2CBr2O3
_chemical_formula_sum   'Pb8 C4 Br8 O12'
_cell_volume   663.83932117
_cell_formula_units_Z   4
loop_
 _symmetry_equiv_pos_site_id
 _symmetry_equiv_pos_as_xyz
  1  'x, y, z'
loop_
 _atom_site_type_symbol
 _atom_site_label
 _atom_site_symmetry_multiplicity
 _atom_site_fract_x
 _atom_site_fract_y
 _atom_site_fract_z
 _atom_site_occupancy
  Pb  Pb0  1  0.16359100  0.66359100  0.25067500  1
  Pb  Pb1  1  0.33640900  0.16359100  0.25067500  1
  Pb  Pb2  1  0.66359100  0.83640900  0.25067500  1
  Pb  Pb3  1  0.66359100  0.83640900  0.74932500  1
  Pb  Pb4  1  0.33640900  0.16359100  0.74932500  1
  Pb  Pb5  1  0.83640900  0.33640900  0.25067500  1
  Pb  Pb6  1  0.16359100  0.66359100  0.74932500  1
  Pb  Pb7  1  0.83640900  0.33640900  0.74932500  1
  C  C8  1  0.32416300  0.82416300  0.00000000  1
  C  C9  1  0.17583700  0.32416300  0.00000000  1
  C  C10  1  0.82416300  0.67583700  0.00000000  1
  C  C11  1  0.67583700  0.17583700  0.00000000  1
  Br  Br12  1  0.00000000  0.00000000  0.23662400  1
  Br  Br13  1  0.50000000  0.50000000  0.76337600  1
  Br  Br14  1  0.00000000  0.00000000  0.76337600  1
  Br  Br15  1  0.50000000  0.50000000  0.23662400  1
  Br  Br16  1  0.34984000  0.84984000  0.50000000  1
  Br  Br17  1  0.15016000  0.34984000  0.50000000  1
  Br  Br18  1  0.84984000  0.65016000  0.50000000  1
  Br  Br19  1  0.65016000  0.15016000  0.50000000  1
  O  O20  1  0.21402500  0.71402500  0.00000000  1
  O  O21  1  0.28597500  0.21402500  0.00000000  1
  O  O22  1  0.71402500  0.78597500  0.00000000  1
  O  O23  1  0.78597500  0.28597500  0.00000000  1
  O  O24  1  0.37283900  0.87283900  0.12479800  1
  O  O25  1  0.12716100  0.37283900  0.12479800  1
  O  O26  1  0.87283900  0.62716100  0.12479800  1
  O  O27  1  0.87283900  0.62716100  0.87520200  1
  O  O28  1  0.12716100  0.37283900  0.87520200  1
  O  O29  1  0.62716100  0.12716100  0.12479800  1
  O  O30  1  0.37283900  0.87283900  0.87520200  1
  O  O31  1  0.62716100  0.12716100  0.87520200  1
