# generated using pymatgen
data_BaZnTeCl2O3
_symmetry_space_group_name_H-M   'P 1'
_cell_length_a   5.72231400
_cell_length_b   12.52130100
_cell_length_c   19.81985700
_cell_angle_alpha   90.00000000
_cell_angle_beta   90.00000000
_cell_angle_gamma   90.00000000
_symmetry_Int_Tables_number   1
_chemical_formula_structural   BaZnTeCl2O3
_chemical_formula_sum   'Ba8 Zn8 Te8 Cl16 O24'
_cell_volume   1420.10892726
_cell_formula_units_Z   8
loop_
 _symmetry_equiv_pos_site_id
 _symmetry_equiv_pos_as_xyz
  1  'x, y, z'
loop_
 _atom_site_type_symbol
 _atom_site_label
 _atom_site_symmetry_multiplicity
 _atom_site_fract_x
 _atom_site_fract_y
 _atom_site_fract_z
 _atom_site_occupancy
  Ba  Ba0  1  0.25000000  0.83255600  0.16993400  1
  Ba  Ba1  1  0.25000000  0.44293200  0.78955700  1
  Ba  Ba2  1  0.25000000  0.33255600  0.33006600  1
  Ba  Ba3  1  0.75000000  0.16744400  0.83006600  1
  Ba  Ba4  1  0.75000000  0.05706800  0.28955700  1
  Ba  Ba5  1  0.25000000  0.94293200  0.71044300  1
  Ba  Ba6  1  0.75000000  0.66744400  0.66993400  1
  Ba  Ba7  1  0.75000000  0.55706800  0.21044300  1
  Zn  Zn8  1  0.25000000  0.07021400  0.42749000  1
  Zn  Zn9  1  0.75000000  0.51382400  0.40638200  1
  Zn  Zn10  1  0.25000000  0.98617600  0.90638200  1
  Zn  Zn11  1  0.75000000  0.92978600  0.57251000  1
  Zn  Zn12  1  0.25000000  0.48617600  0.59361800  1
  Zn  Zn13  1  0.25000000  0.57021400  0.07251000  1
  Zn  Zn14  1  0.75000000  0.01382400  0.09361800  1
  Zn  Zn15  1  0.75000000  0.42978600  0.92749000  1
  Te  Te16  1  0.75000000  0.35987400  0.66065100  1
  Te  Te17  1  0.75000000  0.85987400  0.83934900  1
  Te  Te18  1  0.75000000  0.72540100  0.04885000  1
  Te  Te19  1  0.25000000  0.64012600  0.33934900  1
  Te  Te20  1  0.25000000  0.77459900  0.54885000  1
  Te  Te21  1  0.25000000  0.27459900  0.95115000  1
  Te  Te22  1  0.75000000  0.22540100  0.45115000  1
  Te  Te23  1  0.25000000  0.14012600  0.16065100  1
  Cl  Cl24  1  0.25000000  0.87562000  0.99523400  1
  Cl  Cl25  1  0.75000000  0.93980600  0.45972000  1
  Cl  Cl26  1  0.25000000  0.44060700  0.15477900  1
  Cl  Cl27  1  0.25000000  0.19413300  0.74070500  1
  Cl  Cl28  1  0.25000000  0.56019400  0.95972000  1
  Cl  Cl29  1  0.75000000  0.05939300  0.65477900  1
  Cl  Cl30  1  0.75000000  0.12438000  0.00476600  1
  Cl  Cl31  1  0.25000000  0.06019400  0.54028000  1
  Cl  Cl32  1  0.25000000  0.94060700  0.34522100  1
  Cl  Cl33  1  0.75000000  0.43980600  0.04028000  1
  Cl  Cl34  1  0.75000000  0.30586700  0.24070500  1
  Cl  Cl35  1  0.75000000  0.55939300  0.84522100  1
  Cl  Cl36  1  0.25000000  0.69413300  0.75929500  1
  Cl  Cl37  1  0.25000000  0.37562000  0.50476600  1
  Cl  Cl38  1  0.75000000  0.80586700  0.25929500  1
  Cl  Cl39  1  0.75000000  0.62438000  0.49523400  1
  O  O40  1  0.00713500  0.33032800  0.89576600  1
  O  O41  1  0.99286500  0.66967200  0.10423400  1
  O  O42  1  0.99286500  0.16967200  0.39576600  1
  O  O43  1  0.99359500  0.96439500  0.83879700  1
  O  O44  1  0.25000000  0.16083400  0.25317200  1
  O  O45  1  0.75000000  0.33916600  0.75317200  1
  O  O46  1  0.99359500  0.46439500  0.66120300  1
  O  O47  1  0.25000000  0.14179400  0.90734500  1
  O  O48  1  0.75000000  0.85820600  0.09265500  1
  O  O49  1  0.49286500  0.33032800  0.89576600  1
  O  O50  1  0.75000000  0.83916600  0.74682800  1
  O  O51  1  0.50713500  0.16967200  0.39576600  1
  O  O52  1  0.50640500  0.96439500  0.83879700  1
  O  O53  1  0.25000000  0.66083400  0.24682800  1
  O  O54  1  0.75000000  0.35820600  0.40734500  1
  O  O55  1  0.50713500  0.66967200  0.10423400  1
  O  O56  1  0.00640500  0.03560500  0.16120300  1
  O  O57  1  0.49359500  0.53560500  0.33879700  1
  O  O58  1  0.50640500  0.46439500  0.66120300  1
  O  O59  1  0.25000000  0.64179400  0.59265500  1
  O  O60  1  0.00713500  0.83032800  0.60423400  1
  O  O61  1  0.49286500  0.83032800  0.60423400  1
  O  O62  1  0.00640500  0.53560500  0.33879700  1
  O  O63  1  0.49359500  0.03560500  0.16120300  1
