# generated using pymatgen
data_KLa2NbO6
_symmetry_space_group_name_H-M   'P 1'
_cell_length_a   12.84128800
_cell_length_b   5.82889400
_cell_length_c   8.97140022
_cell_angle_alpha   90.00000000
_cell_angle_beta   105.95748356
_cell_angle_gamma   90.00000000
_symmetry_Int_Tables_number   1
_chemical_formula_structural   KLa2NbO6
_chemical_formula_sum   'K4 La8 Nb4 O24'
_cell_volume   645.63771517
_cell_formula_units_Z   4
loop_
 _symmetry_equiv_pos_site_id
 _symmetry_equiv_pos_as_xyz
  1  'x, y, z'
loop_
 _atom_site_type_symbol
 _atom_site_label
 _atom_site_symmetry_multiplicity
 _atom_site_fract_x
 _atom_site_fract_y
 _atom_site_fract_z
 _atom_site_occupancy
  K  K0  1  0.88457700  0.00000000  0.51914000  1
  K  K1  1  0.61542300  0.50000000  0.48086000  1
  K  K2  1  0.38457700  0.50000000  0.51914000  1
  K  K3  1  0.11542300  0.00000000  0.48086000  1
  La  La4  1  0.87026400  0.00000000  0.07171600  1
  La  La5  1  0.62973600  0.50000000  0.92828400  1
  La  La6  1  0.91158900  0.50000000  0.79507100  1
  La  La7  1  0.58841100  0.00000000  0.20492900  1
  La  La8  1  0.37026400  0.50000000  0.07171600  1
  La  La9  1  0.12973600  0.00000000  0.92828400  1
  La  La10  1  0.41158900  0.00000000  0.79507100  1
  La  La11  1  0.08841100  0.50000000  0.20492900  1
  Nb  Nb12  1  0.65928400  0.00000000  0.70305800  1
  Nb  Nb13  1  0.84071600  0.50000000  0.29694200  1
  Nb  Nb14  1  0.15928400  0.50000000  0.70305800  1
  Nb  Nb15  1  0.34071600  0.00000000  0.29694200  1
  O  O16  1  0.95158650  0.26875150  0.29249500  1
  O  O17  1  0.54841350  0.76875150  0.70750500  1
  O  O18  1  0.00000000  0.25228600  0.00000000  1
  O  O19  1  0.76361350  0.23220750  0.83218600  1
  O  O20  1  0.54841350  0.23124850  0.70750500  1
  O  O21  1  0.73638650  0.26779250  0.16781400  1
  O  O22  1  0.73638650  0.73220750  0.16781400  1
  O  O23  1  0.82294400  0.50000000  0.49609800  1
  O  O24  1  0.67705600  0.00000000  0.50390200  1
  O  O25  1  0.00000000  0.74771400  0.00000000  1
  O  O26  1  0.76361350  0.76779250  0.83218600  1
  O  O27  1  0.95158650  0.73124850  0.29249500  1
  O  O28  1  0.45158650  0.76875150  0.29249500  1
  O  O29  1  0.04841350  0.26875150  0.70750500  1
  O  O30  1  0.50000000  0.75228600  0.00000000  1
  O  O31  1  0.26361350  0.73220750  0.83218600  1
  O  O32  1  0.04841350  0.73124850  0.70750500  1
  O  O33  1  0.23638650  0.76779250  0.16781400  1
  O  O34  1  0.23638650  0.23220750  0.16781400  1
  O  O35  1  0.32294400  0.00000000  0.49609800  1
  O  O36  1  0.17705600  0.50000000  0.50390200  1
  O  O37  1  0.50000000  0.24771400  0.00000000  1
  O  O38  1  0.26361350  0.26779250  0.83218600  1
  O  O39  1  0.45158650  0.23124850  0.29249500  1
