# generated using pymatgen
data_BaAl2(GeO4)2
_symmetry_space_group_name_H-M   'P 1'
_cell_length_a   13.79817000
_cell_length_b   13.54881200
_cell_length_c   8.91742371
_cell_angle_alpha   90.00000000
_cell_angle_beta   100.93771616
_cell_angle_gamma   90.00000000
_symmetry_Int_Tables_number   1
_chemical_formula_structural   BaAl2(GeO4)2
_chemical_formula_sum   'Ba8 Al16 Ge16 O64'
_cell_volume   1636.81723069
_cell_formula_units_Z   8
loop_
 _symmetry_equiv_pos_site_id
 _symmetry_equiv_pos_as_xyz
  1  'x, y, z'
loop_
 _atom_site_type_symbol
 _atom_site_label
 _atom_site_symmetry_multiplicity
 _atom_site_fract_x
 _atom_site_fract_y
 _atom_site_fract_z
 _atom_site_occupancy
  Ba  Ba0  1  0.81610200  0.75032500  0.28946000  1
  Ba  Ba1  1  0.18389800  0.24967500  0.71054000  1
  Ba  Ba2  1  0.81610200  0.24967500  0.78946000  1
  Ba  Ba3  1  0.18389800  0.75032500  0.21054000  1
  Ba  Ba4  1  0.31610200  0.25032500  0.28946000  1
  Ba  Ba5  1  0.68389800  0.74967500  0.71054000  1
  Ba  Ba6  1  0.31610200  0.74967500  0.78946000  1
  Ba  Ba7  1  0.68389800  0.25032500  0.21054000  1
  Al  Al8  1  0.13672250  0.56899250  0.89128500  1
  Al  Al9  1  0.86327750  0.56899250  0.60871500  1
  Al  Al10  1  0.92351000  0.13073100  0.47365300  1
  Al  Al11  1  0.92351000  0.86926900  0.97365300  1
  Al  Al12  1  0.13672250  0.43100750  0.39128500  1
  Al  Al13  1  0.86327750  0.43100750  0.10871500  1
  Al  Al14  1  0.07649000  0.13073100  0.02634700  1
  Al  Al15  1  0.07649000  0.86926900  0.52634700  1
  Al  Al16  1  0.63672250  0.06899250  0.89128500  1
  Al  Al17  1  0.36327750  0.06899250  0.60871500  1
  Al  Al18  1  0.42351000  0.63073100  0.47365300  1
  Al  Al19  1  0.42351000  0.36926900  0.97365300  1
  Al  Al20  1  0.63672250  0.93100750  0.39128500  1
  Al  Al21  1  0.36327750  0.93100750  0.10871500  1
  Al  Al22  1  0.57649000  0.63073100  0.02634700  1
  Al  Al23  1  0.57649000  0.36926900  0.52634700  1
  Ge  Ge24  1  0.07659500  0.63224100  0.52334000  1
  Ge  Ge25  1  0.07659500  0.36775900  0.02334000  1
  Ge  Ge26  1  0.36093500  0.56879000  0.10542100  1
  Ge  Ge27  1  0.63906500  0.56879000  0.39457900  1
  Ge  Ge28  1  0.92340500  0.36775900  0.47666000  1
  Ge  Ge29  1  0.63906500  0.43121000  0.89457900  1
  Ge  Ge30  1  0.92340500  0.63224100  0.97666000  1
  Ge  Ge31  1  0.36093500  0.43121000  0.60542100  1
  Ge  Ge32  1  0.57659500  0.13224100  0.52334000  1
  Ge  Ge33  1  0.57659500  0.86775900  0.02334000  1
  Ge  Ge34  1  0.86093500  0.06879000  0.10542100  1
  Ge  Ge35  1  0.13906500  0.06879000  0.39457900  1
  Ge  Ge36  1  0.42340500  0.86775900  0.47666000  1
  Ge  Ge37  1  0.13906500  0.93121000  0.89457900  1
  Ge  Ge38  1  0.42340500  0.13224100  0.97666000  1
  Ge  Ge39  1  0.86093500  0.93121000  0.60542100  1
  O  O40  1  0.24882350  0.38275850  0.49848300  1
  O  O41  1  0.24882350  0.61724150  0.99848300  1
  O  O42  1  0.10438450  0.24876150  0.96033500  1
  O  O43  1  0.14301350  0.38114650  0.21099000  1
  O  O44  1  0.14301350  0.61885350  0.71099000  1
  O  O45  1  0.35727050  0.61885250  0.28572100  1
  O  O46  1  0.62644250  0.44054150  0.39270000  1
  O  O47  1  0.85698650  0.38114650  0.28901000  1
  O  O48  1  0.94788700  0.37428000  0.00896800  1
  O  O49  1  0.35727050  0.38114750  0.78572100  1
  O  O50  1  0.62644250  0.55945850  0.89270000  1
  O  O51  1  0.37355750  0.55945850  0.60730000  1
  O  O52  1  0.75117650  0.38275850  0.00151700  1
  O  O53  1  0.87761600  0.44045200  0.61112100  1
  O  O54  1  0.05258750  0.12401750  0.49153700  1
  O  O55  1  0.64272950  0.38114750  0.71427900  1
  O  O56  1  0.85698650  0.61885350  0.78901000  1
  O  O57  1  0.05211300  0.62572000  0.99103200  1
  O  O58  1  0.05211300  0.37428000  0.49103200  1
  O  O59  1  0.89561550  0.24876150  0.53966500  1
  O  O60  1  0.12238400  0.44045200  0.88887900  1
  O  O61  1  0.12238400  0.55954800  0.38887900  1
  O  O62  1  0.64272950  0.61885250  0.21427900  1
  O  O63  1  0.94788700  0.62572000  0.50896800  1
  O  O64  1  0.89561550  0.75123850  0.03966500  1
  O  O65  1  0.94741250  0.12401750  0.00846300  1
  O  O66  1  0.37355750  0.44054150  0.10730000  1
  O  O67  1  0.75117650  0.61724150  0.50151700  1
  O  O68  1  0.94741250  0.87598250  0.50846300  1
  O  O69  1  0.87761600  0.55954800  0.11112100  1
  O  O70  1  0.10438450  0.75123850  0.46033500  1
  O  O71  1  0.05258750  0.87598250  0.99153700  1
  O  O72  1  0.74882350  0.88275850  0.49848300  1
  O  O73  1  0.74882350  0.11724150  0.99848300  1
  O  O74  1  0.60438450  0.74876150  0.96033500  1
  O  O75  1  0.64301350  0.88114650  0.21099000  1
  O  O76  1  0.64301350  0.11885350  0.71099000  1
  O  O77  1  0.85727050  0.11885250  0.28572100  1
  O  O78  1  0.12644250  0.94054150  0.39270000  1
  O  O79  1  0.35698650  0.88114650  0.28901000  1
  O  O80  1  0.44788700  0.87428000  0.00896800  1
  O  O81  1  0.85727050  0.88114750  0.78572100  1
  O  O82  1  0.12644250  0.05945850  0.89270000  1
  O  O83  1  0.87355750  0.05945850  0.60730000  1
  O  O84  1  0.25117650  0.88275850  0.00151700  1
  O  O85  1  0.37761600  0.94045200  0.61112100  1
  O  O86  1  0.55258750  0.62401750  0.49153700  1
  O  O87  1  0.14272950  0.88114750  0.71427900  1
  O  O88  1  0.35698650  0.11885350  0.78901000  1
  O  O89  1  0.55211300  0.12572000  0.99103200  1
  O  O90  1  0.55211300  0.87428000  0.49103200  1
  O  O91  1  0.39561550  0.74876150  0.53966500  1
  O  O92  1  0.62238400  0.94045200  0.88887900  1
  O  O93  1  0.62238400  0.05954800  0.38887900  1
  O  O94  1  0.14272950  0.11885250  0.21427900  1
  O  O95  1  0.44788700  0.12572000  0.50896800  1
  O  O96  1  0.39561550  0.25123850  0.03966500  1
  O  O97  1  0.44741250  0.62401750  0.00846300  1
  O  O98  1  0.87355750  0.94054150  0.10730000  1
  O  O99  1  0.25117650  0.11724150  0.50151700  1
  O  O100  1  0.44741250  0.37598250  0.50846300  1
  O  O101  1  0.37761600  0.05954800  0.11112100  1
  O  O102  1  0.60438450  0.25123850  0.46033500  1
  O  O103  1  0.55258750  0.37598250  0.99153700  1
