# generated using pymatgen
data_Ba3GeI2
_symmetry_space_group_name_H-M   'P 1'
_cell_length_a   10.22283400
_cell_length_b   14.27109600
_cell_length_c   29.93759200
_cell_angle_alpha   90.00000000
_cell_angle_beta   90.00000000
_cell_angle_gamma   90.00000000
_symmetry_Int_Tables_number   1
_chemical_formula_structural   Ba3GeI2
_chemical_formula_sum   'Ba48 Ge16 I32'
_cell_volume   4367.62659382
_cell_formula_units_Z   16
loop_
 _symmetry_equiv_pos_site_id
 _symmetry_equiv_pos_as_xyz
  1  'x, y, z'
loop_
 _atom_site_type_symbol
 _atom_site_label
 _atom_site_symmetry_multiplicity
 _atom_site_fract_x
 _atom_site_fract_y
 _atom_site_fract_z
 _atom_site_occupancy
  Ba  Ba0  1  0.95874100  0.75000000  0.25000000  1
  Ba  Ba1  1  0.20874100  0.00000000  0.00000000  1
  Ba  Ba2  1  0.26590650  0.01889150  0.34108800  1
  Ba  Ba3  1  0.48409350  0.26889150  0.09108800  1
  Ba  Ba4  1  0.73409350  0.98110850  0.34108800  1
  Ba  Ba5  1  0.98409350  0.73110850  0.40891200  1
  Ba  Ba6  1  0.51590650  0.73110850  0.09108800  1
  Ba  Ba7  1  0.76590650  0.98110850  0.15891200  1
  Ba  Ba8  1  0.79125900  0.00000000  0.00000000  1
  Ba  Ba9  1  0.54125900  0.75000000  0.25000000  1
  Ba  Ba10  1  0.23409350  0.01889150  0.15891200  1
  Ba  Ba11  1  0.01590650  0.26889150  0.40891200  1
  Ba  Ba12  1  0.95874100  0.25000000  0.75000000  1
  Ba  Ba13  1  0.20874100  0.50000000  0.50000000  1
  Ba  Ba14  1  0.26590650  0.51889150  0.84108800  1
  Ba  Ba15  1  0.48409350  0.76889150  0.59108800  1
  Ba  Ba16  1  0.73409350  0.48110850  0.84108800  1
  Ba  Ba17  1  0.98409350  0.23110850  0.90891200  1
  Ba  Ba18  1  0.51590650  0.23110850  0.59108800  1
  Ba  Ba19  1  0.76590650  0.48110850  0.65891200  1
  Ba  Ba20  1  0.79125900  0.50000000  0.50000000  1
  Ba  Ba21  1  0.54125900  0.25000000  0.75000000  1
  Ba  Ba22  1  0.23409350  0.51889150  0.65891200  1
  Ba  Ba23  1  0.01590650  0.76889150  0.90891200  1
  Ba  Ba24  1  0.45874100  0.75000000  0.75000000  1
  Ba  Ba25  1  0.70874100  0.00000000  0.50000000  1
  Ba  Ba26  1  0.76590650  0.01889150  0.84108800  1
  Ba  Ba27  1  0.98409350  0.26889150  0.59108800  1
  Ba  Ba28  1  0.23409350  0.98110850  0.84108800  1
  Ba  Ba29  1  0.48409350  0.73110850  0.90891200  1
  Ba  Ba30  1  0.01590650  0.73110850  0.59108800  1
  Ba  Ba31  1  0.26590650  0.98110850  0.65891200  1
  Ba  Ba32  1  0.29125900  0.00000000  0.50000000  1
  Ba  Ba33  1  0.04125900  0.75000000  0.75000000  1
  Ba  Ba34  1  0.73409350  0.01889150  0.65891200  1
  Ba  Ba35  1  0.51590650  0.26889150  0.90891200  1
  Ba  Ba36  1  0.45874100  0.25000000  0.25000000  1
  Ba  Ba37  1  0.70874100  0.50000000  0.00000000  1
  Ba  Ba38  1  0.76590650  0.51889150  0.34108800  1
  Ba  Ba39  1  0.98409350  0.76889150  0.09108800  1
  Ba  Ba40  1  0.23409350  0.48110850  0.34108800  1
  Ba  Ba41  1  0.48409350  0.23110850  0.40891200  1
  Ba  Ba42  1  0.01590650  0.23110850  0.09108800  1
  Ba  Ba43  1  0.26590650  0.48110850  0.15891200  1
  Ba  Ba44  1  0.29125900  0.50000000  0.00000000  1
  Ba  Ba45  1  0.04125900  0.25000000  0.25000000  1
  Ba  Ba46  1  0.73409350  0.51889150  0.15891200  1
  Ba  Ba47  1  0.51590650  0.76889150  0.40891200  1
  Ge  Ge48  1  0.75000000  0.75000000  0.33410500  1
  Ge  Ge49  1  0.75000000  0.75000000  0.16589500  1
  Ge  Ge50  1  0.00000000  0.00000000  0.08410500  1
  Ge  Ge51  1  0.50000000  0.00000000  0.41589500  1
  Ge  Ge52  1  0.75000000  0.25000000  0.83410500  1
  Ge  Ge53  1  0.75000000  0.25000000  0.66589500  1
  Ge  Ge54  1  0.00000000  0.50000000  0.58410500  1
  Ge  Ge55  1  0.50000000  0.50000000  0.91589500  1
  Ge  Ge56  1  0.25000000  0.75000000  0.83410500  1
  Ge  Ge57  1  0.25000000  0.75000000  0.66589500  1
  Ge  Ge58  1  0.50000000  0.00000000  0.58410500  1
  Ge  Ge59  1  0.00000000  0.00000000  0.91589500  1
  Ge  Ge60  1  0.25000000  0.25000000  0.33410500  1
  Ge  Ge61  1  0.25000000  0.25000000  0.16589500  1
  Ge  Ge62  1  0.50000000  0.50000000  0.08410500  1
  Ge  Ge63  1  0.00000000  0.50000000  0.41589500  1
  I  I64  1  0.50000000  0.00000000  0.07731400  1
  I  I65  1  0.75000000  0.25000000  0.17268600  1
  I  I66  1  0.00000000  0.00000000  0.25404100  1
  I  I67  1  0.00000000  0.00000000  0.42268600  1
  I  I68  1  0.75000000  0.25000000  0.49595900  1
  I  I69  1  0.50000000  0.00000000  0.24595900  1
  I  I70  1  0.75000000  0.25000000  0.32731400  1
  I  I71  1  0.75000000  0.25000000  0.00404100  1
  I  I72  1  0.50000000  0.50000000  0.57731400  1
  I  I73  1  0.75000000  0.75000000  0.67268600  1
  I  I74  1  0.00000000  0.50000000  0.75404100  1
  I  I75  1  0.00000000  0.50000000  0.92268600  1
  I  I76  1  0.75000000  0.75000000  0.99595900  1
  I  I77  1  0.50000000  0.50000000  0.74595900  1
  I  I78  1  0.75000000  0.75000000  0.82731400  1
  I  I79  1  0.75000000  0.75000000  0.50404100  1
  I  I80  1  0.00000000  0.00000000  0.57731400  1
  I  I81  1  0.25000000  0.25000000  0.67268600  1
  I  I82  1  0.50000000  0.00000000  0.75404100  1
  I  I83  1  0.50000000  0.00000000  0.92268600  1
  I  I84  1  0.25000000  0.25000000  0.99595900  1
  I  I85  1  0.00000000  0.00000000  0.74595900  1
  I  I86  1  0.25000000  0.25000000  0.82731400  1
  I  I87  1  0.25000000  0.25000000  0.50404100  1
  I  I88  1  0.00000000  0.50000000  0.07731400  1
  I  I89  1  0.25000000  0.75000000  0.17268600  1
  I  I90  1  0.50000000  0.50000000  0.25404100  1
  I  I91  1  0.50000000  0.50000000  0.42268600  1
  I  I92  1  0.25000000  0.75000000  0.49595900  1
  I  I93  1  0.00000000  0.50000000  0.24595900  1
  I  I94  1  0.25000000  0.75000000  0.32731400  1
  I  I95  1  0.25000000  0.75000000  0.00404100  1
