# generated using pymatgen
data_CaBiCO4F
_symmetry_space_group_name_H-M   'P 1'
_cell_length_a   5.40911100
_cell_length_b   5.42051900
_cell_length_c   13.82632900
_cell_angle_alpha   90.00000000
_cell_angle_beta   90.00000000
_cell_angle_gamma   90.00000000
_symmetry_Int_Tables_number   1
_chemical_formula_structural   CaBiCO4F
_chemical_formula_sum   'Ca4 Bi4 C4 O16 F4'
_cell_volume   405.39057875
_cell_formula_units_Z   4
loop_
 _symmetry_equiv_pos_site_id
 _symmetry_equiv_pos_as_xyz
  1  'x, y, z'
loop_
 _atom_site_type_symbol
 _atom_site_label
 _atom_site_symmetry_multiplicity
 _atom_site_fract_x
 _atom_site_fract_y
 _atom_site_fract_z
 _atom_site_occupancy
  Ca  Ca0  1  0.00000000  0.75000000  0.59924700  1
  Ca  Ca1  1  0.00000000  0.25000000  0.40075300  1
  Ca  Ca2  1  0.50000000  0.25000000  0.59924700  1
  Ca  Ca3  1  0.50000000  0.75000000  0.40075300  1
  Bi  Bi4  1  0.50000000  0.25000000  0.90600100  1
  Bi  Bi5  1  0.00000000  0.25000000  0.09399900  1
  Bi  Bi6  1  0.00000000  0.75000000  0.90600100  1
  Bi  Bi7  1  0.50000000  0.75000000  0.09399900  1
  C  C8  1  0.00000000  0.25000000  0.74307500  1
  C  C9  1  0.50000000  0.75000000  0.74307500  1
  C  C10  1  0.00000000  0.75000000  0.25692500  1
  C  C11  1  0.50000000  0.25000000  0.25692500  1
  O  O12  1  0.64918900  0.10405200  0.30124200  1
  O  O13  1  0.14918900  0.89594800  0.30124200  1
  O  O14  1  0.75000000  0.49770600  0.00000000  1
  O  O15  1  0.14918900  0.39594800  0.69875800  1
  O  O16  1  0.35081100  0.89594800  0.69875800  1
  O  O17  1  0.85081100  0.10405200  0.69875800  1
  O  O18  1  0.35081100  0.39594800  0.30124200  1
  O  O19  1  0.25000000  0.00229400  0.00000000  1
  O  O20  1  0.25000000  0.50229400  0.00000000  1
  O  O21  1  0.00000000  0.25000000  0.83923400  1
  O  O22  1  0.64918900  0.60405200  0.69875800  1
  O  O23  1  0.50000000  0.25000000  0.16076600  1
  O  O24  1  0.00000000  0.75000000  0.16076600  1
  O  O25  1  0.85081100  0.60405200  0.30124200  1
  O  O26  1  0.50000000  0.75000000  0.83923400  1
  O  O27  1  0.75000000  0.99770600  0.00000000  1
  F  F28  1  0.25000000  0.51326500  0.50000000  1
  F  F29  1  0.25000000  0.01326500  0.50000000  1
  F  F30  1  0.75000000  0.98673500  0.50000000  1
  F  F31  1  0.75000000  0.48673500  0.50000000  1
