# generated using pymatgen
data_Ba(Si3N4)2
_symmetry_space_group_name_H-M   'P 1'
_cell_length_a   4.87161600
_cell_length_b   7.99213800
_cell_length_c   9.42483400
_cell_angle_alpha   90.00000000
_cell_angle_beta   90.00000000
_cell_angle_gamma   90.00000000
_symmetry_Int_Tables_number   1
_chemical_formula_structural   Ba(Si3N4)2
_chemical_formula_sum   'Ba2 Si12 N16'
_cell_volume   366.95239967
_cell_formula_units_Z   2
loop_
 _symmetry_equiv_pos_site_id
 _symmetry_equiv_pos_as_xyz
  1  'x, y, z'
loop_
 _atom_site_type_symbol
 _atom_site_label
 _atom_site_symmetry_multiplicity
 _atom_site_fract_x
 _atom_site_fract_y
 _atom_site_fract_z
 _atom_site_occupancy
  Ba  Ba0  1  0.16619200  0.00000000  0.00000000  1
  Ba  Ba1  1  0.66619200  0.50000000  0.50000000  1
  Si  Si2  1  0.65185950  0.29884650  0.16048650  1
  Si  Si3  1  0.65185950  0.70115350  0.83951350  1
  Si  Si4  1  0.65185950  0.29884650  0.83951350  1
  Si  Si5  1  0.65185950  0.70115350  0.16048650  1
  Si  Si6  1  0.14735750  0.50000000  0.87173850  1
  Si  Si7  1  0.14735750  0.50000000  0.12826150  1
  Si  Si8  1  0.15185950  0.79884650  0.66048650  1
  Si  Si9  1  0.15185950  0.20115350  0.33951350  1
  Si  Si10  1  0.15185950  0.79884650  0.33951350  1
  Si  Si11  1  0.15185950  0.20115350  0.66048650  1
  Si  Si12  1  0.64735750  0.00000000  0.37173850  1
  Si  Si13  1  0.64735750  0.00000000  0.62826150  1
  N  N14  1  0.80198700  0.50000000  0.18195500  1
  N  N15  1  0.30034150  0.67961650  0.20182150  1
  N  N16  1  0.30034150  0.32038350  0.79817850  1
  N  N17  1  0.70750750  0.21434750  0.00000000  1
  N  N18  1  0.30034150  0.32038350  0.20182150  1
  N  N19  1  0.30034150  0.67961650  0.79817850  1
  N  N20  1  0.70750750  0.78565250  0.00000000  1
  N  N21  1  0.80198700  0.50000000  0.81804500  1
  N  N22  1  0.30198700  0.00000000  0.68195500  1
  N  N23  1  0.80034150  0.17961650  0.70182150  1
  N  N24  1  0.80034150  0.82038350  0.29817850  1
  N  N25  1  0.20750750  0.71434750  0.50000000  1
  N  N26  1  0.80034150  0.82038350  0.70182150  1
  N  N27  1  0.80034150  0.17961650  0.29817850  1
  N  N28  1  0.20750750  0.28565250  0.50000000  1
  N  N29  1  0.30198700  0.00000000  0.31804500  1
