# generated using pymatgen
data_AlHg2SbCl4
_symmetry_space_group_name_H-M   'P 1'
_cell_length_a   8.98027500
_cell_length_b   12.47018300
_cell_length_c   18.04540400
_cell_angle_alpha   90.00000000
_cell_angle_beta   90.00000000
_cell_angle_gamma   90.00000000
_symmetry_Int_Tables_number   1
_chemical_formula_structural   AlHg2SbCl4
_chemical_formula_sum   'Al8 Hg16 Sb8 Cl32'
_cell_volume   2020.82670501
_cell_formula_units_Z   8
loop_
 _symmetry_equiv_pos_site_id
 _symmetry_equiv_pos_as_xyz
  1  'x, y, z'
loop_
 _atom_site_type_symbol
 _atom_site_label
 _atom_site_symmetry_multiplicity
 _atom_site_fract_x
 _atom_site_fract_y
 _atom_site_fract_z
 _atom_site_occupancy
  Al  Al0  1  0.16725400  0.98919900  0.12205300  1
  Al  Al1  1  0.83837800  0.70913000  0.63398000  1
  Al  Al2  1  0.33274600  0.98919900  0.62205300  1
  Al  Al3  1  0.66725400  0.48919900  0.37794700  1
  Al  Al4  1  0.33837800  0.20913000  0.86602000  1
  Al  Al5  1  0.66162200  0.70913000  0.13398000  1
  Al  Al6  1  0.16162200  0.20913000  0.36602000  1
  Al  Al7  1  0.83274600  0.48919900  0.87794700  1
  Hg  Hg8  1  0.42030600  0.33388300  0.12419700  1
  Hg  Hg9  1  0.75503500  0.10028600  0.49313800  1
  Hg  Hg10  1  0.92078800  0.36189300  0.12115100  1
  Hg  Hg11  1  0.25503500  0.60028600  0.00686200  1
  Hg  Hg12  1  0.57969400  0.83388300  0.87580300  1
  Hg  Hg13  1  0.07969400  0.33388300  0.62419700  1
  Hg  Hg14  1  0.79634600  0.09633500  0.74393900  1
  Hg  Hg15  1  0.24496500  0.60028600  0.50686200  1
  Hg  Hg16  1  0.57921200  0.36189300  0.62115100  1
  Hg  Hg17  1  0.29634600  0.59633500  0.75606100  1
  Hg  Hg18  1  0.70365400  0.09633500  0.24393900  1
  Hg  Hg19  1  0.92030600  0.83388300  0.37580300  1
  Hg  Hg20  1  0.20365400  0.59633500  0.25606100  1
  Hg  Hg21  1  0.74496500  0.10028600  0.99313800  1
  Hg  Hg22  1  0.42078800  0.86189300  0.37884900  1
  Hg  Hg23  1  0.07921200  0.86189300  0.87884900  1
  Sb  Sb24  1  0.81590900  0.22120200  0.61829700  1
  Sb  Sb25  1  0.68409100  0.22120200  0.11829700  1
  Sb  Sb26  1  0.18409100  0.72120200  0.38170300  1
  Sb  Sb27  1  0.31455400  0.47524400  0.62866000  1
  Sb  Sb28  1  0.68544600  0.97524400  0.37134000  1
  Sb  Sb29  1  0.31590900  0.72120200  0.88170300  1
  Sb  Sb30  1  0.18544600  0.47524400  0.12866000  1
  Sb  Sb31  1  0.81455400  0.97524400  0.87134000  1
  Cl  Cl32  1  0.31046000  0.33735700  0.94556100  1
  Cl  Cl33  1  0.12597000  0.84728400  0.05586200  1
  Cl  Cl34  1  0.14117800  0.19247400  0.79967100  1
  Cl  Cl35  1  0.57333200  0.62736800  0.43468700  1
  Cl  Cl36  1  0.07333200  0.12736800  0.06531300  1
  Cl  Cl37  1  0.47403300  0.74850400  0.20463200  1
  Cl  Cl38  1  0.94271000  0.46864000  0.77281200  1
  Cl  Cl39  1  0.59893700  0.51662900  0.86493600  1
  Cl  Cl40  1  0.88586700  0.56252200  0.57402700  1
  Cl  Cl41  1  0.18954000  0.33735700  0.44556100  1
  Cl  Cl42  1  0.44271000  0.96864000  0.72718800  1
  Cl  Cl43  1  0.42666800  0.12736800  0.56531300  1
  Cl  Cl44  1  0.62597000  0.34728400  0.44413800  1
  Cl  Cl45  1  0.09893700  0.01662900  0.63506400  1
  Cl  Cl46  1  0.64117800  0.69247400  0.70032900  1
  Cl  Cl47  1  0.85882200  0.69247400  0.20032900  1
  Cl  Cl48  1  0.87403000  0.34728400  0.94413800  1
  Cl  Cl49  1  0.61413300  0.56252200  0.07402700  1
  Cl  Cl50  1  0.40106300  0.01662900  0.13506400  1
  Cl  Cl51  1  0.37403000  0.84728400  0.55586200  1
  Cl  Cl52  1  0.90106300  0.51662900  0.36493600  1
  Cl  Cl53  1  0.55729000  0.46864000  0.27281200  1
  Cl  Cl54  1  0.05729000  0.96864000  0.22718800  1
  Cl  Cl55  1  0.35882200  0.19247400  0.29967100  1
  Cl  Cl56  1  0.52596700  0.24850400  0.79536800  1
  Cl  Cl57  1  0.92666800  0.62736800  0.93468700  1
  Cl  Cl58  1  0.81046000  0.83735700  0.55443900  1
  Cl  Cl59  1  0.11413300  0.06252200  0.42597300  1
  Cl  Cl60  1  0.38586700  0.06252200  0.92597300  1
  Cl  Cl61  1  0.68954000  0.83735700  0.05443900  1
  Cl  Cl62  1  0.97403300  0.24850400  0.29536800  1
  Cl  Cl63  1  0.02596700  0.74850400  0.70463200  1
