# generated using pymatgen
data_Li2CrCl4
_symmetry_space_group_name_H-M   'P 1'
_cell_length_a   7.48713400
_cell_length_b   10.15441200
_cell_length_c   3.79776761
_cell_angle_alpha   90.00000000
_cell_angle_beta   95.47482722
_cell_angle_gamma   90.00000000
_symmetry_Int_Tables_number   1
_chemical_formula_structural   Li2CrCl4
_chemical_formula_sum   'Li4 Cr2 Cl8'
_cell_volume   287.41741596
_cell_formula_units_Z   2
loop_
 _symmetry_equiv_pos_site_id
 _symmetry_equiv_pos_as_xyz
  1  'x, y, z'
loop_
 _atom_site_type_symbol
 _atom_site_label
 _atom_site_symmetry_multiplicity
 _atom_site_fract_x
 _atom_site_fract_y
 _atom_site_fract_z
 _atom_site_occupancy
  Li  Li0  1  0.75000000  0.75000000  0.50000000  1
  Li  Li1  1  0.75000000  0.25000000  0.50000000  1
  Li  Li2  1  0.25000000  0.25000000  0.50000000  1
  Li  Li3  1  0.25000000  0.75000000  0.50000000  1
  Cr  Cr4  1  0.00000000  0.00000000  0.00000000  1
  Cr  Cr5  1  0.50000000  0.50000000  0.00000000  1
  Cl  Cl6  1  0.75822800  0.00000000  0.53573700  1
  Cl  Cl7  1  0.50000000  0.73676900  0.00000000  1
  Cl  Cl8  1  0.24177200  0.00000000  0.46426300  1
  Cl  Cl9  1  0.50000000  0.26323100  0.00000000  1
  Cl  Cl10  1  0.25822800  0.50000000  0.53573700  1
  Cl  Cl11  1  0.00000000  0.23676900  0.00000000  1
  Cl  Cl12  1  0.74177200  0.50000000  0.46426300  1
  Cl  Cl13  1  0.00000000  0.76323100  0.00000000  1
