# generated using pymatgen
data_Sr2SiCl2O3
_symmetry_space_group_name_H-M   'P 1'
_cell_length_a   11.29522000
_cell_length_b   11.29522000
_cell_length_c   9.67148800
_cell_angle_alpha   90.00000000
_cell_angle_beta   90.00000000
_cell_angle_gamma   90.00000000
_symmetry_Int_Tables_number   1
_chemical_formula_structural   Sr2SiCl2O3
_chemical_formula_sum   'Sr16 Si8 Cl16 O24'
_cell_volume   1233.90773219
_cell_formula_units_Z   8
loop_
 _symmetry_equiv_pos_site_id
 _symmetry_equiv_pos_as_xyz
  1  'x, y, z'
loop_
 _atom_site_type_symbol
 _atom_site_label
 _atom_site_symmetry_multiplicity
 _atom_site_fract_x
 _atom_site_fract_y
 _atom_site_fract_z
 _atom_site_occupancy
  Sr  Sr0  1  0.24898450  0.41857250  0.27009450  1
  Sr  Sr1  1  0.08142750  0.74898450  0.22990550  1
  Sr  Sr2  1  0.41857250  0.75101550  0.27009450  1
  Sr  Sr3  1  0.75101550  0.58142750  0.27009450  1
  Sr  Sr4  1  0.58142750  0.24898450  0.27009450  1
  Sr  Sr5  1  0.91857250  0.25101550  0.22990550  1
  Sr  Sr6  1  0.25101550  0.08142750  0.22990550  1
  Sr  Sr7  1  0.74898450  0.91857250  0.22990550  1
  Sr  Sr8  1  0.74898450  0.91857250  0.77009450  1
  Sr  Sr9  1  0.58142750  0.24898450  0.72990550  1
  Sr  Sr10  1  0.91857250  0.25101550  0.77009450  1
  Sr  Sr11  1  0.25101550  0.08142750  0.77009450  1
  Sr  Sr12  1  0.08142750  0.74898450  0.77009450  1
  Sr  Sr13  1  0.41857250  0.75101550  0.72990550  1
  Sr  Sr14  1  0.75101550  0.58142750  0.72990550  1
  Sr  Sr15  1  0.24898450  0.41857250  0.72990550  1
  Si  Si16  1  0.31794900  0.59654300  0.00000000  1
  Si  Si17  1  0.40345700  0.31794900  0.00000000  1
  Si  Si18  1  0.09654300  0.18205100  0.50000000  1
  Si  Si19  1  0.18205100  0.90345700  0.50000000  1
  Si  Si20  1  0.81794900  0.09654300  0.50000000  1
  Si  Si21  1  0.90345700  0.81794900  0.50000000  1
  Si  Si22  1  0.59654300  0.68205100  0.00000000  1
  Si  Si23  1  0.68205100  0.40345700  0.00000000  1
  Cl  Cl24  1  0.74489900  0.09639300  0.00000000  1
  Cl  Cl25  1  0.00000000  0.00000000  0.20101900  1
  Cl  Cl26  1  0.40360700  0.24489900  0.50000000  1
  Cl  Cl27  1  0.00000000  0.00000000  0.79898100  1
  Cl  Cl28  1  0.09639300  0.25510100  0.00000000  1
  Cl  Cl29  1  0.00000000  0.50000000  0.25000000  1
  Cl  Cl30  1  0.75510100  0.40360700  0.50000000  1
  Cl  Cl31  1  0.50000000  0.00000000  0.25000000  1
  Cl  Cl32  1  0.24489900  0.59639300  0.50000000  1
  Cl  Cl33  1  0.50000000  0.50000000  0.70101900  1
  Cl  Cl34  1  0.90360700  0.74489900  0.00000000  1
  Cl  Cl35  1  0.50000000  0.50000000  0.29898100  1
  Cl  Cl36  1  0.59639300  0.75510100  0.50000000  1
  Cl  Cl37  1  0.50000000  0.00000000  0.75000000  1
  Cl  Cl38  1  0.25510100  0.90360700  0.00000000  1
  Cl  Cl39  1  0.00000000  0.50000000  0.75000000  1
  O  O40  1  0.33589200  0.44968600  0.00000000  1
  O  O41  1  0.24492650  0.87073050  0.64572050  1
  O  O42  1  0.25507350  0.62926950  0.14572050  1
  O  O43  1  0.16410800  0.05031400  0.50000000  1
  O  O44  1  0.37073050  0.25507350  0.85427950  1
  O  O45  1  0.25507350  0.62926950  0.85427950  1
  O  O46  1  0.12926950  0.24492650  0.64572050  1
  O  O47  1  0.12926950  0.24492650  0.35427950  1
  O  O48  1  0.37073050  0.25507350  0.14572050  1
  O  O49  1  0.55031400  0.33589200  0.00000000  1
  O  O50  1  0.94968600  0.16410800  0.50000000  1
  O  O51  1  0.24492650  0.87073050  0.35427950  1
  O  O52  1  0.83589200  0.94968600  0.50000000  1
  O  O53  1  0.74492650  0.37073050  0.14572050  1
  O  O54  1  0.75507350  0.12926950  0.64572050  1
  O  O55  1  0.66410800  0.55031400  0.00000000  1
  O  O56  1  0.87073050  0.75507350  0.35427950  1
  O  O57  1  0.75507350  0.12926950  0.35427950  1
  O  O58  1  0.62926950  0.74492650  0.14572050  1
  O  O59  1  0.62926950  0.74492650  0.85427950  1
  O  O60  1  0.87073050  0.75507350  0.64572050  1
  O  O61  1  0.05031400  0.83589200  0.50000000  1
  O  O62  1  0.44968600  0.66410800  0.00000000  1
  O  O63  1  0.74492650  0.37073050  0.85427950  1
