# generated using pymatgen
data_DyZnPO
_symmetry_space_group_name_H-M   'P 1'
_cell_length_a   3.89993979
_cell_length_b   3.89993979
_cell_length_c   30.38272312
_cell_angle_alpha   90.00000000
_cell_angle_beta   90.00000000
_cell_angle_gamma   120.00000000
_symmetry_Int_Tables_number   1
_chemical_formula_structural   DyZnPO
_chemical_formula_sum   'Dy6 Zn6 P6 O6'
_cell_volume   400.19635820
_cell_formula_units_Z   6
loop_
 _symmetry_equiv_pos_site_id
 _symmetry_equiv_pos_as_xyz
  1  'x, y, z'
loop_
 _atom_site_type_symbol
 _atom_site_label
 _atom_site_symmetry_multiplicity
 _atom_site_fract_x
 _atom_site_fract_y
 _atom_site_fract_z
 _atom_site_occupancy
  Dy  Dy0  1  0.33333333  0.66666667  0.04636067  1
  Dy  Dy1  1  0.33333333  0.66666667  0.28697267  1
  Dy  Dy2  1  0.00000000  0.00000000  0.37969400  1
  Dy  Dy3  1  0.00000000  0.00000000  0.62030600  1
  Dy  Dy4  1  0.66666667  0.33333333  0.71302733  1
  Dy  Dy5  1  0.66666667  0.33333333  0.95363933  1
  Zn  Zn6  1  0.00000000  0.00000000  0.19629400  1
  Zn  Zn7  1  0.66666667  0.33333333  0.13703933  1
  Zn  Zn8  1  0.66666667  0.33333333  0.52962733  1
  Zn  Zn9  1  0.33333333  0.66666667  0.47037267  1
  Zn  Zn10  1  0.33333333  0.66666667  0.86296067  1
  Zn  Zn11  1  0.00000000  0.00000000  0.80370600  1
  P  P12  1  0.00000000  0.00000000  0.11170200  1
  P  P13  1  0.66666667  0.33333333  0.22163133  1
  P  P14  1  0.66666667  0.33333333  0.44503533  1
  P  P15  1  0.33333333  0.66666667  0.55496467  1
  P  P16  1  0.33333333  0.66666667  0.77836867  1
  P  P17  1  0.00000000  0.00000000  0.88829800  1
  O  O18  1  0.00000000  0.00000000  0.30540500  1
  O  O19  1  0.66666667  0.33333333  0.02792833  1
  O  O20  1  0.66666667  0.33333333  0.63873833  1
  O  O21  1  0.33333333  0.66666667  0.36126167  1
  O  O22  1  0.33333333  0.66666667  0.97207167  1
  O  O23  1  0.00000000  0.00000000  0.69459500  1
