# generated using pymatgen
data_Ag2Te4O11
_symmetry_space_group_name_H-M   'P 1'
_cell_length_a   7.39367300
_cell_length_b   7.52514438
_cell_length_c   9.85878401
_cell_angle_alpha   99.64437914
_cell_angle_beta   85.84655037
_cell_angle_gamma   119.39711059
_symmetry_Int_Tables_number   1
_chemical_formula_structural   Ag2Te4O11
_chemical_formula_sum   'Ag4 Te8 O22'
_cell_volume   471.11328251
_cell_formula_units_Z   2
loop_
 _symmetry_equiv_pos_site_id
 _symmetry_equiv_pos_as_xyz
  1  'x, y, z'
loop_
 _atom_site_type_symbol
 _atom_site_label
 _atom_site_symmetry_multiplicity
 _atom_site_fract_x
 _atom_site_fract_y
 _atom_site_fract_z
 _atom_site_occupancy
  Ag  Ag0  1  0.81501900  0.81906000  0.64871900  1
  Ag  Ag1  1  0.49227600  0.72293300  0.98619100  1
  Ag  Ag2  1  0.18498100  0.18094000  0.35128100  1
  Ag  Ag3  1  0.50772400  0.27706700  0.01380900  1
  Te  Te4  1  0.79926700  0.30508100  0.68683500  1
  Te  Te5  1  0.98395000  0.21139500  0.99887100  1
  Te  Te6  1  0.20073300  0.69491900  0.31316500  1
  Te  Te7  1  0.30136200  0.80872300  0.68872800  1
  Te  Te8  1  0.69863800  0.19127700  0.31127200  1
  Te  Te9  1  0.01605000  0.78860500  0.00112900  1
  Te  Te10  1  0.31618300  0.31331800  0.67550300  1
  Te  Te11  1  0.68381700  0.68668200  0.32449700  1
  O  O12  1  0.24527600  0.31030600  0.86685700  1
  O  O13  1  0.84438400  0.31040100  0.88211700  1
  O  O14  1  0.99295400  0.76995200  0.37955700  1
  O  O15  1  0.58754300  0.36664000  0.27298300  1
  O  O16  1  0.78953200  0.00764000  0.35667400  1
  O  O17  1  0.13883800  0.06342400  0.10077900  1
  O  O18  1  0.75472400  0.68969400  0.13314300  1
  O  O19  1  0.40146700  0.60923400  0.23829500  1
  O  O20  1  0.86116200  0.93657600  0.89922100  1
  O  O21  1  0.30562100  0.90388600  0.88509800  1
  O  O22  1  0.41245700  0.63336000  0.72701700  1
  O  O23  1  0.00704600  0.23004800  0.62044300  1
  O  O24  1  0.59853300  0.39076600  0.76170500  1
  O  O25  1  0.60076300  0.00423900  0.66529400  1
  O  O26  1  0.21046800  0.99236000  0.64332600  1
  O  O27  1  0.28898800  0.67891400  0.49432100  1
  O  O28  1  0.69437900  0.09611400  0.11490200  1
  O  O29  1  0.71101200  0.32108600  0.50567900  1
  O  O30  1  0.00259200  0.39224200  0.29389000  1
  O  O31  1  0.15561600  0.68959900  0.11788300  1
  O  O32  1  0.39923700  0.99576100  0.33470600  1
  O  O33  1  0.99740800  0.60775800  0.70611000  1
