# generated using pymatgen
data_Tl4Hg3Sb2(As2S5)4
_symmetry_space_group_name_H-M   'P 1'
_cell_length_a   13.61171800
_cell_length_b   24.51970000
_cell_length_c   11.58472600
_cell_angle_alpha   90.00000000
_cell_angle_beta   90.00000000
_cell_angle_gamma   90.00000000
_symmetry_Int_Tables_number   1
_chemical_formula_structural   Tl4Hg3Sb2(As2S5)4
_chemical_formula_sum   'Tl16 Hg12 Sb8 As32 S80'
_cell_volume   3866.46302783
_cell_formula_units_Z   4
loop_
 _symmetry_equiv_pos_site_id
 _symmetry_equiv_pos_as_xyz
  1  'x, y, z'
loop_
 _atom_site_type_symbol
 _atom_site_label
 _atom_site_symmetry_multiplicity
 _atom_site_fract_x
 _atom_site_fract_y
 _atom_site_fract_z
 _atom_site_occupancy
  Tl  Tl0  1  0.75115250  0.23123850  0.44225700  1
  Tl  Tl1  1  0.75588000  0.39112000  0.70289000  1
  Tl  Tl2  1  0.25115250  0.23123850  0.05774300  1
  Tl  Tl3  1  0.25115250  0.26876150  0.55774300  1
  Tl  Tl4  1  0.25588000  0.39112000  0.79711000  1
  Tl  Tl5  1  0.25588000  0.10888000  0.29711000  1
  Tl  Tl6  1  0.75115250  0.26876150  0.94225700  1
  Tl  Tl7  1  0.75588000  0.10888000  0.20289000  1
  Tl  Tl8  1  0.25115250  0.73123850  0.44225700  1
  Tl  Tl9  1  0.25588000  0.89112000  0.70289000  1
  Tl  Tl10  1  0.75115250  0.73123850  0.05774300  1
  Tl  Tl11  1  0.75115250  0.76876150  0.55774300  1
  Tl  Tl12  1  0.75588000  0.89112000  0.79711000  1
  Tl  Tl13  1  0.75588000  0.60888000  0.29711000  1
  Tl  Tl14  1  0.25115250  0.76876150  0.94225700  1
  Tl  Tl15  1  0.25588000  0.60888000  0.20289000  1
  Hg  Hg16  1  0.50336250  0.44251650  0.42571600  1
  Hg  Hg17  1  0.00336250  0.44251650  0.07428400  1
  Hg  Hg18  1  0.00336250  0.05748350  0.57428400  1
  Hg  Hg19  1  0.50336250  0.05748350  0.92571600  1
  Hg  Hg20  1  0.00338800  0.00000000  0.00000000  1
  Hg  Hg21  1  0.50338800  0.00000000  0.50000000  1
  Hg  Hg22  1  0.00336250  0.94251650  0.42571600  1
  Hg  Hg23  1  0.50336250  0.94251650  0.07428400  1
  Hg  Hg24  1  0.50336250  0.55748350  0.57428400  1
  Hg  Hg25  1  0.00336250  0.55748350  0.92571600  1
  Hg  Hg26  1  0.50338800  0.50000000  0.00000000  1
  Hg  Hg27  1  0.00338800  0.50000000  0.50000000  1
  Sb  Sb28  1  0.49082100  0.16182200  0.70776100  1
  Sb  Sb29  1  0.49082100  0.33817800  0.20776100  1
  Sb  Sb30  1  0.99082100  0.16182200  0.79223900  1
  Sb  Sb31  1  0.99082100  0.33817800  0.29223900  1
  Sb  Sb32  1  0.99082100  0.66182200  0.70776100  1
  Sb  Sb33  1  0.99082100  0.83817800  0.20776100  1
  Sb  Sb34  1  0.49082100  0.66182200  0.79223900  1
  Sb  Sb35  1  0.49082100  0.83817800  0.29223900  1
  As  As36  1  0.74245100  0.44468600  0.10354900  1
  As  As37  1  0.50596550  0.19736250  0.09407400  1
  As  As38  1  0.50054950  0.20860350  0.38702100  1
  As  As39  1  0.26200450  0.05013950  0.60444100  1
  As  As40  1  0.74245100  0.05531400  0.60354900  1
  As  As41  1  0.00596550  0.19736250  0.40592600  1
  As  As42  1  0.50596550  0.30263750  0.59407400  1
  As  As43  1  0.00596550  0.30263750  0.90592600  1
  As  As44  1  0.00054950  0.20860350  0.11297900  1
  As  As45  1  0.26200450  0.44986050  0.10444100  1
  As  As46  1  0.00054950  0.29139650  0.61297900  1
  As  As47  1  0.76200450  0.05013950  0.89555900  1
  As  As48  1  0.76200450  0.44986050  0.39555900  1
  As  As49  1  0.50054950  0.29139650  0.88702100  1
  As  As50  1  0.24245100  0.44468600  0.39645100  1
  As  As51  1  0.24245100  0.05531400  0.89645100  1
  As  As52  1  0.24245100  0.94468600  0.10354900  1
  As  As53  1  0.00596550  0.69736250  0.09407400  1
  As  As54  1  0.00054950  0.70860350  0.38702100  1
  As  As55  1  0.76200450  0.55013950  0.60444100  1
  As  As56  1  0.24245100  0.55531400  0.60354900  1
  As  As57  1  0.50596550  0.69736250  0.40592600  1
  As  As58  1  0.00596550  0.80263750  0.59407400  1
  As  As59  1  0.50596550  0.80263750  0.90592600  1
  As  As60  1  0.50054950  0.70860350  0.11297900  1
  As  As61  1  0.76200450  0.94986050  0.10444100  1
  As  As62  1  0.50054950  0.79139650  0.61297900  1
  As  As63  1  0.26200450  0.55013950  0.89555900  1
  As  As64  1  0.26200450  0.94986050  0.39555900  1
  As  As65  1  0.00054950  0.79139650  0.88702100  1
  As  As66  1  0.74245100  0.94468600  0.39645100  1
  As  As67  1  0.74245100  0.55531400  0.89645100  1
  S  S68  1  0.12716800  0.49597600  0.17387400  1
  S  S69  1  0.62716800  0.00402400  0.82612600  1
  S  S70  1  0.50239650  0.36100250  0.75400800  1
  S  S71  1  0.39355800  0.33053700  0.01842600  1
  S  S72  1  0.60755300  0.40997200  0.01786300  1
  S  S73  1  0.26235450  0.11759950  0.74529200  1
  S  S74  1  0.38336600  0.26551900  0.30987200  1
  S  S75  1  0.11463600  0.34261600  0.02007900  1
  S  S76  1  0.00239650  0.36100250  0.74599200  1
  S  S77  1  0.88336600  0.23448100  0.69012800  1
  S  S78  1  0.37907150  0.00491150  0.32321100  1
  S  S79  1  0.60755300  0.09002800  0.51786300  1
  S  S80  1  0.12716800  0.00402400  0.67387400  1
  S  S81  1  0.10755300  0.09002800  0.98213700  1
  S  S82  1  0.61463600  0.15738400  0.97992100  1
  S  S83  1  0.87907150  0.00491150  0.17678900  1
  S  S84  1  0.85662750  0.09109950  0.47936000  1
  S  S85  1  0.11256800  0.23632600  0.83013800  1
  S  S86  1  0.89355800  0.33053700  0.48157400  1
  S  S87  1  0.61256800  0.26367400  0.16986200  1
  S  S88  1  0.35662750  0.40890050  0.52064000  1
  S  S89  1  0.50239650  0.13899750  0.25400800  1
  S  S90  1  0.76235450  0.11759950  0.75470800  1
  S  S91  1  0.61463600  0.34261600  0.47992100  1
  S  S92  1  0.89355800  0.16946300  0.98157400  1
  S  S93  1  0.35662750  0.09109950  0.02064000  1
  S  S94  1  0.10755300  0.40997200  0.48213700  1
  S  S95  1  0.85662750  0.40890050  0.97936000  1
  S  S96  1  0.62716800  0.49597600  0.32612600  1
  S  S97  1  0.87907150  0.49508850  0.67678900  1
  S  S98  1  0.39355800  0.16946300  0.51842600  1
  S  S99  1  0.76235450  0.38240050  0.25470800  1
  S  S100  1  0.00239650  0.13899750  0.24599200  1
  S  S101  1  0.11256800  0.26367400  0.33013800  1
  S  S102  1  0.11463600  0.15738400  0.52007900  1
  S  S103  1  0.38336600  0.23448100  0.80987200  1
  S  S104  1  0.26235450  0.38240050  0.24529200  1
  S  S105  1  0.37907150  0.49508850  0.82321100  1
  S  S106  1  0.88336600  0.26551900  0.19012800  1
  S  S107  1  0.61256800  0.23632600  0.66986200  1
  S  S108  1  0.62716800  0.99597600  0.17387400  1
  S  S109  1  0.12716800  0.50402400  0.82612600  1
  S  S110  1  0.00239650  0.86100250  0.75400800  1
  S  S111  1  0.89355800  0.83053700  0.01842600  1
  S  S112  1  0.10755300  0.90997200  0.01786300  1
  S  S113  1  0.76235450  0.61759950  0.74529200  1
  S  S114  1  0.88336600  0.76551900  0.30987200  1
  S  S115  1  0.61463600  0.84261600  0.02007900  1
  S  S116  1  0.50239650  0.86100250  0.74599200  1
  S  S117  1  0.38336600  0.73448100  0.69012800  1
  S  S118  1  0.87907150  0.50491150  0.32321100  1
  S  S119  1  0.10755300  0.59002800  0.51786300  1
  S  S120  1  0.62716800  0.50402400  0.67387400  1
  S  S121  1  0.60755300  0.59002800  0.98213700  1
  S  S122  1  0.11463600  0.65738400  0.97992100  1
  S  S123  1  0.37907150  0.50491150  0.17678900  1
  S  S124  1  0.35662750  0.59109950  0.47936000  1
  S  S125  1  0.61256800  0.73632600  0.83013800  1
  S  S126  1  0.39355800  0.83053700  0.48157400  1
  S  S127  1  0.11256800  0.76367400  0.16986200  1
  S  S128  1  0.85662750  0.90890050  0.52064000  1
  S  S129  1  0.00239650  0.63899750  0.25400800  1
  S  S130  1  0.26235450  0.61759950  0.75470800  1
  S  S131  1  0.11463600  0.84261600  0.47992100  1
  S  S132  1  0.39355800  0.66946300  0.98157400  1
  S  S133  1  0.85662750  0.59109950  0.02064000  1
  S  S134  1  0.60755300  0.90997200  0.48213700  1
  S  S135  1  0.35662750  0.90890050  0.97936000  1
  S  S136  1  0.12716800  0.99597600  0.32612600  1
  S  S137  1  0.37907150  0.99508850  0.67678900  1
  S  S138  1  0.89355800  0.66946300  0.51842600  1
  S  S139  1  0.26235450  0.88240050  0.25470800  1
  S  S140  1  0.50239650  0.63899750  0.24599200  1
  S  S141  1  0.61256800  0.76367400  0.33013800  1
  S  S142  1  0.61463600  0.65738400  0.52007900  1
  S  S143  1  0.88336600  0.73448100  0.80987200  1
  S  S144  1  0.76235450  0.88240050  0.24529200  1
  S  S145  1  0.87907150  0.99508850  0.82321100  1
  S  S146  1  0.38336600  0.76551900  0.19012800  1
  S  S147  1  0.11256800  0.73632600  0.66986200  1
