# generated using pymatgen
data_Ba3Al2Cu2F16
_symmetry_space_group_name_H-M   'P 1'
_cell_length_a   7.49518100
_cell_length_b   5.39476300
_cell_length_c   16.24353714
_cell_angle_alpha   90.00000000
_cell_angle_beta   96.68675484
_cell_angle_gamma   90.00000000
_symmetry_Int_Tables_number   1
_chemical_formula_structural   Ba3Al2Cu2F16
_chemical_formula_sum   'Ba6 Al4 Cu4 F32'
_cell_volume   652.33511890
_cell_formula_units_Z   2
loop_
 _symmetry_equiv_pos_site_id
 _symmetry_equiv_pos_as_xyz
  1  'x, y, z'
loop_
 _atom_site_type_symbol
 _atom_site_label
 _atom_site_symmetry_multiplicity
 _atom_site_fract_x
 _atom_site_fract_y
 _atom_site_fract_z
 _atom_site_occupancy
  Ba  Ba0  1  0.30845400  0.75901200  0.81531900  1
  Ba  Ba1  1  0.83795000  0.24105500  0.88548700  1
  Ba  Ba2  1  0.16205000  0.74105500  0.11451300  1
  Ba  Ba3  1  0.69154600  0.25901200  0.18468100  1
  Ba  Ba4  1  0.25312000  0.81150300  0.53028400  1
  Ba  Ba5  1  0.74688000  0.31150300  0.46971600  1
  Al  Al6  1  0.07946000  0.32057100  0.65956900  1
  Al  Al7  1  0.33071500  0.26573400  0.97536800  1
  Al  Al8  1  0.66928500  0.76573400  0.02463200  1
  Al  Al9  1  0.92054000  0.82057100  0.34043100  1
  Cu  Cu10  1  0.21583600  0.28840900  0.30436700  1
  Cu  Cu11  1  0.43650200  0.81123300  0.32954600  1
  Cu  Cu12  1  0.78416400  0.78840900  0.69563300  1
  Cu  Cu13  1  0.56349800  0.31123300  0.67045400  1
  F  F14  1  0.36702200  0.98891400  0.23048300  1
  F  F15  1  0.09954800  0.30146700  0.54681300  1
  F  F16  1  0.86309100  0.16882700  0.63734900  1
  F  F17  1  0.79321400  0.53897000  0.32258200  1
  F  F18  1  0.59409400  0.00002800  0.73586800  1
  F  F19  1  0.30149900  0.27956400  0.08317900  1
  F  F20  1  0.20678600  0.03897000  0.67741800  1
  F  F21  1  0.59991200  0.75314000  0.12674100  1
  F  F22  1  0.81575900  0.50195200  0.04440300  1
  F  F23  1  0.40008800  0.25314000  0.87325900  1
  F  F24  1  0.90045200  0.80146700  0.45318700  1
  F  F25  1  0.47279300  0.55719200  0.99204700  1
  F  F26  1  0.05343900  0.37139100  0.20903000  1
  F  F27  1  0.69850100  0.77956400  0.91682100  1
  F  F28  1  0.96510500  0.62568000  0.63501400  1
  F  F29  1  0.18424100  0.00195200  0.95559700  1
  F  F30  1  0.28950700  0.50383300  0.67054400  1
  F  F31  1  0.50023700  0.15960000  0.56651300  1
  F  F32  1  0.52720700  0.05719200  0.00795300  1
  F  F33  1  0.63297800  0.48891400  0.76951700  1
  F  F34  1  0.13690900  0.66882700  0.36265100  1
  F  F35  1  0.40590600  0.50002800  0.26413200  1
  F  F36  1  0.05853600  0.37034400  0.76758600  1
  F  F37  1  0.38969500  0.13239000  0.38861400  1
  F  F38  1  0.14620100  0.47679300  0.94663000  1
  F  F39  1  0.85379900  0.97679300  0.05337000  1
  F  F40  1  0.71049300  0.00383300  0.32945600  1
  F  F41  1  0.49976300  0.65960000  0.43348700  1
  F  F42  1  0.94146400  0.87034400  0.23241400  1
  F  F43  1  0.61030500  0.63239000  0.61138600  1
  F  F44  1  0.03489500  0.12568000  0.36498600  1
  F  F45  1  0.94656100  0.87139100  0.79097000  1
