# generated using pymatgen
data_SbI3
_symmetry_space_group_name_H-M   'P 1'
_cell_length_a   7.91228200
_cell_length_b   11.71589500
_cell_length_c   8.87492002
_cell_angle_alpha   90.00000000
_cell_angle_beta   109.36587344
_cell_angle_gamma   90.00000000
_symmetry_Int_Tables_number   1
_chemical_formula_structural   SbI3
_chemical_formula_sum   'Sb4 I12'
_cell_volume   776.15222759
_cell_formula_units_Z   4
loop_
 _symmetry_equiv_pos_site_id
 _symmetry_equiv_pos_as_xyz
  1  'x, y, z'
loop_
 _atom_site_type_symbol
 _atom_site_label
 _atom_site_symmetry_multiplicity
 _atom_site_fract_x
 _atom_site_fract_y
 _atom_site_fract_z
 _atom_site_occupancy
  Sb  Sb0  1  0.04764900  0.33788400  0.67601300  1
  Sb  Sb1  1  0.04764900  0.16211600  0.17601300  1
  Sb  Sb2  1  0.95235100  0.83788400  0.82398700  1
  Sb  Sb3  1  0.95235100  0.66211600  0.32398700  1
  I  I4  1  0.21179000  0.55370500  0.69643400  1
  I  I5  1  0.31714900  0.24722500  0.45285000  1
  I  I6  1  0.31714900  0.25277500  0.95285000  1
  I  I7  1  0.79332200  0.10183900  0.32008200  1
  I  I8  1  0.20667800  0.89816100  0.67991800  1
  I  I9  1  0.79332200  0.39816100  0.82008200  1
  I  I10  1  0.78821000  0.44629500  0.30356600  1
  I  I11  1  0.21179000  0.94629500  0.19643400  1
  I  I12  1  0.78821000  0.05370500  0.80356600  1
  I  I13  1  0.20667800  0.60183900  0.17991800  1
  I  I14  1  0.68285100  0.74722500  0.04715000  1
  I  I15  1  0.68285100  0.75277500  0.54715000  1
