# generated using pymatgen
data_Cs3BAs2
_symmetry_space_group_name_H-M   'P 1'
_cell_length_a   10.20013800
_cell_length_b   10.03432000
_cell_length_c   10.21724927
_cell_angle_alpha   90.00000000
_cell_angle_beta   110.29717171
_cell_angle_gamma   90.00000000
_symmetry_Int_Tables_number   1
_chemical_formula_structural   Cs3BAs2
_chemical_formula_sum   'Cs12 B4 As8'
_cell_volume   980.81550998
_cell_formula_units_Z   4
loop_
 _symmetry_equiv_pos_site_id
 _symmetry_equiv_pos_as_xyz
  1  'x, y, z'
loop_
 _atom_site_type_symbol
 _atom_site_label
 _atom_site_symmetry_multiplicity
 _atom_site_fract_x
 _atom_site_fract_y
 _atom_site_fract_z
 _atom_site_occupancy
  Cs  Cs0  1  0.70480200  0.55300100  0.98037100  1
  Cs  Cs1  1  0.00000000  0.34487400  0.25000000  1
  Cs  Cs2  1  0.29519800  0.44699900  0.01962900  1
  Cs  Cs3  1  0.00000000  0.65512600  0.75000000  1
  Cs  Cs4  1  0.70480200  0.44699900  0.48037100  1
  Cs  Cs5  1  0.29519800  0.55300100  0.51962900  1
  Cs  Cs6  1  0.20480200  0.05300100  0.98037100  1
  Cs  Cs7  1  0.50000000  0.84487400  0.25000000  1
  Cs  Cs8  1  0.79519800  0.94699900  0.01962900  1
  Cs  Cs9  1  0.50000000  0.15512600  0.75000000  1
  Cs  Cs10  1  0.20480200  0.94699900  0.48037100  1
  Cs  Cs11  1  0.79519800  0.05300100  0.51962900  1
  B  B12  1  0.00000000  0.71357600  0.25000000  1
  B  B13  1  0.00000000  0.28642400  0.75000000  1
  B  B14  1  0.50000000  0.21357600  0.25000000  1
  B  B15  1  0.50000000  0.78642400  0.75000000  1
  As  As16  1  0.12109150  0.28379750  0.64552600  1
  As  As17  1  0.12109150  0.71620250  0.14552600  1
  As  As18  1  0.87890850  0.28379750  0.85447400  1
  As  As19  1  0.87890850  0.71620250  0.35447400  1
  As  As20  1  0.62109150  0.78379750  0.64552600  1
  As  As21  1  0.62109150  0.21620250  0.14552600  1
  As  As22  1  0.37890850  0.78379750  0.85447400  1
  As  As23  1  0.37890850  0.21620250  0.35447400  1
