# generated using pymatgen
data_Bi5IO7
_symmetry_space_group_name_H-M   'P 1'
_cell_length_a   18.93741600
_cell_length_b   4.26414600
_cell_length_c   13.49334183
_cell_angle_alpha   90.00000000
_cell_angle_beta   106.53546244
_cell_angle_gamma   90.00000000
_symmetry_Int_Tables_number   1
_chemical_formula_structural   Bi5IO7
_chemical_formula_sum   'Bi20 I4 O28'
_cell_volume   1044.55078458
_cell_formula_units_Z   4
loop_
 _symmetry_equiv_pos_site_id
 _symmetry_equiv_pos_as_xyz
  1  'x, y, z'
loop_
 _atom_site_type_symbol
 _atom_site_label
 _atom_site_symmetry_multiplicity
 _atom_site_fract_x
 _atom_site_fract_y
 _atom_site_fract_z
 _atom_site_occupancy
  Bi  Bi0  1  0.79484300  0.00000000  0.63025200  1
  Bi  Bi1  1  0.70515700  0.50000000  0.36974800  1
  Bi  Bi2  1  0.89496200  0.50000000  0.87020300  1
  Bi  Bi3  1  0.60503800  0.00000000  0.12979700  1
  Bi  Bi4  1  0.96880100  0.50000000  0.63496700  1
  Bi  Bi5  1  0.53119900  0.00000000  0.36503300  1
  Bi  Bi6  1  0.62282500  0.50000000  0.58925200  1
  Bi  Bi7  1  0.87717500  0.00000000  0.41074800  1
  Bi  Bi8  1  0.73914800  0.00000000  0.86478900  1
  Bi  Bi9  1  0.76085200  0.50000000  0.13521100  1
  Bi  Bi10  1  0.29484300  0.50000000  0.63025200  1
  Bi  Bi11  1  0.20515700  0.00000000  0.36974800  1
  Bi  Bi12  1  0.39496200  0.00000000  0.87020300  1
  Bi  Bi13  1  0.10503800  0.50000000  0.12979700  1
  Bi  Bi14  1  0.46880100  0.00000000  0.63496700  1
  Bi  Bi15  1  0.03119900  0.50000000  0.36503300  1
  Bi  Bi16  1  0.12282500  0.00000000  0.58925200  1
  Bi  Bi17  1  0.37717500  0.50000000  0.41074800  1
  Bi  Bi18  1  0.23914800  0.50000000  0.86478900  1
  Bi  Bi19  1  0.26085200  0.00000000  0.13521100  1
  I  I20  1  0.92892400  0.00000000  0.12877300  1
  I  I21  1  0.57107600  0.50000000  0.87122700  1
  I  I22  1  0.42892400  0.50000000  0.12877300  1
  I  I23  1  0.07107600  0.00000000  0.87122700  1
  O  O24  1  0.65043600  0.50000000  0.16824200  1
  O  O25  1  0.84956400  0.00000000  0.83175800  1
  O  O26  1  0.62651000  0.00000000  0.29887200  1
  O  O27  1  0.87349000  0.50000000  0.70112800  1
  O  O28  1  0.78436300  0.50000000  0.88483400  1
  O  O29  1  0.71563700  0.00000000  0.11516600  1
  O  O30  1  0.92957900  0.00000000  0.58699200  1
  O  O31  1  0.57042100  0.50000000  0.41300800  1
  O  O32  1  0.72778700  0.50000000  0.55892100  1
  O  O33  1  0.77221300  0.00000000  0.44107900  1
  O  O34  1  0.80163000  0.50000000  0.29792800  1
  O  O35  1  0.69837000  0.00000000  0.70207200  1
  O  O36  1  0.91519100  0.50000000  0.47139300  1
  O  O37  1  0.58480900  0.00000000  0.52860700  1
  O  O38  1  0.15043600  0.00000000  0.16824200  1
  O  O39  1  0.34956400  0.50000000  0.83175800  1
  O  O40  1  0.12651000  0.50000000  0.29887200  1
  O  O41  1  0.37349000  0.00000000  0.70112800  1
  O  O42  1  0.28436300  0.00000000  0.88483400  1
  O  O43  1  0.21563700  0.50000000  0.11516600  1
  O  O44  1  0.42957900  0.50000000  0.58699200  1
  O  O45  1  0.07042100  0.00000000  0.41300800  1
  O  O46  1  0.22778700  0.00000000  0.55892100  1
  O  O47  1  0.27221300  0.50000000  0.44107900  1
  O  O48  1  0.30163000  0.00000000  0.29792800  1
  O  O49  1  0.19837000  0.50000000  0.70207200  1
  O  O50  1  0.41519100  0.00000000  0.47139300  1
  O  O51  1  0.08480900  0.50000000  0.52860700  1
