# generated using pymatgen
data_Al2Tl3(PO4)3
_symmetry_space_group_name_H-M   'P 1'
_cell_length_a   6.22303900
_cell_length_b   10.54622100
_cell_length_c   18.06112000
_cell_angle_alpha   90.00000000
_cell_angle_beta   90.00000000
_cell_angle_gamma   90.00000000
_symmetry_Int_Tables_number   1
_chemical_formula_structural   Al2Tl3(PO4)3
_chemical_formula_sum   'Al8 Tl12 P12 O48'
_cell_volume   1185.34308031
_cell_formula_units_Z   4
loop_
 _symmetry_equiv_pos_site_id
 _symmetry_equiv_pos_as_xyz
  1  'x, y, z'
loop_
 _atom_site_type_symbol
 _atom_site_label
 _atom_site_symmetry_multiplicity
 _atom_site_fract_x
 _atom_site_fract_y
 _atom_site_fract_z
 _atom_site_occupancy
  Al  Al0  1  0.74265200  0.08302700  0.58284300  1
  Al  Al1  1  0.74265200  0.08302700  0.91715700  1
  Al  Al2  1  0.75734800  0.58302700  0.08284300  1
  Al  Al3  1  0.25734800  0.91697300  0.41715700  1
  Al  Al4  1  0.24265200  0.41697300  0.58284300  1
  Al  Al5  1  0.25734800  0.91697300  0.08284300  1
  Al  Al6  1  0.24265200  0.41697300  0.91715700  1
  Al  Al7  1  0.75734800  0.58302700  0.41715700  1
  Tl  Tl8  1  0.26486900  0.84195900  0.64135300  1
  Tl  Tl9  1  0.73414100  0.85947900  0.25000000  1
  Tl  Tl10  1  0.76486900  0.65804100  0.64135300  1
  Tl  Tl11  1  0.76585900  0.35947900  0.75000000  1
  Tl  Tl12  1  0.26486900  0.84195900  0.85864700  1
  Tl  Tl13  1  0.73513100  0.15804100  0.35864700  1
  Tl  Tl14  1  0.73513100  0.15804100  0.14135300  1
  Tl  Tl15  1  0.76486900  0.65804100  0.85864700  1
  Tl  Tl16  1  0.23513100  0.34195900  0.14135300  1
  Tl  Tl17  1  0.26585900  0.14052100  0.75000000  1
  Tl  Tl18  1  0.23513100  0.34195900  0.35864700  1
  Tl  Tl19  1  0.23414100  0.64052100  0.25000000  1
  P  P20  1  0.74868000  0.37271200  0.54030200  1
  P  P21  1  0.74192900  0.49380500  0.25000000  1
  P  P22  1  0.75132000  0.87271200  0.04030200  1
  P  P23  1  0.24868000  0.12728800  0.54030200  1
  P  P24  1  0.75807100  0.99380500  0.75000000  1
  P  P25  1  0.25132000  0.62728800  0.45969800  1
  P  P26  1  0.74868000  0.37271200  0.95969800  1
  P  P27  1  0.24868000  0.12728800  0.95969800  1
  P  P28  1  0.75132000  0.87271200  0.45969800  1
  P  P29  1  0.25807100  0.50619500  0.75000000  1
  P  P30  1  0.24192900  0.00619500  0.25000000  1
  P  P31  1  0.25132000  0.62728800  0.04030200  1
  O  O32  1  0.46041800  0.57461300  0.07801900  1
  O  O33  1  0.73856200  0.22758100  0.52890000  1
  O  O34  1  0.74636800  0.58704500  0.18251000  1
  O  O35  1  0.57042700  0.90955700  0.09304100  1
  O  O36  1  0.53410300  0.41401100  0.25000000  1
  O  O37  1  0.28842200  0.06997000  0.03797000  1
  O  O38  1  0.92957300  0.40955700  0.90695900  1
  O  O39  1  0.05766800  0.58757900  0.75000000  1
  O  O40  1  0.71157800  0.93003000  0.53797000  1
  O  O41  1  0.21157800  0.56997000  0.53797000  1
  O  O42  1  0.75363200  0.08704500  0.68251000  1
  O  O43  1  0.96589700  0.91401100  0.75000000  1
  O  O44  1  0.28842200  0.06997000  0.46203000  1
  O  O45  1  0.03410300  0.08598900  0.25000000  1
  O  O46  1  0.21157800  0.56997000  0.96203000  1
  O  O47  1  0.07042700  0.59044300  0.40695900  1
  O  O48  1  0.96041800  0.92538700  0.42198100  1
  O  O49  1  0.53958200  0.42538700  0.57801900  1
  O  O50  1  0.71157800  0.93003000  0.96203000  1
  O  O51  1  0.57042700  0.90955700  0.40695900  1
  O  O52  1  0.96041800  0.92538700  0.07801900  1
  O  O53  1  0.07042700  0.59044300  0.09304100  1
  O  O54  1  0.44233200  0.08757900  0.25000000  1
  O  O55  1  0.26143800  0.77241900  0.02890000  1
  O  O56  1  0.46041800  0.57461300  0.42198100  1
  O  O57  1  0.76143800  0.72758100  0.02890000  1
  O  O58  1  0.74636800  0.58704500  0.31749000  1
  O  O59  1  0.03958200  0.07461300  0.92198100  1
  O  O60  1  0.23856200  0.27241900  0.97110000  1
  O  O61  1  0.25363200  0.41295500  0.68251000  1
  O  O62  1  0.75363200  0.08704500  0.81749000  1
  O  O63  1  0.73856200  0.22758100  0.97110000  1
  O  O64  1  0.76143800  0.72758100  0.47110000  1
  O  O65  1  0.23856200  0.27241900  0.52890000  1
  O  O66  1  0.03958200  0.07461300  0.57801900  1
  O  O67  1  0.92957300  0.40955700  0.59304100  1
  O  O68  1  0.94233200  0.41242100  0.25000000  1
  O  O69  1  0.46589700  0.58598900  0.75000000  1
  O  O70  1  0.53958200  0.42538700  0.92198100  1
  O  O71  1  0.55766800  0.91242100  0.75000000  1
  O  O72  1  0.24636800  0.91295500  0.31749000  1
  O  O73  1  0.42957300  0.09044300  0.59304100  1
  O  O74  1  0.78842200  0.43003000  0.03797000  1
  O  O75  1  0.26143800  0.77241900  0.47110000  1
  O  O76  1  0.42957300  0.09044300  0.90695900  1
  O  O77  1  0.78842200  0.43003000  0.46203000  1
  O  O78  1  0.24636800  0.91295500  0.18251000  1
  O  O79  1  0.25363200  0.41295500  0.81749000  1
