# generated using pymatgen
data_CuSb2(XeF5)4
_symmetry_space_group_name_H-M   'P 1'
_cell_length_a   11.33440800
_cell_length_b   11.33440800
_cell_length_c   8.49281800
_cell_angle_alpha   90.00000000
_cell_angle_beta   90.00000000
_cell_angle_gamma   90.00000000
_symmetry_Int_Tables_number   1
_chemical_formula_structural   CuSb2(XeF5)4
_chemical_formula_sum   'Cu2 Sb4 Xe8 F40'
_cell_volume   1091.06217708
_cell_formula_units_Z   2
loop_
 _symmetry_equiv_pos_site_id
 _symmetry_equiv_pos_as_xyz
  1  'x, y, z'
loop_
 _atom_site_type_symbol
 _atom_site_label
 _atom_site_symmetry_multiplicity
 _atom_site_fract_x
 _atom_site_fract_y
 _atom_site_fract_z
 _atom_site_occupancy
  Cu  Cu0  1  0.00000000  0.00000000  0.50000000  1
  Cu  Cu1  1  0.50000000  0.50000000  0.00000000  1
  Sb  Sb2  1  0.50000000  0.00000000  0.25000000  1
  Sb  Sb3  1  0.00000000  0.00000000  0.00000000  1
  Sb  Sb4  1  0.00000000  0.50000000  0.75000000  1
  Sb  Sb5  1  0.50000000  0.50000000  0.50000000  1
  Xe  Xe6  1  0.26737550  0.15165350  0.63829750  1
  Xe  Xe7  1  0.34834650  0.76737550  0.86170250  1
  Xe  Xe8  1  0.73262450  0.84834650  0.63829750  1
  Xe  Xe9  1  0.65165350  0.23262450  0.86170250  1
  Xe  Xe10  1  0.76737550  0.65165350  0.13829750  1
  Xe  Xe11  1  0.84834650  0.26737550  0.36170250  1
  Xe  Xe12  1  0.23262450  0.34834650  0.13829750  1
  Xe  Xe13  1  0.15165350  0.73262450  0.36170250  1
  F  F14  1  0.16703600  0.03293000  0.48703900  1
  F  F15  1  0.36909600  0.89235000  0.24550400  1
  F  F16  1  0.24510650  0.86401850  0.71605350  1
  F  F17  1  0.39235000  0.13090400  0.25449600  1
  F  F18  1  0.57487650  0.34868750  0.50406850  1
  F  F19  1  0.60765000  0.86909600  0.25449600  1
  F  F20  1  0.63598150  0.74510650  0.78394650  1
  F  F21  1  0.75489350  0.13598150  0.71605350  1
  F  F22  1  0.50000000  0.00000000  0.47719800  1
  F  F23  1  0.42512350  0.65131250  0.50406850  1
  F  F24  1  0.50000000  0.00000000  0.02280200  1
  F  F25  1  0.53293000  0.33296400  0.01296100  1
  F  F26  1  0.00000000  0.00000000  0.77080600  1
  F  F27  1  0.46707000  0.66703600  0.01296100  1
  F  F28  1  0.15131250  0.07487650  0.99593150  1
  F  F29  1  0.36401850  0.25489350  0.78394650  1
  F  F30  1  0.83296400  0.96707000  0.48703900  1
  F  F31  1  0.63090400  0.10765000  0.24550400  1
  F  F32  1  0.84868750  0.92512350  0.99593150  1
  F  F33  1  0.00000000  0.00000000  0.22919400  1
  F  F34  1  0.66703600  0.53293000  0.98703900  1
  F  F35  1  0.86909600  0.39235000  0.74550400  1
  F  F36  1  0.74510650  0.36401850  0.21605350  1
  F  F37  1  0.89235000  0.63090400  0.75449600  1
  F  F38  1  0.07487650  0.84868750  0.00406850  1
  F  F39  1  0.10765000  0.36909600  0.75449600  1
  F  F40  1  0.13598150  0.24510650  0.28394650  1
  F  F41  1  0.25489350  0.63598150  0.21605350  1
  F  F42  1  0.00000000  0.50000000  0.97719800  1
  F  F43  1  0.92512350  0.15131250  0.00406850  1
  F  F44  1  0.00000000  0.50000000  0.52280200  1
  F  F45  1  0.03293000  0.83296400  0.51296100  1
  F  F46  1  0.50000000  0.50000000  0.27080600  1
  F  F47  1  0.96707000  0.16703600  0.51296100  1
  F  F48  1  0.65131250  0.57487650  0.49593150  1
  F  F49  1  0.86401850  0.75489350  0.28394650  1
  F  F50  1  0.33296400  0.46707000  0.98703900  1
  F  F51  1  0.13090400  0.60765000  0.74550400  1
  F  F52  1  0.34868750  0.42512350  0.49593150  1
  F  F53  1  0.50000000  0.50000000  0.72919400  1
