# generated using pymatgen
data_Ca5(ReO6)2
_symmetry_space_group_name_H-M   'P 1'
_cell_length_a   9.65765234
_cell_length_b   9.65765234
_cell_length_c   55.21972116
_cell_angle_alpha   90.00000000
_cell_angle_beta   90.00000000
_cell_angle_gamma   120.00000000
_symmetry_Int_Tables_number   1
_chemical_formula_structural   Ca5(ReO6)2
_chemical_formula_sum   'Ca90 Re36 O216'
_cell_volume   4460.34011314
_cell_formula_units_Z   18
loop_
 _symmetry_equiv_pos_site_id
 _symmetry_equiv_pos_as_xyz
  1  'x, y, z'
loop_
 _atom_site_type_symbol
 _atom_site_label
 _atom_site_symmetry_multiplicity
 _atom_site_fract_x
 _atom_site_fract_y
 _atom_site_fract_z
 _atom_site_occupancy
  Ca  Ca0  1  0.01306500  0.36149000  0.18754300  1
  Ca  Ca1  1  0.34842500  0.98693500  0.18754300  1
  Ca  Ca2  1  0.37449567  0.03823333  0.11750833  1
  Ca  Ca3  1  0.00000000  0.00000000  0.10404900  1
  Ca  Ca4  1  0.00292900  0.70782900  0.21582500  1
  Ca  Ca5  1  0.70490000  0.99707100  0.21582500  1
  Ca  Ca6  1  0.36149000  0.01306500  0.31245700  1
  Ca  Ca7  1  0.98693500  0.34842500  0.31245700  1
  Ca  Ca8  1  0.66666667  0.33333333  0.22928433  1
  Ca  Ca9  1  0.70782900  0.00292900  0.28417500  1
  Ca  Ca10  1  0.30517667  0.32026833  0.02087633  1
  Ca  Ca11  1  0.31824167  0.34639833  0.14579033  1
  Ca  Ca12  1  0.63851000  0.65157500  0.18754300  1
  Ca  Ca13  1  0.01509167  0.69482333  0.02087633  1
  Ca  Ca14  1  0.00000000  0.00000000  0.25000000  1
  Ca  Ca15  1  0.37156667  0.04116233  0.04915833  1
  Ca  Ca16  1  0.67973167  0.98490833  0.02087633  1
  Ca  Ca17  1  0.66373767  0.62550433  0.11750833  1
  Ca  Ca18  1  0.29217100  0.29510000  0.21582500  1
  Ca  Ca19  1  0.99707100  0.70490000  0.28417500  1
  Ca  Ca20  1  0.95883767  0.33040433  0.04915833  1
  Ca  Ca21  1  0.02815667  0.68175833  0.14579033  1
  Ca  Ca22  1  0.66959567  0.62843333  0.04915833  1
  Ca  Ca23  1  0.33333333  0.66666667  0.27071567  1
  Ca  Ca24  1  0.33333333  0.66666667  0.06261767  1
  Ca  Ca25  1  0.96176667  0.33626233  0.11750833  1
  Ca  Ca26  1  0.29510000  0.29217100  0.28417500  1
  Ca  Ca27  1  0.65157500  0.63851000  0.31245700  1
  Ca  Ca28  1  0.66666667  0.33333333  0.08333333  1
  Ca  Ca29  1  0.65360167  0.97184333  0.14579033  1
  Ca  Ca30  1  0.67973167  0.69482333  0.52087633  1
  Ca  Ca31  1  0.01509167  0.32026833  0.52087633  1
  Ca  Ca32  1  0.04116233  0.37156667  0.45084167  1
  Ca  Ca33  1  0.66666667  0.33333333  0.43738233  1
  Ca  Ca34  1  0.66959567  0.04116233  0.54915833  1
  Ca  Ca35  1  0.37156667  0.33040433  0.54915833  1
  Ca  Ca36  1  0.02815667  0.34639833  0.64579033  1
  Ca  Ca37  1  0.65360167  0.68175833  0.64579033  1
  Ca  Ca38  1  0.33333333  0.66666667  0.56261767  1
  Ca  Ca39  1  0.37449567  0.33626233  0.61750833  1
  Ca  Ca40  1  0.97184333  0.65360167  0.35420967  1
  Ca  Ca41  1  0.98490833  0.67973167  0.47912367  1
  Ca  Ca42  1  0.30517667  0.98490833  0.52087633  1
  Ca  Ca43  1  0.68175833  0.02815667  0.35420967  1
  Ca  Ca44  1  0.66666667  0.33333333  0.58333333  1
  Ca  Ca45  1  0.03823333  0.37449567  0.38249167  1
  Ca  Ca46  1  0.34639833  0.31824167  0.35420967  1
  Ca  Ca47  1  0.33040433  0.95883767  0.45084167  1
  Ca  Ca48  1  0.95883767  0.62843333  0.54915833  1
  Ca  Ca49  1  0.66373767  0.03823333  0.61750833  1
  Ca  Ca50  1  0.62550433  0.66373767  0.38249167  1
  Ca  Ca51  1  0.69482333  0.01509167  0.47912367  1
  Ca  Ca52  1  0.33626233  0.96176667  0.38249167  1
  Ca  Ca53  1  0.00000000  0.00000000  0.60404900  1
  Ca  Ca54  1  0.00000000  0.00000000  0.39595100  1
  Ca  Ca55  1  0.62843333  0.66959567  0.45084167  1
  Ca  Ca56  1  0.96176667  0.62550433  0.61750833  1
  Ca  Ca57  1  0.31824167  0.97184333  0.64579033  1
  Ca  Ca58  1  0.33333333  0.66666667  0.41666667  1
  Ca  Ca59  1  0.32026833  0.30517667  0.47912367  1
  Ca  Ca60  1  0.34639833  0.02815667  0.85420967  1
  Ca  Ca61  1  0.68175833  0.65360167  0.85420967  1
  Ca  Ca62  1  0.70782900  0.70490000  0.78417500  1
  Ca  Ca63  1  0.33333333  0.66666667  0.77071567  1
  Ca  Ca64  1  0.33626233  0.37449567  0.88249167  1
  Ca  Ca65  1  0.03823333  0.66373767  0.88249167  1
  Ca  Ca66  1  0.69482333  0.67973167  0.97912367  1
  Ca  Ca67  1  0.32026833  0.01509167  0.97912367  1
  Ca  Ca68  1  0.00000000  0.00000000  0.89595100  1
  Ca  Ca69  1  0.04116233  0.66959567  0.95084167  1
  Ca  Ca70  1  0.63851000  0.98693500  0.68754300  1
  Ca  Ca71  1  0.65157500  0.01306500  0.81245700  1
  Ca  Ca72  1  0.97184333  0.31824167  0.85420967  1
  Ca  Ca73  1  0.34842500  0.36149000  0.68754300  1
  Ca  Ca74  1  0.33333333  0.66666667  0.91666667  1
  Ca  Ca75  1  0.70490000  0.70782900  0.71582500  1
  Ca  Ca76  1  0.01306500  0.65157500  0.68754300  1
  Ca  Ca77  1  0.99707100  0.29217100  0.78417500  1
  Ca  Ca78  1  0.62550433  0.96176667  0.88249167  1
  Ca  Ca79  1  0.33040433  0.37156667  0.95084167  1
  Ca  Ca80  1  0.29217100  0.99707100  0.71582500  1
  Ca  Ca81  1  0.36149000  0.34842500  0.81245700  1
  Ca  Ca82  1  0.00292900  0.29510000  0.71582500  1
  Ca  Ca83  1  0.66666667  0.33333333  0.93738233  1
  Ca  Ca84  1  0.66666667  0.33333333  0.72928433  1
  Ca  Ca85  1  0.29510000  0.00292900  0.78417500  1
  Ca  Ca86  1  0.62843333  0.95883767  0.95084167  1
  Ca  Ca87  1  0.98490833  0.30517667  0.97912367  1
  Ca  Ca88  1  0.00000000  0.00000000  0.75000000  1
  Ca  Ca89  1  0.98693500  0.63851000  0.81245700  1
  Re  Re90  1  0.00000000  0.00000000  0.16092800  1
  Re  Re91  1  0.00000000  0.33409700  0.25000000  1
  Re  Re92  1  0.33256967  0.33333333  0.08333333  1
  Re  Re93  1  0.66666667  0.33333333  0.17240533  1
  Re  Re94  1  0.00000000  0.00000000  0.00000000  1
  Re  Re95  1  0.66590300  0.66590300  0.25000000  1
  Re  Re96  1  0.33333333  0.66666667  0.16666667  1
  Re  Re97  1  0.33333333  0.66666667  0.32759467  1
  Re  Re98  1  0.66666667  0.99923633  0.08333333  1
  Re  Re99  1  0.00076367  0.66743033  0.08333333  1
  Re  Re100  1  0.33333333  0.66666667  0.00573867  1
  Re  Re101  1  0.33409700  0.00000000  0.25000000  1
  Re  Re102  1  0.66666667  0.33333333  0.49426133  1
  Re  Re103  1  0.66666667  0.66743033  0.58333333  1
  Re  Re104  1  0.99923633  0.66666667  0.41666667  1
  Re  Re105  1  0.33333333  0.66666667  0.50573867  1
  Re  Re106  1  0.66666667  0.33333333  0.33333333  1
  Re  Re107  1  0.33256967  0.99923633  0.58333333  1
  Re  Re108  1  0.00000000  0.00000000  0.50000000  1
  Re  Re109  1  0.00000000  0.00000000  0.66092800  1
  Re  Re110  1  0.33333333  0.33256967  0.41666667  1
  Re  Re111  1  0.66743033  0.00076367  0.41666667  1
  Re  Re112  1  0.00000000  0.00000000  0.33907200  1
  Re  Re113  1  0.00076367  0.33333333  0.58333333  1
  Re  Re114  1  0.33333333  0.66666667  0.82759467  1
  Re  Re115  1  0.33333333  0.00076367  0.91666667  1
  Re  Re116  1  0.66590300  0.00000000  0.75000000  1
  Re  Re117  1  0.00000000  0.00000000  0.83907200  1
  Re  Re118  1  0.33333333  0.66666667  0.66666667  1
  Re  Re119  1  0.99923633  0.33256967  0.91666667  1
  Re  Re120  1  0.66666667  0.33333333  0.83333333  1
  Re  Re121  1  0.66666667  0.33333333  0.99426133  1
  Re  Re122  1  0.00000000  0.66590300  0.75000000  1
  Re  Re123  1  0.33409700  0.33409700  0.75000000  1
  Re  Re124  1  0.66666667  0.33333333  0.67240533  1
  Re  Re125  1  0.66743033  0.66666667  0.91666667  1
  O  O126  1  0.32616267  0.82656433  0.14736933  1
  O  O127  1  0.41645967  0.22353833  0.25059033  1
  O  O128  1  0.18978733  0.99811867  0.22425767  1
  O  O129  1  0.83293167  0.84010233  0.01929733  1
  O  O130  1  0.19232833  0.31635067  0.10727467  1
  O  O131  1  0.14100500  0.79068900  0.05939200  1
  O  O132  1  0.16626500  0.65949600  0.18596400  1
  O  O133  1  0.88741300  0.81718100  0.13937800  1
  O  O134  1  0.77646167  0.19292133  0.25059033  1
  O  O135  1  0.83373500  0.49323100  0.31403600  1
  O  O136  1  0.06391300  0.87633000  0.17828000  1
  O  O137  1  0.60275367  0.45700333  0.15505333  1
  O  O138  1  0.18758300  0.12367000  0.32172000  1
  O  O139  1  0.19166867  0.00188133  0.27574233  1
  O  O140  1  0.44592033  0.59643467  0.02728867  1
  O  O141  1  0.85645400  0.52500200  0.05759100  1
  O  O142  1  0.85833533  0.52312067  0.10907567  1
  O  O143  1  0.66478533  0.14166467  0.10907567  1
  O  O144  1  0.15051433  0.55407967  0.02728867  1
  O  O145  1  0.34050400  0.50676900  0.18596400  1
  O  O146  1  0.22353833  0.41645967  0.24940967  1
  O  O147  1  0.44312833  0.91687367  0.08392367  1
  O  O148  1  0.81241700  0.93608700  0.17828000  1
  O  O149  1  0.77925367  0.51615233  0.19395533  1
  O  O150  1  0.73689867  0.22074633  0.19395533  1
  O  O151  1  0.25020700  0.10979500  0.08274300  1
  O  O152  1  0.80707867  0.58354033  0.25059033  1
  O  O153  1  0.45735567  0.98301733  0.27394133  1
  O  O154  1  0.47687933  0.33521467  0.10907567  1
  O  O155  1  0.92976800  0.11258700  0.13937800  1
  O  O156  1  0.50040167  0.67383733  0.14736933  1
  O  O157  1  0.81021267  0.80833133  0.27574233  1
  O  O158  1  0.18281900  0.07023200  0.13937800  1
  O  O159  1  0.93608700  0.81241700  0.32172000  1
  O  O160  1  0.15989767  0.99282933  0.01929733  1
  O  O161  1  0.49323100  0.83373500  0.18596400  1
  O  O162  1  0.65949600  0.16626500  0.31403600  1
  O  O163  1  0.50676900  0.34050400  0.31403600  1
  O  O164  1  0.80833133  0.81021267  0.22425767  1
  O  O165  1  0.20931100  0.35031600  0.05939200  1
  O  O166  1  0.51615233  0.77925367  0.30604467  1
  O  O167  1  0.01698267  0.47433833  0.27394133  1
  O  O168  1  0.85958800  0.74979300  0.08274300  1
  O  O169  1  0.73057967  0.52091633  0.01161333  1
  O  O170  1  0.79033667  0.26942033  0.01161333  1
  O  O171  1  0.47433833  0.01698267  0.22605867  1
  O  O172  1  0.58354033  0.80707867  0.24940967  1
  O  O173  1  0.22074633  0.73689867  0.30604467  1
  O  O174  1  0.17343567  0.49959833  0.14736933  1
  O  O175  1  0.85424967  0.39724633  0.15505333  1
  O  O176  1  0.08312633  0.52625467  0.08392367  1
  O  O177  1  0.99811867  0.18978733  0.27574233  1
  O  O178  1  0.87633000  0.06391300  0.32172000  1
  O  O179  1  0.54264433  0.52566167  0.22605867  1
  O  O180  1  0.00188133  0.19166867  0.22425767  1
  O  O181  1  0.64968400  0.85899500  0.05939200  1
  O  O182  1  0.00717067  0.16706833  0.01929733  1
  O  O183  1  0.89020500  0.14041200  0.08274300  1
  O  O184  1  0.47908367  0.20966333  0.01161333  1
  O  O185  1  0.48384767  0.26310133  0.19395533  1
  O  O186  1  0.19292133  0.77646167  0.24940967  1
  O  O187  1  0.12402233  0.80767167  0.10727467  1
  O  O188  1  0.66854800  0.14354600  0.05759100  1
  O  O189  1  0.40356533  0.84948567  0.02728867  1
  O  O190  1  0.47499800  0.33145200  0.05759100  1
  O  O191  1  0.54299667  0.14575033  0.15505333  1
  O  O192  1  0.68364933  0.87597767  0.10727467  1
  O  O193  1  0.98301733  0.45735567  0.22605867  1
  O  O194  1  0.52566167  0.54264433  0.27394133  1
  O  O195  1  0.12367000  0.18758300  0.17828000  1
  O  O196  1  0.47374533  0.55687167  0.08392367  1
  O  O197  1  0.26310133  0.48384767  0.30604467  1
  O  O198  1  0.99282933  0.15989767  0.48070267  1
  O  O199  1  0.08312633  0.55687167  0.58392367  1
  O  O200  1  0.85645400  0.33145200  0.55759100  1
  O  O201  1  0.49959833  0.17343567  0.35263067  1
  O  O202  1  0.85899500  0.64968400  0.44060800  1
  O  O203  1  0.80767167  0.12402233  0.39272533  1
  O  O204  1  0.83293167  0.99282933  0.51929733  1
  O  O205  1  0.55407967  0.15051433  0.47271133  1
  O  O206  1  0.44312833  0.52625467  0.58392367  1
  O  O207  1  0.50040167  0.82656433  0.64736933  1
  O  O208  1  0.73057967  0.20966333  0.51161333  1
  O  O209  1  0.26942033  0.79033667  0.48838667  1
  O  O210  1  0.85424967  0.45700333  0.65505333  1
  O  O211  1  0.85833533  0.33521467  0.60907567  1
  O  O212  1  0.11258700  0.92976800  0.36062200  1
  O  O213  1  0.52312067  0.85833533  0.39092433  1
  O  O214  1  0.52500200  0.85645400  0.44240900  1
  O  O215  1  0.33145200  0.47499800  0.44240900  1
  O  O216  1  0.81718100  0.88741300  0.36062200  1
  O  O217  1  0.00717067  0.84010233  0.51929733  1
  O  O218  1  0.89020500  0.74979300  0.58274300  1
  O  O219  1  0.10979500  0.25020700  0.41725700  1
  O  O220  1  0.47908367  0.26942033  0.51161333  1
  O  O221  1  0.44592033  0.84948567  0.52728867  1
  O  O222  1  0.40356533  0.55407967  0.52728867  1
  O  O223  1  0.91687367  0.44312833  0.41607633  1
  O  O224  1  0.47374533  0.91687367  0.58392367  1
  O  O225  1  0.12402233  0.31635067  0.60727467  1
  O  O226  1  0.14354600  0.66854800  0.44240900  1
  O  O227  1  0.59643467  0.44592033  0.47271133  1
  O  O228  1  0.16706833  0.00717067  0.48070267  1
  O  O229  1  0.47687933  0.14166467  0.60907567  1
  O  O230  1  0.84948567  0.40356533  0.47271133  1
  O  O231  1  0.60275367  0.14575033  0.65505333  1
  O  O232  1  0.82656433  0.32616267  0.35263067  1
  O  O233  1  0.15989767  0.16706833  0.51929733  1
  O  O234  1  0.32616267  0.49959833  0.64736933  1
  O  O235  1  0.17343567  0.67383733  0.64736933  1
  O  O236  1  0.47499800  0.14354600  0.55759100  1
  O  O237  1  0.87597767  0.68364933  0.39272533  1
  O  O238  1  0.18281900  0.11258700  0.63937800  1
  O  O239  1  0.68364933  0.80767167  0.60727467  1
  O  O240  1  0.52625467  0.08312633  0.41607633  1
  O  O241  1  0.39724633  0.85424967  0.34494667  1
  O  O242  1  0.45700333  0.60275367  0.34494667  1
  O  O243  1  0.14100500  0.35031600  0.55939200  1
  O  O244  1  0.25020700  0.14041200  0.58274300  1
  O  O245  1  0.88741300  0.07023200  0.63937800  1
  O  O246  1  0.84010233  0.83293167  0.48070267  1
  O  O247  1  0.52091633  0.73057967  0.48838667  1
  O  O248  1  0.74979300  0.85958800  0.41725700  1
  O  O249  1  0.66478533  0.52312067  0.60907567  1
  O  O250  1  0.54299667  0.39724633  0.65505333  1
  O  O251  1  0.20931100  0.85899500  0.55939200  1
  O  O252  1  0.66854800  0.52500200  0.55759100  1
  O  O253  1  0.31635067  0.19232833  0.39272533  1
  O  O254  1  0.67383733  0.50040167  0.35263067  1
  O  O255  1  0.55687167  0.47374533  0.41607633  1
  O  O256  1  0.14575033  0.54299667  0.34494667  1
  O  O257  1  0.15051433  0.59643467  0.52728867  1
  O  O258  1  0.85958800  0.10979500  0.58274300  1
  O  O259  1  0.79068900  0.14100500  0.44060800  1
  O  O260  1  0.33521467  0.47687933  0.39092433  1
  O  O261  1  0.07023200  0.18281900  0.36062200  1
  O  O262  1  0.14166467  0.66478533  0.39092433  1
  O  O263  1  0.20966333  0.47908367  0.48838667  1
  O  O264  1  0.35031600  0.20931100  0.44060800  1
  O  O265  1  0.64968400  0.79068900  0.55939200  1
  O  O266  1  0.19232833  0.87597767  0.60727467  1
  O  O267  1  0.79033667  0.52091633  0.51161333  1
  O  O268  1  0.14041200  0.89020500  0.41725700  1
  O  O269  1  0.92976800  0.81718100  0.63937800  1
  O  O270  1  0.65949600  0.49323100  0.81403600  1
  O  O271  1  0.74979300  0.89020500  0.91725700  1
  O  O272  1  0.52312067  0.66478533  0.89092433  1
  O  O273  1  0.16626500  0.50676900  0.68596400  1
  O  O274  1  0.52566167  0.98301733  0.77394133  1
  O  O275  1  0.47433833  0.45735567  0.72605867  1
  O  O276  1  0.49959833  0.32616267  0.85263067  1
  O  O277  1  0.22074633  0.48384767  0.80604467  1
  O  O278  1  0.10979500  0.85958800  0.91725700  1
  O  O279  1  0.16706833  0.15989767  0.98070267  1
  O  O280  1  0.39724633  0.54299667  0.84494667  1
  O  O281  1  0.93608700  0.12367000  0.82172000  1
  O  O282  1  0.52091633  0.79033667  0.98838667  1
  O  O283  1  0.52500200  0.66854800  0.94240900  1
  O  O284  1  0.77925367  0.26310133  0.69395533  1
  O  O285  1  0.18978733  0.19166867  0.72425767  1
  O  O286  1  0.19166867  0.18978733  0.77574233  1
  O  O287  1  0.99811867  0.80833133  0.77574233  1
  O  O288  1  0.48384767  0.22074633  0.69395533  1
  O  O289  1  0.67383733  0.17343567  0.85263067  1
  O  O290  1  0.55687167  0.08312633  0.91607633  1
  O  O291  1  0.77646167  0.58354033  0.75059033  1
  O  O292  1  0.14575033  0.60275367  0.84494667  1
  O  O293  1  0.11258700  0.18281900  0.86062200  1
  O  O294  1  0.07023200  0.88741300  0.86062200  1
  O  O295  1  0.58354033  0.77646167  0.74940967  1
  O  O296  1  0.14041200  0.25020700  0.91725700  1
  O  O297  1  0.79068900  0.64968400  0.94060800  1
  O  O298  1  0.81021267  0.00188133  0.77574233  1
  O  O299  1  0.26310133  0.77925367  0.80604467  1
  O  O300  1  0.83373500  0.34050400  0.81403600  1
  O  O301  1  0.14354600  0.47499800  0.94240900  1
  O  O302  1  0.51615233  0.73689867  0.80604467  1
  O  O303  1  0.26942033  0.47908367  0.98838667  1
  O  O304  1  0.49323100  0.65949600  0.68596400  1
  O  O305  1  0.82656433  0.50040167  0.85263067  1
  O  O306  1  0.99282933  0.83293167  0.98070267  1
  O  O307  1  0.84010233  0.00717067  0.98070267  1
  O  O308  1  0.14166467  0.47687933  0.89092433  1
  O  O309  1  0.54264433  0.01698267  0.72605867  1
  O  O310  1  0.84948567  0.44592033  0.97271133  1
  O  O311  1  0.35031600  0.14100500  0.94060800  1
  O  O312  1  0.19292133  0.41645967  0.74940967  1
  O  O313  1  0.06391300  0.18758300  0.67828000  1
  O  O314  1  0.12367000  0.93608700  0.67828000  1
  O  O315  1  0.80767167  0.68364933  0.89272533  1
  O  O316  1  0.91687367  0.47374533  0.91607633  1
  O  O317  1  0.55407967  0.40356533  0.97271133  1
  O  O318  1  0.50676900  0.16626500  0.81403600  1
  O  O319  1  0.18758300  0.06391300  0.82172000  1
  O  O320  1  0.41645967  0.19292133  0.75059033  1
  O  O321  1  0.33145200  0.85645400  0.94240900  1
  O  O322  1  0.20966333  0.73057967  0.98838667  1
  O  O323  1  0.87597767  0.19232833  0.89272533  1
  O  O324  1  0.33521467  0.85833533  0.89092433  1
  O  O325  1  0.98301733  0.52566167  0.72605867  1
  O  O326  1  0.34050400  0.83373500  0.68596400  1
  O  O327  1  0.22353833  0.80707867  0.74940967  1
  O  O328  1  0.81241700  0.87633000  0.67828000  1
  O  O329  1  0.81718100  0.92976800  0.86062200  1
  O  O330  1  0.52625467  0.44312833  0.91607633  1
  O  O331  1  0.45735567  0.47433833  0.77394133  1
  O  O332  1  0.00188133  0.81021267  0.72425767  1
  O  O333  1  0.73689867  0.51615233  0.69395533  1
  O  O334  1  0.80833133  0.99811867  0.72425767  1
  O  O335  1  0.87633000  0.81241700  0.82172000  1
  O  O336  1  0.01698267  0.54264433  0.77394133  1
  O  O337  1  0.31635067  0.12402233  0.89272533  1
  O  O338  1  0.85899500  0.20931100  0.94060800  1
  O  O339  1  0.45700333  0.85424967  0.84494667  1
  O  O340  1  0.80707867  0.22353833  0.75059033  1
  O  O341  1  0.59643467  0.15051433  0.97271133  1
