# generated using pymatgen
data_K3Hg3S2Cl5O6
_symmetry_space_group_name_H-M   'P 1'
_cell_length_a   6.13855900
_cell_length_b   12.58653000
_cell_length_c   22.75847500
_cell_angle_alpha   90.00000000
_cell_angle_beta   90.00000000
_cell_angle_gamma   90.00000000
_symmetry_Int_Tables_number   1
_chemical_formula_structural   K3Hg3S2Cl5O6
_chemical_formula_sum   'K12 Hg12 S8 Cl20 O24'
_cell_volume   1758.39162724
_cell_formula_units_Z   4
loop_
 _symmetry_equiv_pos_site_id
 _symmetry_equiv_pos_as_xyz
  1  'x, y, z'
loop_
 _atom_site_type_symbol
 _atom_site_label
 _atom_site_symmetry_multiplicity
 _atom_site_fract_x
 _atom_site_fract_y
 _atom_site_fract_z
 _atom_site_occupancy
  K  K0  1  0.75000000  0.13419500  0.48967200  1
  K  K1  1  0.25000000  0.12622800  0.99798100  1
  K  K2  1  0.25000000  0.36889500  0.13293500  1
  K  K3  1  0.25000000  0.63419500  0.01032800  1
  K  K4  1  0.25000000  0.86580500  0.51032800  1
  K  K5  1  0.75000000  0.62622800  0.50201900  1
  K  K6  1  0.75000000  0.63110500  0.86706500  1
  K  K7  1  0.25000000  0.37377200  0.49798100  1
  K  K8  1  0.75000000  0.87377200  0.00201900  1
  K  K9  1  0.75000000  0.36580500  0.98967200  1
  K  K10  1  0.25000000  0.13110500  0.63293500  1
  K  K11  1  0.75000000  0.86889500  0.36706500  1
  Hg  Hg12  1  0.75000000  0.12572600  0.81178400  1
  Hg  Hg13  1  0.25000000  0.87427400  0.18821600  1
  Hg  Hg14  1  0.75000000  0.11304500  0.19122300  1
  Hg  Hg15  1  0.75000000  0.38695500  0.69122300  1
  Hg  Hg16  1  0.25000000  0.88695500  0.80877700  1
  Hg  Hg17  1  0.25000000  0.14098500  0.31403400  1
  Hg  Hg18  1  0.25000000  0.62572600  0.68821600  1
  Hg  Hg19  1  0.25000000  0.61304500  0.30877700  1
  Hg  Hg20  1  0.75000000  0.37427400  0.31178400  1
  Hg  Hg21  1  0.75000000  0.85901500  0.68596600  1
  Hg  Hg22  1  0.75000000  0.64098500  0.18596600  1
  Hg  Hg23  1  0.25000000  0.35901500  0.81403400  1
  S  S24  1  0.25000000  0.83951900  0.91287900  1
  S  S25  1  0.25000000  0.42188300  0.91623900  1
  S  S26  1  0.75000000  0.16048100  0.08712100  1
  S  S27  1  0.25000000  0.66048100  0.41287900  1
  S  S28  1  0.25000000  0.07811700  0.41623900  1
  S  S29  1  0.75000000  0.33951900  0.58712100  1
  S  S30  1  0.75000000  0.92188300  0.58376100  1
  S  S31  1  0.75000000  0.57811700  0.08376100  1
  Cl  Cl32  1  0.75000000  0.37226300  0.41560600  1
  Cl  Cl33  1  0.25000000  0.36998200  0.30899900  1
  Cl  Cl34  1  0.75000000  0.63001800  0.69100100  1
  Cl  Cl35  1  0.25000000  0.36665500  0.70449400  1
  Cl  Cl36  1  0.25000000  0.61111200  0.20031400  1
  Cl  Cl37  1  0.25000000  0.13334500  0.20449400  1
  Cl  Cl38  1  0.25000000  0.87345800  0.29249100  1
  Cl  Cl39  1  0.25000000  0.62773700  0.58439400  1
  Cl  Cl40  1  0.75000000  0.37345800  0.20750900  1
  Cl  Cl41  1  0.75000000  0.11111200  0.29968600  1
  Cl  Cl42  1  0.25000000  0.62654200  0.79249100  1
  Cl  Cl43  1  0.75000000  0.86665500  0.79550600  1
  Cl  Cl44  1  0.25000000  0.88888800  0.70031400  1
  Cl  Cl45  1  0.75000000  0.12773700  0.91560600  1
  Cl  Cl46  1  0.75000000  0.38888800  0.79968600  1
  Cl  Cl47  1  0.75000000  0.86998200  0.19100100  1
  Cl  Cl48  1  0.75000000  0.12654200  0.70750900  1
  Cl  Cl49  1  0.25000000  0.13001800  0.80899900  1
  Cl  Cl50  1  0.25000000  0.87226300  0.08439400  1
  Cl  Cl51  1  0.75000000  0.63334500  0.29550600  1
  O  O52  1  0.25000000  0.17115600  0.45625800  1
  O  O53  1  0.95014400  0.98708100  0.57596000  1
  O  O54  1  0.94986700  0.22453100  0.07630000  1
  O  O55  1  0.45014400  0.48708100  0.92404000  1
  O  O56  1  0.95014400  0.51291900  0.07596000  1
  O  O57  1  0.05013300  0.77546900  0.92370000  1
  O  O58  1  0.55013300  0.27546900  0.57630000  1
  O  O59  1  0.75000000  0.82884400  0.54374200  1
  O  O60  1  0.75000000  0.06144800  0.05246300  1
  O  O61  1  0.25000000  0.93855200  0.94753700  1
  O  O62  1  0.44986700  0.72453100  0.42370000  1
  O  O63  1  0.25000000  0.32884400  0.95625800  1
  O  O64  1  0.54985600  0.98708100  0.57596000  1
  O  O65  1  0.04985600  0.48708100  0.92404000  1
  O  O66  1  0.25000000  0.56144800  0.44753700  1
  O  O67  1  0.55013300  0.22453100  0.07630000  1
  O  O68  1  0.44986700  0.77546900  0.92370000  1
  O  O69  1  0.45014400  0.01291900  0.42404000  1
  O  O70  1  0.94986700  0.27546900  0.57630000  1
  O  O71  1  0.75000000  0.67115600  0.04374200  1
  O  O72  1  0.04985600  0.01291900  0.42404000  1
  O  O73  1  0.05013300  0.72453100  0.42370000  1
  O  O74  1  0.54985600  0.51291900  0.07596000  1
  O  O75  1  0.75000000  0.43855200  0.55246300  1
