# generated using pymatgen
data_Ba4Nb2(OF4)3
_symmetry_space_group_name_H-M   'P 1'
_cell_length_a   23.08610200
_cell_length_b   13.33047400
_cell_length_c   15.25237917
_cell_angle_alpha   90.00000000
_cell_angle_beta   114.20418629
_cell_angle_gamma   90.00000000
_symmetry_Int_Tables_number   1
_chemical_formula_structural   Ba4Nb2(OF4)3
_chemical_formula_sum   'Ba48 Nb24 O36 F144'
_cell_volume   4281.25964490
_cell_formula_units_Z   12
loop_
 _symmetry_equiv_pos_site_id
 _symmetry_equiv_pos_as_xyz
  1  'x, y, z'
loop_
 _atom_site_type_symbol
 _atom_site_label
 _atom_site_symmetry_multiplicity
 _atom_site_fract_x
 _atom_site_fract_y
 _atom_site_fract_z
 _atom_site_occupancy
  Ba  Ba0  1  0.42324000  0.34024300  0.61000100  1
  Ba  Ba1  1  0.58419150  0.99386550  0.88717900  1
  Ba  Ba2  1  0.73904650  0.82302650  0.83057800  1
  Ba  Ba3  1  0.41580850  0.99386550  0.61282100  1
  Ba  Ba4  1  0.57676000  0.65975700  0.38999900  1
  Ba  Ba5  1  0.73904650  0.17697350  0.33057800  1
  Ba  Ba6  1  0.40563200  0.16371200  0.84101300  1
  Ba  Ba7  1  0.91330450  0.99529850  0.35741300  1
  Ba  Ba8  1  0.42324000  0.65975700  0.11000100  1
  Ba  Ba9  1  0.58283650  0.66815850  0.88853800  1
  Ba  Ba10  1  0.41716350  0.66815850  0.61146200  1
  Ba  Ba11  1  0.41580850  0.00613450  0.11282100  1
  Ba  Ba12  1  0.40563200  0.83628800  0.34101300  1
  Ba  Ba13  1  0.58419150  0.00613450  0.38717900  1
  Ba  Ba14  1  0.91330450  0.00470150  0.85741300  1
  Ba  Ba15  1  0.59436800  0.83628800  0.15898700  1
  Ba  Ba16  1  0.59436800  0.16371200  0.65898700  1
  Ba  Ba17  1  0.08669550  0.99529850  0.14258700  1
  Ba  Ba18  1  0.26095350  0.82302650  0.66942200  1
  Ba  Ba19  1  0.26095350  0.17697350  0.16942200  1
  Ba  Ba20  1  0.58283650  0.33184150  0.38853800  1
  Ba  Ba21  1  0.08669550  0.00470150  0.64258700  1
  Ba  Ba22  1  0.41716350  0.33184150  0.11146200  1
  Ba  Ba23  1  0.57676000  0.34024300  0.88999900  1
  Ba  Ba24  1  0.92324000  0.84024300  0.61000100  1
  Ba  Ba25  1  0.08419150  0.49386550  0.88717900  1
  Ba  Ba26  1  0.23904650  0.32302650  0.83057800  1
  Ba  Ba27  1  0.91580850  0.49386550  0.61282100  1
  Ba  Ba28  1  0.07676000  0.15975700  0.38999900  1
  Ba  Ba29  1  0.23904650  0.67697350  0.33057800  1
  Ba  Ba30  1  0.90563200  0.66371200  0.84101300  1
  Ba  Ba31  1  0.41330450  0.49529850  0.35741300  1
  Ba  Ba32  1  0.92324000  0.15975700  0.11000100  1
  Ba  Ba33  1  0.08283650  0.16815850  0.88853800  1
  Ba  Ba34  1  0.91716350  0.16815850  0.61146200  1
  Ba  Ba35  1  0.91580850  0.50613450  0.11282100  1
  Ba  Ba36  1  0.90563200  0.33628800  0.34101300  1
  Ba  Ba37  1  0.08419150  0.50613450  0.38717900  1
  Ba  Ba38  1  0.41330450  0.50470150  0.85741300  1
  Ba  Ba39  1  0.09436800  0.33628800  0.15898700  1
  Ba  Ba40  1  0.09436800  0.66371200  0.65898700  1
  Ba  Ba41  1  0.58669550  0.49529850  0.14258700  1
  Ba  Ba42  1  0.76095350  0.32302650  0.66942200  1
  Ba  Ba43  1  0.76095350  0.67697350  0.16942200  1
  Ba  Ba44  1  0.08283650  0.83184150  0.38853800  1
  Ba  Ba45  1  0.58669550  0.50470150  0.64258700  1
  Ba  Ba46  1  0.91716350  0.83184150  0.11146200  1
  Ba  Ba47  1  0.07676000  0.84024300  0.88999900  1
  Nb  Nb48  1  0.23899000  0.95680600  0.38887500  1
  Nb  Nb49  1  0.76101000  0.95680600  0.11112500  1
  Nb  Nb50  1  0.26265300  0.86221300  0.08676700  1
  Nb  Nb51  1  0.43916900  0.16595800  0.39789600  1
  Nb  Nb52  1  0.56083100  0.83404200  0.60210400  1
  Nb  Nb53  1  0.76101000  0.04319400  0.61112500  1
  Nb  Nb54  1  0.56083100  0.16595800  0.10210400  1
  Nb  Nb55  1  0.73734700  0.13778700  0.91323300  1
  Nb  Nb56  1  0.73734700  0.86221300  0.41323300  1
  Nb  Nb57  1  0.26265300  0.13778700  0.58676700  1
  Nb  Nb58  1  0.23899000  0.04319400  0.88887500  1
  Nb  Nb59  1  0.43916900  0.83404200  0.89789600  1
  Nb  Nb60  1  0.73899000  0.45680600  0.38887500  1
  Nb  Nb61  1  0.26101000  0.45680600  0.11112500  1
  Nb  Nb62  1  0.76265300  0.36221300  0.08676700  1
  Nb  Nb63  1  0.93916900  0.66595800  0.39789600  1
  Nb  Nb64  1  0.06083100  0.33404200  0.60210400  1
  Nb  Nb65  1  0.26101000  0.54319400  0.61112500  1
  Nb  Nb66  1  0.06083100  0.66595800  0.10210400  1
  Nb  Nb67  1  0.23734700  0.63778700  0.91323300  1
  Nb  Nb68  1  0.23734700  0.36221300  0.41323300  1
  Nb  Nb69  1  0.76265300  0.63778700  0.58676700  1
  Nb  Nb70  1  0.73899000  0.54319400  0.88887500  1
  Nb  Nb71  1  0.93916900  0.33404200  0.89789600  1
  O  O72  1  0.35603900  0.17867400  0.34639100  1
  O  O73  1  0.69498600  0.11523900  0.60814300  1
  O  O74  1  0.81648800  0.10068100  0.93515400  1
  O  O75  1  0.72080900  0.04735300  0.00639100  1
  O  O76  1  0.27919100  0.04735300  0.49360900  1
  O  O77  1  0.64396100  0.17867400  0.15360900  1
  O  O78  1  0.30501400  0.88476100  0.39185700  1
  O  O79  1  0.30501400  0.11523900  0.89185700  1
  O  O80  1  0.35603900  0.82132600  0.84639100  1
  O  O81  1  0.27919100  0.95264700  0.99360900  1
  O  O82  1  0.72080900  0.95264700  0.50639100  1
  O  O83  1  0.25000000  0.25000000  0.50000000  1
  O  O84  1  0.69498600  0.88476100  0.10814300  1
  O  O85  1  0.18351200  0.10068100  0.56484600  1
  O  O86  1  0.64396100  0.82132600  0.65360900  1
  O  O87  1  0.81648800  0.89931900  0.43515400  1
  O  O88  1  0.25000000  0.75000000  0.00000000  1
  O  O89  1  0.18351200  0.89931900  0.06484600  1
  O  O90  1  0.85603900  0.67867400  0.34639100  1
  O  O91  1  0.19498600  0.61523900  0.60814300  1
  O  O92  1  0.31648800  0.60068100  0.93515400  1
  O  O93  1  0.22080900  0.54735300  0.00639100  1
  O  O94  1  0.77919100  0.54735300  0.49360900  1
  O  O95  1  0.14396100  0.67867400  0.15360900  1
  O  O96  1  0.80501400  0.38476100  0.39185700  1
  O  O97  1  0.80501400  0.61523900  0.89185700  1
  O  O98  1  0.85603900  0.32132600  0.84639100  1
  O  O99  1  0.77919100  0.45264700  0.99360900  1
  O  O100  1  0.22080900  0.45264700  0.50639100  1
  O  O101  1  0.75000000  0.75000000  0.50000000  1
  O  O102  1  0.19498600  0.38476100  0.10814300  1
  O  O103  1  0.68351200  0.60068100  0.56484600  1
  O  O104  1  0.14396100  0.32132600  0.65360900  1
  O  O105  1  0.31648800  0.39931900  0.43515400  1
  O  O106  1  0.75000000  0.25000000  0.00000000  1
  O  O107  1  0.68351200  0.39931900  0.06484600  1
  F  F108  1  0.04259700  0.00530400  0.95268300  1
  F  F109  1  0.04259700  0.99469600  0.45268300  1
  F  F110  1  0.35458550  0.83268150  0.61779100  1
  F  F111  1  0.63223000  0.33514200  0.59148300  1
  F  F112  1  0.78543650  0.13432450  0.52501100  1
  F  F113  1  0.35458550  0.16731850  0.11779100  1
  F  F114  1  0.45579450  0.83380350  0.53807600  1
  F  F115  1  0.95740300  0.00530400  0.54731700  1
  F  F116  1  0.63223000  0.66485800  0.09148300  1
  F  F117  1  0.85663550  0.98524750  0.64307000  1
  F  F118  1  0.63341350  0.17443350  0.86138600  1
  F  F119  1  0.54028300  0.83609600  0.45525300  1
  F  F120  1  0.14336450  0.98524750  0.85693000  1
  F  F121  1  0.45111850  0.33410750  0.80030600  1
  F  F122  1  0.14336450  0.01475250  0.35693000  1
  F  F123  1  0.36658650  0.17443350  0.63861400  1
  F  F124  1  0.45111850  0.66589250  0.30030600  1
  F  F125  1  0.56910200  0.01978700  0.06122900  1
  F  F126  1  0.50000000  0.54883200  0.75000000  1
  F  F127  1  0.54550350  0.06949750  0.19570800  1
  F  F128  1  0.36777000  0.33514200  0.90851700  1
  F  F129  1  0.68955500  0.97332600  0.31520700  1
  F  F130  1  0.36777000  0.66485800  0.40851700  1
  F  F131  1  0.28164750  0.22176150  0.70608300  1
  F  F132  1  0.85663550  0.01475250  0.14307000  1
  F  F133  1  0.54420550  0.83380350  0.96192400  1
  F  F134  1  0.21456350  0.13432450  0.97498900  1
  F  F135  1  0.45449650  0.06949750  0.30429200  1
  F  F136  1  0.54888150  0.66589250  0.19969400  1
  F  F137  1  0.17493600  0.86015200  0.28707300  1
  F  F138  1  0.54727500  0.68725200  0.54952800  1
  F  F139  1  0.63341350  0.82556650  0.36138600  1
  F  F140  1  0.54727500  0.31274800  0.04952800  1
  F  F141  1  0.95740300  0.99469600  0.04731700  1
  F  F142  1  0.50000000  0.45116800  0.25000000  1
  F  F143  1  0.45272500  0.31274800  0.45047200  1
  F  F144  1  0.36658650  0.82556650  0.13861400  1
  F  F145  1  0.54420550  0.16619650  0.46192400  1
  F  F146  1  0.68955500  0.02667400  0.81520700  1
  F  F147  1  0.45627300  0.25538000  0.30133600  1
  F  F148  1  0.45579450  0.16619650  0.03807600  1
  F  F149  1  0.54372700  0.25538000  0.19866400  1
  F  F150  1  0.77508700  0.04451600  0.22371700  1
  F  F151  1  0.82506400  0.13984800  0.71292700  1
  F  F152  1  0.22491300  0.04451600  0.27628300  1
  F  F153  1  0.45971700  0.16390400  0.54474700  1
  F  F154  1  0.54372700  0.74462000  0.69866400  1
  F  F155  1  0.43089800  0.01978700  0.43877100  1
  F  F156  1  0.77508700  0.95548400  0.72371700  1
  F  F157  1  0.64541450  0.16731850  0.38220900  1
  F  F158  1  0.45449650  0.93050250  0.80429200  1
  F  F159  1  0.50000000  0.88899900  0.25000000  1
  F  F160  1  0.45971700  0.83609600  0.04474700  1
  F  F161  1  0.45272500  0.68725200  0.95047200  1
  F  F162  1  0.31044500  0.97332600  0.18479300  1
  F  F163  1  0.45627300  0.74462000  0.80133600  1
  F  F164  1  0.54550350  0.93050250  0.69570800  1
  F  F165  1  0.31044500  0.02667400  0.68479300  1
  F  F166  1  0.21456350  0.86567550  0.47498900  1
  F  F167  1  0.78543650  0.86567550  0.02501100  1
  F  F168  1  0.71835250  0.77823850  0.29391700  1
  F  F169  1  0.43089800  0.98021300  0.93877100  1
  F  F170  1  0.82506400  0.86015200  0.21292700  1
  F  F171  1  0.17493600  0.13984800  0.78707300  1
  F  F172  1  0.56910200  0.98021300  0.56122900  1
  F  F173  1  0.54888150  0.33410750  0.69969400  1
  F  F174  1  0.50000000  0.11100100  0.75000000  1
  F  F175  1  0.28164750  0.77823850  0.20608300  1
  F  F176  1  0.54028300  0.16390400  0.95525300  1
  F  F177  1  0.64541450  0.83268150  0.88220900  1
  F  F178  1  0.71835250  0.22176150  0.79391700  1
  F  F179  1  0.22491300  0.95548400  0.77628300  1
  F  F180  1  0.54259700  0.50530400  0.95268300  1
  F  F181  1  0.54259700  0.49469600  0.45268300  1
  F  F182  1  0.85458550  0.33268150  0.61779100  1
  F  F183  1  0.13223000  0.83514200  0.59148300  1
  F  F184  1  0.28543650  0.63432450  0.52501100  1
  F  F185  1  0.85458550  0.66731850  0.11779100  1
  F  F186  1  0.95579450  0.33380350  0.53807600  1
  F  F187  1  0.45740300  0.50530400  0.54731700  1
  F  F188  1  0.13223000  0.16485800  0.09148300  1
  F  F189  1  0.35663550  0.48524750  0.64307000  1
  F  F190  1  0.13341350  0.67443350  0.86138600  1
  F  F191  1  0.04028300  0.33609600  0.45525300  1
  F  F192  1  0.64336450  0.48524750  0.85693000  1
  F  F193  1  0.95111850  0.83410750  0.80030600  1
  F  F194  1  0.64336450  0.51475250  0.35693000  1
  F  F195  1  0.86658650  0.67443350  0.63861400  1
  F  F196  1  0.95111850  0.16589250  0.30030600  1
  F  F197  1  0.06910200  0.51978700  0.06122900  1
  F  F198  1  0.00000000  0.04883200  0.75000000  1
  F  F199  1  0.04550350  0.56949750  0.19570800  1
  F  F200  1  0.86777000  0.83514200  0.90851700  1
  F  F201  1  0.18955500  0.47332600  0.31520700  1
  F  F202  1  0.86777000  0.16485800  0.40851700  1
  F  F203  1  0.78164750  0.72176150  0.70608300  1
  F  F204  1  0.35663550  0.51475250  0.14307000  1
  F  F205  1  0.04420550  0.33380350  0.96192400  1
  F  F206  1  0.71456350  0.63432450  0.97498900  1
  F  F207  1  0.95449650  0.56949750  0.30429200  1
  F  F208  1  0.04888150  0.16589250  0.19969400  1
  F  F209  1  0.67493600  0.36015200  0.28707300  1
  F  F210  1  0.04727500  0.18725200  0.54952800  1
  F  F211  1  0.13341350  0.32556650  0.36138600  1
  F  F212  1  0.04727500  0.81274800  0.04952800  1
  F  F213  1  0.45740300  0.49469600  0.04731700  1
  F  F214  1  0.00000000  0.95116800  0.25000000  1
  F  F215  1  0.95272500  0.81274800  0.45047200  1
  F  F216  1  0.86658650  0.32556650  0.13861400  1
  F  F217  1  0.04420550  0.66619650  0.46192400  1
  F  F218  1  0.18955500  0.52667400  0.81520700  1
  F  F219  1  0.95627300  0.75538000  0.30133600  1
  F  F220  1  0.95579450  0.66619650  0.03807600  1
  F  F221  1  0.04372700  0.75538000  0.19866400  1
  F  F222  1  0.27508700  0.54451600  0.22371700  1
  F  F223  1  0.32506400  0.63984800  0.71292700  1
  F  F224  1  0.72491300  0.54451600  0.27628300  1
  F  F225  1  0.95971700  0.66390400  0.54474700  1
  F  F226  1  0.04372700  0.24462000  0.69866400  1
  F  F227  1  0.93089800  0.51978700  0.43877100  1
  F  F228  1  0.27508700  0.45548400  0.72371700  1
  F  F229  1  0.14541450  0.66731850  0.38220900  1
  F  F230  1  0.95449650  0.43050250  0.80429200  1
  F  F231  1  0.00000000  0.38899900  0.25000000  1
  F  F232  1  0.95971700  0.33609600  0.04474700  1
  F  F233  1  0.95272500  0.18725200  0.95047200  1
  F  F234  1  0.81044500  0.47332600  0.18479300  1
  F  F235  1  0.95627300  0.24462000  0.80133600  1
  F  F236  1  0.04550350  0.43050250  0.69570800  1
  F  F237  1  0.81044500  0.52667400  0.68479300  1
  F  F238  1  0.71456350  0.36567550  0.47498900  1
  F  F239  1  0.28543650  0.36567550  0.02501100  1
  F  F240  1  0.21835250  0.27823850  0.29391700  1
  F  F241  1  0.93089800  0.48021300  0.93877100  1
  F  F242  1  0.32506400  0.36015200  0.21292700  1
  F  F243  1  0.67493600  0.63984800  0.78707300  1
  F  F244  1  0.06910200  0.48021300  0.56122900  1
  F  F245  1  0.04888150  0.83410750  0.69969400  1
  F  F246  1  0.00000000  0.61100100  0.75000000  1
  F  F247  1  0.78164750  0.27823850  0.20608300  1
  F  F248  1  0.04028300  0.66390400  0.95525300  1
  F  F249  1  0.14541450  0.33268150  0.88220900  1
  F  F250  1  0.21835250  0.72176150  0.79391700  1
  F  F251  1  0.72491300  0.45548400  0.77628300  1
