# generated using pymatgen
data_Cs2Hg3I8
_symmetry_space_group_name_H-M   'P 1'
_cell_length_a   7.58676800
_cell_length_b   22.82520800
_cell_length_c   8.10485478
_cell_angle_alpha   90.00000000
_cell_angle_beta   108.42773482
_cell_angle_gamma   90.00000000
_symmetry_Int_Tables_number   1
_chemical_formula_structural   Cs2Hg3I8
_chemical_formula_sum   'Cs4 Hg6 I16'
_cell_volume   1331.54627235
_cell_formula_units_Z   2
loop_
 _symmetry_equiv_pos_site_id
 _symmetry_equiv_pos_as_xyz
  1  'x, y, z'
loop_
 _atom_site_type_symbol
 _atom_site_label
 _atom_site_symmetry_multiplicity
 _atom_site_fract_x
 _atom_site_fract_y
 _atom_site_fract_z
 _atom_site_occupancy
  Cs  Cs0  1  0.23224450  0.12929650  0.54724600  1
  Cs  Cs1  1  0.73224450  0.37070350  0.54724600  1
  Cs  Cs2  1  0.73224450  0.62929650  0.54724600  1
  Cs  Cs3  1  0.23224450  0.87070350  0.54724600  1
  Hg  Hg4  1  0.00009100  0.00000000  0.99910400  1
  Hg  Hg5  1  0.88024400  0.19378200  0.92001500  1
  Hg  Hg6  1  0.38024400  0.30621800  0.92001500  1
  Hg  Hg7  1  0.50009100  0.50000000  0.99910400  1
  Hg  Hg8  1  0.38024400  0.69378200  0.92001500  1
  Hg  Hg9  1  0.88024400  0.80621800  0.92001500  1
  I  I10  1  0.33857300  0.00000000  0.26020800  1
  I  I11  1  0.91287000  0.00000000  0.64290200  1
  I  I12  1  0.28560400  0.19479200  0.05323700  1
  I  I13  1  0.78560400  0.30520800  0.05323700  1
  I  I14  1  0.73467750  0.19426350  0.56051100  1
  I  I15  1  0.23467750  0.30573650  0.56051100  1
  I  I16  1  0.28427050  0.40205150  0.10005900  1
  I  I17  1  0.78427050  0.09794850  0.10005900  1
  I  I18  1  0.83857300  0.50000000  0.26020800  1
  I  I19  1  0.41287000  0.50000000  0.64290200  1
  I  I20  1  0.78560400  0.69479200  0.05323700  1
  I  I21  1  0.28560400  0.80520800  0.05323700  1
  I  I22  1  0.23467750  0.69426350  0.56051100  1
  I  I23  1  0.73467750  0.80573650  0.56051100  1
  I  I24  1  0.78427050  0.90205150  0.10005900  1
  I  I25  1  0.28427050  0.59794850  0.10005900  1
