# generated using pymatgen
data_SiC
_symmetry_space_group_name_H-M   'P 1'
_cell_length_a   3.09439999
_cell_length_b   3.09439999
_cell_length_c   48.09961700
_cell_angle_alpha   90.00000000
_cell_angle_beta   90.00000000
_cell_angle_gamma   120.00000000
_symmetry_Int_Tables_number   1
_chemical_formula_structural   SiC
_chemical_formula_sum   'Si19 C19'
_cell_volume   398.86428673
_cell_formula_units_Z   19
loop_
 _symmetry_equiv_pos_site_id
 _symmetry_equiv_pos_as_xyz
  1  'x, y, z'
loop_
 _atom_site_type_symbol
 _atom_site_label
 _atom_site_symmetry_multiplicity
 _atom_site_fract_x
 _atom_site_fract_y
 _atom_site_fract_z
 _atom_site_occupancy
  Si  Si0  1  0.00000000  0.00000000  0.73684500  1
  Si  Si1  1  0.00000000  0.00000000  0.94735100  1
  Si  Si2  1  0.00000000  0.00000000  0.15789100  1
  Si  Si3  1  0.66666667  0.33333333  0.68418700  1
  Si  Si4  1  0.33333333  0.66666667  0.78942800  1
  Si  Si5  1  0.66666667  0.33333333  0.36838700  1
  Si  Si6  1  0.33333333  0.66666667  0.42103400  1
  Si  Si7  1  0.00000000  0.00000000  0.63154500  1
  Si  Si8  1  0.33333333  0.66666667  0.21053600  1
  Si  Si9  1  0.00000000  0.00000000  0.52626500  1
  Si  Si10  1  0.66666667  0.33333333  0.47368400  1
  Si  Si11  1  0.33333333  0.66666667  0.89470900  1
  Si  Si12  1  0.33333333  0.66666667  0.99997800  1
  Si  Si13  1  0.66666667  0.33333333  0.84209000  1
  Si  Si14  1  0.66666667  0.33333333  0.26310700  1
  Si  Si15  1  0.00000000  0.00000000  0.31577000  1
  Si  Si16  1  0.33333333  0.66666667  0.10524500  1
  Si  Si17  1  0.33333333  0.66666667  0.57892900  1
  Si  Si18  1  0.66666667  0.33333333  0.05262200  1
  C  C19  1  0.33333333  0.66666667  0.61850900  1
  C  C20  1  0.33333333  0.66666667  0.82890900  1
  C  C21  1  0.66666667  0.33333333  0.72378000  1
  C  C22  1  0.00000000  0.00000000  0.77633500  1
  C  C23  1  0.66666667  0.33333333  0.40784500  1
  C  C24  1  0.00000000  0.00000000  0.35535300  1
  C  C25  1  0.00000000  0.00000000  0.67100000  1
  C  C26  1  0.33333333  0.66666667  0.14471200  1
  C  C27  1  0.00000000  0.00000000  0.98694100  1
  C  C28  1  0.33333333  0.66666667  0.46062500  1
  C  C29  1  0.33333333  0.66666667  0.93416800  1
  C  C30  1  0.00000000  0.00000000  0.19748100  1
  C  C31  1  0.66666667  0.33333333  0.51316700  1
  C  C32  1  0.00000000  0.00000000  0.56574400  1
  C  C33  1  0.66666667  0.33333333  0.30258700  1
  C  C34  1  0.33333333  0.66666667  0.25001400  1
  C  C35  1  0.33333333  0.66666667  0.03943400  1
  C  C36  1  0.66666667  0.33333333  0.88167700  1
  C  C37  1  0.66666667  0.33333333  0.09221400  1
