# generated using pymatgen
data_K2Ce(NO3)6
_symmetry_space_group_name_H-M   'P 1'
_cell_length_a   13.97129887
_cell_length_b   13.97129887
_cell_length_c   6.80719000
_cell_angle_alpha   90.00000000
_cell_angle_beta   90.00000000
_cell_angle_gamma   120.00000000
_symmetry_Int_Tables_number   1
_chemical_formula_structural   K2Ce(NO3)6
_chemical_formula_sum   'K6 Ce3 N18 O54'
_cell_volume   1150.72638370
_cell_formula_units_Z   3
loop_
 _symmetry_equiv_pos_site_id
 _symmetry_equiv_pos_as_xyz
  1  'x, y, z'
loop_
 _atom_site_type_symbol
 _atom_site_label
 _atom_site_symmetry_multiplicity
 _atom_site_fract_x
 _atom_site_fract_y
 _atom_site_fract_z
 _atom_site_occupancy
  K  K0  1  0.67404100  0.67979300  0.21878100  1
  K  K1  1  0.99424800  0.67404100  0.78121900  1
  K  K2  1  0.32020700  0.99424800  0.21878100  1
  K  K3  1  0.32595900  0.32020700  0.78121900  1
  K  K4  1  0.00575200  0.32595900  0.21878100  1
  K  K5  1  0.67979300  0.00575200  0.78121900  1
  Ce  Ce6  1  0.66666667  0.33333333  0.48948800  1
  Ce  Ce7  1  0.33333333  0.66666667  0.51051200  1
  Ce  Ce8  1  0.00000000  0.00000000  0.00000000  1
  N  N9  1  0.80083700  0.52610000  0.22345000  1
  N  N10  1  0.61549500  0.47562800  0.74800400  1
  N  N11  1  0.17727500  0.00970600  0.73319000  1
  N  N12  1  0.82272500  0.99029400  0.26681000  1
  N  N13  1  0.13986700  0.61549500  0.25199600  1
  N  N14  1  0.99029400  0.16756900  0.73319000  1
  N  N15  1  0.47390000  0.27473700  0.22345000  1
  N  N16  1  0.83243100  0.82272500  0.73319000  1
  N  N17  1  0.38450500  0.52437200  0.25199600  1
  N  N18  1  0.86013300  0.38450500  0.74800400  1
  N  N19  1  0.27473700  0.80083700  0.77655000  1
  N  N20  1  0.52437200  0.13986700  0.74800400  1
  N  N21  1  0.72526300  0.19916300  0.22345000  1
  N  N22  1  0.47562800  0.86013300  0.25199600  1
  N  N23  1  0.19916300  0.47390000  0.77655000  1
  N  N24  1  0.52610000  0.72526300  0.77655000  1
  N  N25  1  0.16756900  0.17727500  0.26681000  1
  N  N26  1  0.00970600  0.83243100  0.26681000  1
  O  O27  1  0.93679900  0.86191300  0.28477500  1
  O  O28  1  0.79923300  0.92559300  0.11660900  1
  O  O29  1  0.25004200  0.46596500  0.62442700  1
  O  O30  1  0.23019900  0.24852700  0.38246800  1
  O  O31  1  0.21592300  0.74995800  0.62442700  1
  O  O32  1  0.86918600  0.44901800  0.60431100  1
  O  O33  1  0.53345200  0.23514000  0.76797400  1
  O  O34  1  0.42016800  0.86918600  0.39568900  1
  O  O35  1  0.13808700  0.07488600  0.28477500  1
  O  O36  1  0.43384200  0.63690100  0.79935200  1
  O  O37  1  0.79694100  0.43384200  0.20064800  1
  O  O38  1  0.92559300  0.12636000  0.88339100  1
  O  O39  1  0.53403500  0.78407700  0.62442700  1
  O  O40  1  0.24852700  0.01832800  0.61753200  1
  O  O41  1  0.46654800  0.76486000  0.23202600  1
  O  O42  1  0.46742700  0.06178700  0.85761300  1
  O  O43  1  0.86191300  0.92511400  0.71522500  1
  O  O44  1  0.76980100  0.75147300  0.61753200  1
  O  O45  1  0.24445700  0.84857600  0.89197700  1
  O  O46  1  0.57983200  0.13081400  0.60431100  1
  O  O47  1  0.23514000  0.70168800  0.23202600  1
  O  O48  1  0.60411900  0.75554300  0.89197700  1
  O  O49  1  0.15142400  0.39588100  0.89197700  1
  O  O50  1  0.98167200  0.23019900  0.61753200  1
  O  O51  1  0.20305900  0.56615800  0.79935200  1
  O  O52  1  0.53257300  0.93821300  0.14238700  1
  O  O53  1  0.44901800  0.57983200  0.39568900  1
  O  O54  1  0.46596500  0.21592300  0.37557300  1
  O  O55  1  0.92511400  0.06320100  0.28477500  1
  O  O56  1  0.40564000  0.46742700  0.14238700  1
  O  O57  1  0.75554300  0.15142400  0.10802300  1
  O  O58  1  0.01832800  0.76980100  0.38246800  1
  O  O59  1  0.93821300  0.40564000  0.85761300  1
  O  O60  1  0.07488600  0.93679900  0.71522500  1
  O  O61  1  0.39588100  0.24445700  0.10802300  1
  O  O62  1  0.56615800  0.36309900  0.20064800  1
  O  O63  1  0.13081400  0.55098200  0.39568900  1
  O  O64  1  0.84857600  0.60411900  0.10802300  1
  O  O65  1  0.06320100  0.13808700  0.71522500  1
  O  O66  1  0.74995800  0.53403500  0.37557300  1
  O  O67  1  0.29831200  0.53345200  0.23202600  1
  O  O68  1  0.76486000  0.29831200  0.76797400  1
  O  O69  1  0.63690100  0.20305900  0.20064800  1
  O  O70  1  0.55098200  0.42016800  0.60431100  1
  O  O71  1  0.70168800  0.46654800  0.76797400  1
  O  O72  1  0.07440700  0.87364000  0.11660900  1
  O  O73  1  0.78407700  0.25004200  0.37557300  1
  O  O74  1  0.59436000  0.53257300  0.85761300  1
  O  O75  1  0.75147300  0.98167200  0.38246800  1
  O  O76  1  0.36309900  0.79694100  0.79935200  1
  O  O77  1  0.20076700  0.07440700  0.88339100  1
  O  O78  1  0.06178700  0.59436000  0.14238700  1
  O  O79  1  0.87364000  0.79923300  0.88339100  1
  O  O80  1  0.12636000  0.20076700  0.11660900  1
