# generated using pymatgen
data_Na2Cd(SO4)2
_symmetry_space_group_name_H-M   'P 1'
_cell_length_a   10.22472400
_cell_length_b   8.33823400
_cell_length_c   8.82700792
_cell_angle_alpha   90.00000000
_cell_angle_beta   114.62174811
_cell_angle_gamma   90.00000000
_symmetry_Int_Tables_number   1
_chemical_formula_structural   Na2Cd(SO4)2
_chemical_formula_sum   'Na8 Cd4 S8 O32'
_cell_volume   684.13270522
_cell_formula_units_Z   4
loop_
 _symmetry_equiv_pos_site_id
 _symmetry_equiv_pos_as_xyz
  1  'x, y, z'
loop_
 _atom_site_type_symbol
 _atom_site_label
 _atom_site_symmetry_multiplicity
 _atom_site_fract_x
 _atom_site_fract_y
 _atom_site_fract_z
 _atom_site_occupancy
  Na  Na0  1  0.13762400  0.44385100  0.43924900  1
  Na  Na1  1  0.86237600  0.55614900  0.56075100  1
  Na  Na2  1  0.86237600  0.44385100  0.06075100  1
  Na  Na3  1  0.13762400  0.55614900  0.93924900  1
  Na  Na4  1  0.63762400  0.94385100  0.43924900  1
  Na  Na5  1  0.36237600  0.05614900  0.56075100  1
  Na  Na6  1  0.36237600  0.94385100  0.06075100  1
  Na  Na7  1  0.63762400  0.05614900  0.93924900  1
  Cd  Cd8  1  0.00000000  0.93031000  0.25000000  1
  Cd  Cd9  1  0.00000000  0.06969000  0.75000000  1
  Cd  Cd10  1  0.50000000  0.43031000  0.25000000  1
  Cd  Cd11  1  0.50000000  0.56969000  0.75000000  1
  S  S12  1  0.81149400  0.21224600  0.31369000  1
  S  S13  1  0.18850600  0.21224600  0.18631000  1
  S  S14  1  0.18850600  0.78775400  0.68631000  1
  S  S15  1  0.81149400  0.78775400  0.81369000  1
  S  S16  1  0.31149400  0.71224600  0.31369000  1
  S  S17  1  0.68850600  0.71224600  0.18631000  1
  S  S18  1  0.68850600  0.28775400  0.68631000  1
  S  S19  1  0.31149400  0.28775400  0.81369000  1
  O  O20  1  0.15192300  0.72874700  0.25199600  1
  O  O21  1  0.63678850  0.40818550  0.54958700  1
  O  O22  1  0.65901900  0.35090800  0.82928800  1
  O  O23  1  0.84807700  0.27125300  0.74800400  1
  O  O24  1  0.63678850  0.59181450  0.04958700  1
  O  O25  1  0.11444150  0.36921650  0.13464200  1
  O  O26  1  0.88555850  0.36921650  0.36535800  1
  O  O27  1  0.11444150  0.63078350  0.63464200  1
  O  O28  1  0.36321150  0.40818550  0.95041300  1
  O  O29  1  0.34098100  0.35090800  0.67071200  1
  O  O30  1  0.84807700  0.72874700  0.24800400  1
  O  O31  1  0.34098100  0.64909200  0.17071200  1
  O  O32  1  0.15192300  0.27125300  0.75199600  1
  O  O33  1  0.65901900  0.64909200  0.32928800  1
  O  O34  1  0.88555850  0.63078350  0.86535800  1
  O  O35  1  0.36321150  0.59181450  0.45041300  1
  O  O36  1  0.65192300  0.22874700  0.25199600  1
  O  O37  1  0.13678850  0.90818550  0.54958700  1
  O  O38  1  0.15901900  0.85090800  0.82928800  1
  O  O39  1  0.34807700  0.77125300  0.74800400  1
  O  O40  1  0.13678850  0.09181450  0.04958700  1
  O  O41  1  0.61444150  0.86921650  0.13464200  1
  O  O42  1  0.38555850  0.86921650  0.36535800  1
  O  O43  1  0.61444150  0.13078350  0.63464200  1
  O  O44  1  0.86321150  0.90818550  0.95041300  1
  O  O45  1  0.84098100  0.85090800  0.67071200  1
  O  O46  1  0.34807700  0.22874700  0.24800400  1
  O  O47  1  0.84098100  0.14909200  0.17071200  1
  O  O48  1  0.65192300  0.77125300  0.75199600  1
  O  O49  1  0.15901900  0.14909200  0.32928800  1
  O  O50  1  0.38555850  0.13078350  0.86535800  1
  O  O51  1  0.86321150  0.09181450  0.45041300  1
