# generated using pymatgen
data_RbTa(PO4)2
_symmetry_space_group_name_H-M   'P 1'
_cell_length_a   8.75130400
_cell_length_b   5.28573600
_cell_length_c   8.58059031
_cell_angle_alpha   90.00000000
_cell_angle_beta   93.20217043
_cell_angle_gamma   90.00000000
_symmetry_Int_Tables_number   1
_chemical_formula_structural   RbTa(PO4)2
_chemical_formula_sum   'Rb2 Ta2 P4 O16'
_cell_volume   396.29335425
_cell_formula_units_Z   2
loop_
 _symmetry_equiv_pos_site_id
 _symmetry_equiv_pos_as_xyz
  1  'x, y, z'
loop_
 _atom_site_type_symbol
 _atom_site_label
 _atom_site_symmetry_multiplicity
 _atom_site_fract_x
 _atom_site_fract_y
 _atom_site_fract_z
 _atom_site_occupancy
  Rb  Rb0  1  0.00000000  0.00000000  0.00000000  1
  Rb  Rb1  1  0.50000000  0.50000000  0.00000000  1
  Ta  Ta2  1  0.00000000  0.00000000  0.50000000  1
  Ta  Ta3  1  0.50000000  0.50000000  0.50000000  1
  P  P4  1  0.35640600  0.00000000  0.70129300  1
  P  P5  1  0.64359400  0.00000000  0.29870700  1
  P  P6  1  0.85640600  0.50000000  0.70129300  1
  P  P7  1  0.14359400  0.50000000  0.29870700  1
  O  O8  1  0.68076800  0.00000000  0.13159100  1
  O  O9  1  0.45271050  0.23666250  0.65589600  1
  O  O10  1  0.54728950  0.76333750  0.34410400  1
  O  O11  1  0.45271050  0.76333750  0.65589600  1
  O  O12  1  0.54728950  0.23666250  0.34410400  1
  O  O13  1  0.31923200  0.00000000  0.86840900  1
  O  O14  1  0.78764800  0.00000000  0.41648800  1
  O  O15  1  0.21235200  0.00000000  0.58351200  1
  O  O16  1  0.18076800  0.50000000  0.13159100  1
  O  O17  1  0.95271050  0.73666250  0.65589600  1
  O  O18  1  0.04728950  0.26333750  0.34410400  1
  O  O19  1  0.95271050  0.26333750  0.65589600  1
  O  O20  1  0.04728950  0.73666250  0.34410400  1
  O  O21  1  0.81923200  0.50000000  0.86840900  1
  O  O22  1  0.28764800  0.50000000  0.41648800  1
  O  O23  1  0.71235200  0.50000000  0.58351200  1
