# generated using pymatgen
data_La3Si2Cl3O7
_symmetry_space_group_name_H-M   'P 1'
_cell_length_a   5.40827900
_cell_length_b   12.23751200
_cell_length_c   7.96672963
_cell_angle_alpha   90.00000000
_cell_angle_beta   108.92144208
_cell_angle_gamma   90.00000000
_symmetry_Int_Tables_number   1
_chemical_formula_structural   La3Si2Cl3O7
_chemical_formula_sum   'La6 Si4 Cl6 O14'
_cell_volume   498.77759749
_cell_formula_units_Z   2
loop_
 _symmetry_equiv_pos_site_id
 _symmetry_equiv_pos_as_xyz
  1  'x, y, z'
loop_
 _atom_site_type_symbol
 _atom_site_label
 _atom_site_symmetry_multiplicity
 _atom_site_fract_x
 _atom_site_fract_y
 _atom_site_fract_z
 _atom_site_occupancy
  La  La0  1  0.02323300  0.49444000  0.42133300  1
  La  La1  1  0.97676700  0.99444000  0.57866700  1
  La  La2  1  0.43867700  0.74778900  0.29994500  1
  La  La3  1  0.28720300  0.46922700  0.97045000  1
  La  La4  1  0.56132300  0.24778900  0.70005500  1
  La  La5  1  0.71279700  0.96922700  0.02955000  1
  Si  Si6  1  0.21599800  0.15666500  0.93524200  1
  Si  Si7  1  0.60844800  0.54450900  0.68334200  1
  Si  Si8  1  0.78400200  0.65666500  0.06475800  1
  Si  Si9  1  0.39155200  0.04450900  0.31665800  1
  Cl  Cl10  1  0.16056000  0.87032300  0.94041200  1
  Cl  Cl11  1  0.98625500  0.74668700  0.50590200  1
  Cl  Cl12  1  0.83944000  0.37032300  0.05958800  1
  Cl  Cl13  1  0.01374500  0.24668700  0.49409800  1
  Cl  Cl14  1  0.54341800  0.87609500  0.66460000  1
  Cl  Cl15  1  0.45658200  0.37609500  0.33540000  1
  O  O16  1  0.89992100  0.50376000  0.69099300  1
  O  O17  1  0.55796200  0.10690800  0.49810600  1
  O  O18  1  0.44203800  0.60690800  0.50189400  1
  O  O19  1  0.10007900  0.00376000  0.30900700  1
  O  O20  1  0.73112200  0.78390700  0.09662400  1
  O  O21  1  0.58844600  0.94294600  0.30393800  1
  O  O22  1  0.09078200  0.61834000  0.12741600  1
  O  O23  1  0.37973100  0.11726300  0.13888000  1
  O  O24  1  0.64180000  0.58924200  0.18997400  1
  O  O25  1  0.90921800  0.11834000  0.87258400  1
  O  O26  1  0.35820000  0.08924200  0.81002600  1
  O  O27  1  0.41155400  0.44294600  0.69606200  1
  O  O28  1  0.62026900  0.61726300  0.86112000  1
  O  O29  1  0.26887800  0.28390700  0.90337600  1
