# generated using pymatgen
data_FeS3N2Cl5
_symmetry_space_group_name_H-M   'P 1'
_cell_length_a   9.57696900
_cell_length_b   10.89677000
_cell_length_c   14.91544794
_cell_angle_alpha   90.00000000
_cell_angle_beta   128.24763465
_cell_angle_gamma   90.00000000
_symmetry_Int_Tables_number   1
_chemical_formula_structural   FeS3N2Cl5
_chemical_formula_sum   'Fe4 S12 N8 Cl20'
_cell_volume   1222.42229086
_cell_formula_units_Z   4
loop_
 _symmetry_equiv_pos_site_id
 _symmetry_equiv_pos_as_xyz
  1  'x, y, z'
loop_
 _atom_site_type_symbol
 _atom_site_label
 _atom_site_symmetry_multiplicity
 _atom_site_fract_x
 _atom_site_fract_y
 _atom_site_fract_z
 _atom_site_occupancy
  Fe  Fe0  1  0.78213700  0.63425200  0.30862800  1
  Fe  Fe1  1  0.21786300  0.13425200  0.19137200  1
  Fe  Fe2  1  0.21786300  0.36574800  0.69137200  1
  Fe  Fe3  1  0.78213700  0.86574800  0.80862800  1
  S  S4  1  0.33173300  0.76468900  0.38757100  1
  S  S5  1  0.66826700  0.26468900  0.11242900  1
  S  S6  1  0.15550000  0.74803500  0.19528200  1
  S  S7  1  0.15550000  0.75196500  0.69528200  1
  S  S8  1  0.84450000  0.25196500  0.80471800  1
  S  S9  1  0.66826700  0.23531100  0.61242900  1
  S  S10  1  0.32366500  0.96895700  0.80857400  1
  S  S11  1  0.33173300  0.73531100  0.88757100  1
  S  S12  1  0.32366500  0.53104300  0.30857400  1
  S  S13  1  0.84450000  0.24803500  0.30471800  1
  S  S14  1  0.67633500  0.46895700  0.69142600  1
  S  S15  1  0.67633500  0.03104300  0.19142600  1
  N  N16  1  0.63019400  0.37726400  0.59036500  1
  N  N17  1  0.20326800  0.60838000  0.19634500  1
  N  N18  1  0.63019400  0.12273600  0.09036500  1
  N  N19  1  0.36980600  0.62273600  0.40963500  1
  N  N20  1  0.20326800  0.89162000  0.69634500  1
  N  N21  1  0.79673200  0.39162000  0.80365500  1
  N  N22  1  0.79673200  0.10838000  0.30365500  1
  N  N23  1  0.36980600  0.87726400  0.90963500  1
  Cl  Cl24  1  0.55622300  0.64781700  0.91976900  1
  Cl  Cl25  1  0.25295800  0.47224400  0.58117800  1
  Cl  Cl26  1  0.74704200  0.97224400  0.91882200  1
  Cl  Cl27  1  0.03502500  0.29000100  0.09847600  1
  Cl  Cl28  1  0.88962600  0.98807200  0.74373000  1
  Cl  Cl29  1  0.47867100  0.20571000  0.33710600  1
  Cl  Cl30  1  0.88962600  0.51192800  0.24373000  1
  Cl  Cl31  1  0.52132900  0.79429000  0.66289400  1
  Cl  Cl32  1  0.74704200  0.52775600  0.41882200  1
  Cl  Cl33  1  0.96497500  0.70999900  0.90152400  1
  Cl  Cl34  1  0.47867100  0.29429000  0.83710600  1
  Cl  Cl35  1  0.52132900  0.70571000  0.16289400  1
  Cl  Cl36  1  0.55622300  0.85218300  0.41976900  1
  Cl  Cl37  1  0.11037400  0.01192800  0.25627000  1
  Cl  Cl38  1  0.96497500  0.79000100  0.40152400  1
  Cl  Cl39  1  0.03502500  0.20999900  0.59847600  1
  Cl  Cl40  1  0.44377700  0.35218300  0.08023100  1
  Cl  Cl41  1  0.44377700  0.14781700  0.58023100  1
  Cl  Cl42  1  0.11037400  0.48807200  0.75627000  1
  Cl  Cl43  1  0.25295800  0.02775600  0.08117800  1
