# generated using pymatgen
data_Al5C3N
_symmetry_space_group_name_H-M   'P 1'
_cell_length_a   3.30871004
_cell_length_b   3.30871004
_cell_length_c   21.82761500
_cell_angle_alpha   90.00000000
_cell_angle_beta   90.00000000
_cell_angle_gamma   120.00000000
_symmetry_Int_Tables_number   1
_chemical_formula_structural   Al5C3N
_chemical_formula_sum   'Al10 C6 N2'
_cell_volume   206.94471251
_cell_formula_units_Z   2
loop_
 _symmetry_equiv_pos_site_id
 _symmetry_equiv_pos_as_xyz
  1  'x, y, z'
loop_
 _atom_site_type_symbol
 _atom_site_label
 _atom_site_symmetry_multiplicity
 _atom_site_fract_x
 _atom_site_fract_y
 _atom_site_fract_z
 _atom_site_occupancy
  Al  Al0  1  0.00000000  0.00000000  0.65904300  1
  Al  Al1  1  0.33333333  0.66666667  0.04470400  1
  Al  Al2  1  0.33333333  0.66666667  0.26237000  1
  Al  Al3  1  0.66666667  0.33333333  0.95280900  1
  Al  Al4  1  0.66666667  0.33333333  0.54470400  1
  Al  Al5  1  0.00000000  0.00000000  0.84751800  1
  Al  Al6  1  0.00000000  0.00000000  0.15904300  1
  Al  Al7  1  0.33333333  0.66666667  0.45280900  1
  Al  Al8  1  0.66666667  0.33333333  0.76237000  1
  Al  Al9  1  0.00000000  0.00000000  0.34751800  1
  C  C10  1  0.00000000  0.00000000  0.24885600  1
  C  C11  1  0.33333333  0.66666667  0.36576900  1
  C  C12  1  0.00000000  0.00000000  0.74885600  1
  C  C13  1  0.00000000  0.00000000  0.50227000  1
  C  C14  1  0.66666667  0.33333333  0.86576900  1
  C  C15  1  0.00000000  0.00000000  0.00227000  1
  N  N16  1  0.33333333  0.66666667  0.12966000  1
  N  N17  1  0.66666667  0.33333333  0.62966000  1
