# generated using pymatgen
data_Ti(AlCl4)2
_symmetry_space_group_name_H-M   'P 1'
_cell_length_a   17.87755800
_cell_length_b   8.05240000
_cell_length_c   11.86050577
_cell_angle_alpha   90.00000000
_cell_angle_beta   128.78245316
_cell_angle_gamma   90.00000000
_symmetry_Int_Tables_number   1
_chemical_formula_structural   Ti(AlCl4)2
_chemical_formula_sum   'Ti4 Al8 Cl32'
_cell_volume   1330.97372370
_cell_formula_units_Z   4
loop_
 _symmetry_equiv_pos_site_id
 _symmetry_equiv_pos_as_xyz
  1  'x, y, z'
loop_
 _atom_site_type_symbol
 _atom_site_label
 _atom_site_symmetry_multiplicity
 _atom_site_fract_x
 _atom_site_fract_y
 _atom_site_fract_z
 _atom_site_occupancy
  Ti  Ti0  1  0.50000000  0.49747000  0.75000000  1
  Ti  Ti1  1  0.50000000  0.50253000  0.25000000  1
  Ti  Ti2  1  0.00000000  0.99747000  0.75000000  1
  Ti  Ti3  1  0.00000000  0.00253000  0.25000000  1
  Al  Al4  1  0.58774200  0.25545400  0.53197900  1
  Al  Al5  1  0.91225800  0.75545400  0.96802100  1
  Al  Al6  1  0.41225800  0.74454600  0.46802100  1
  Al  Al7  1  0.08774200  0.24454600  0.03197900  1
  Al  Al8  1  0.08774200  0.75545400  0.53197900  1
  Al  Al9  1  0.41225800  0.25545400  0.96802100  1
  Al  Al10  1  0.91225800  0.24454600  0.46802100  1
  Al  Al11  1  0.58774200  0.74454600  0.03197900  1
  Cl  Cl12  1  0.65948050  0.03663050  0.55225200  1
  Cl  Cl13  1  0.58377050  0.72933950  0.21318900  1
  Cl  Cl14  1  0.84051950  0.53663050  0.94774800  1
  Cl  Cl15  1  0.15948050  0.46336950  0.05225200  1
  Cl  Cl16  1  0.44165600  0.72748500  0.82631500  1
  Cl  Cl17  1  0.41622950  0.72933950  0.28681100  1
  Cl  Cl18  1  0.41622950  0.27066050  0.78681100  1
  Cl  Cl19  1  0.58377050  0.27066050  0.71318900  1
  Cl  Cl20  1  0.85126750  0.98201450  0.98334500  1
  Cl  Cl21  1  0.55834400  0.72748500  0.67368500  1
  Cl  Cl22  1  0.14873250  0.01798550  0.01665500  1
  Cl  Cl23  1  0.34051950  0.96336950  0.44774800  1
  Cl  Cl24  1  0.35126750  0.51798550  0.48334500  1
  Cl  Cl25  1  0.64873250  0.48201450  0.51665500  1
  Cl  Cl26  1  0.44165600  0.27251500  0.32631500  1
  Cl  Cl27  1  0.55834400  0.27251500  0.17368500  1
  Cl  Cl28  1  0.15948050  0.53663050  0.55225200  1
  Cl  Cl29  1  0.08377050  0.22933950  0.21318900  1
  Cl  Cl30  1  0.34051950  0.03663050  0.94774800  1
  Cl  Cl31  1  0.65948050  0.96336950  0.05225200  1
  Cl  Cl32  1  0.94165600  0.22748500  0.82631500  1
  Cl  Cl33  1  0.91622950  0.22933950  0.28681100  1
  Cl  Cl34  1  0.91622950  0.77066050  0.78681100  1
  Cl  Cl35  1  0.08377050  0.77066050  0.71318900  1
  Cl  Cl36  1  0.35126750  0.48201450  0.98334500  1
  Cl  Cl37  1  0.05834400  0.22748500  0.67368500  1
  Cl  Cl38  1  0.64873250  0.51798550  0.01665500  1
  Cl  Cl39  1  0.84051950  0.46336950  0.44774800  1
  Cl  Cl40  1  0.85126750  0.01798550  0.48334500  1
  Cl  Cl41  1  0.14873250  0.98201450  0.51665500  1
  Cl  Cl42  1  0.94165600  0.77251500  0.32631500  1
  Cl  Cl43  1  0.05834400  0.77251500  0.17368500  1
