# generated using pymatgen
data_K8NbAs5Pb
_symmetry_space_group_name_H-M   'P 1'
_cell_length_a   32.10309600
_cell_length_b   9.48042600
_cell_length_c   13.62018214
_cell_angle_alpha   90.00000000
_cell_angle_beta   95.07246606
_cell_angle_gamma   90.00000000
_symmetry_Int_Tables_number   1
_chemical_formula_structural   K8NbAs5Pb
_chemical_formula_sum   'K64 Nb8 As40 Pb8'
_cell_volume   4129.08197791
_cell_formula_units_Z   8
loop_
 _symmetry_equiv_pos_site_id
 _symmetry_equiv_pos_as_xyz
  1  'x, y, z'
loop_
 _atom_site_type_symbol
 _atom_site_label
 _atom_site_symmetry_multiplicity
 _atom_site_fract_x
 _atom_site_fract_y
 _atom_site_fract_z
 _atom_site_occupancy
  K  K0  1  0.82349950  0.53836850  0.28252100  1
  K  K1  1  0.54020450  0.47378350  0.61862900  1
  K  K2  1  0.93640700  0.67074600  0.28964400  1
  K  K3  1  0.76604500  0.04243600  0.94528000  1
  K  K4  1  0.51963300  0.88134600  0.39276700  1
  K  K5  1  0.73395500  0.45756400  0.05472000  1
  K  K6  1  0.67650050  0.96163150  0.71747900  1
  K  K7  1  0.85050000  0.32858700  0.04151500  1
  K  K8  1  0.67650050  0.03836850  0.21747900  1
  K  K9  1  0.88536900  0.95880300  0.10134900  1
  K  K10  1  0.85050000  0.67141300  0.54151500  1
  K  K11  1  0.95979550  0.97378350  0.88137100  1
  K  K12  1  0.61463100  0.54119700  0.89865100  1
  K  K13  1  0.64950000  0.82858700  0.45848500  1
  K  K14  1  0.64950000  0.17141300  0.95848500  1
  K  K15  1  0.77606200  0.15519400  0.66889300  1
  K  K16  1  0.61463100  0.45880300  0.39865100  1
  K  K17  1  0.51963300  0.11865400  0.89276700  1
  K  K18  1  0.98036700  0.38134600  0.10723300  1
  K  K19  1  0.88536900  0.04119700  0.60134900  1
  K  K20  1  0.77606200  0.84480600  0.16889300  1
  K  K21  1  0.56359300  0.82925400  0.71035600  1
  K  K22  1  0.72393800  0.65519400  0.83110700  1
  K  K23  1  0.98036700  0.61865400  0.60723300  1
  K  K24  1  0.73395500  0.54243600  0.55472000  1
  K  K25  1  0.76604500  0.95756400  0.44528000  1
  K  K26  1  0.54020450  0.52621650  0.11862900  1
  K  K27  1  0.56359300  0.17074600  0.21035600  1
  K  K28  1  0.72393800  0.34480600  0.33110700  1
  K  K29  1  0.82349950  0.46163150  0.78252100  1
  K  K30  1  0.95979550  0.02621650  0.38137100  1
  K  K31  1  0.93640700  0.32925400  0.78964400  1
  K  K32  1  0.32349950  0.03836850  0.28252100  1
  K  K33  1  0.04020450  0.97378350  0.61862900  1
  K  K34  1  0.43640700  0.17074600  0.28964400  1
  K  K35  1  0.26604500  0.54243600  0.94528000  1
  K  K36  1  0.01963300  0.38134600  0.39276700  1
  K  K37  1  0.23395500  0.95756400  0.05472000  1
  K  K38  1  0.17650050  0.46163150  0.71747900  1
  K  K39  1  0.35050000  0.82858700  0.04151500  1
  K  K40  1  0.17650050  0.53836850  0.21747900  1
  K  K41  1  0.38536900  0.45880300  0.10134900  1
  K  K42  1  0.35050000  0.17141300  0.54151500  1
  K  K43  1  0.45979550  0.47378350  0.88137100  1
  K  K44  1  0.11463100  0.04119700  0.89865100  1
  K  K45  1  0.14950000  0.32858700  0.45848500  1
  K  K46  1  0.14950000  0.67141300  0.95848500  1
  K  K47  1  0.27606200  0.65519400  0.66889300  1
  K  K48  1  0.11463100  0.95880300  0.39865100  1
  K  K49  1  0.01963300  0.61865400  0.89276700  1
  K  K50  1  0.48036700  0.88134600  0.10723300  1
  K  K51  1  0.38536900  0.54119700  0.60134900  1
  K  K52  1  0.27606200  0.34480600  0.16889300  1
  K  K53  1  0.06359300  0.32925400  0.71035600  1
  K  K54  1  0.22393800  0.15519400  0.83110700  1
  K  K55  1  0.48036700  0.11865400  0.60723300  1
  K  K56  1  0.23395500  0.04243600  0.55472000  1
  K  K57  1  0.26604500  0.45756400  0.44528000  1
  K  K58  1  0.04020450  0.02621650  0.11862900  1
  K  K59  1  0.06359300  0.67074600  0.21035600  1
  K  K60  1  0.22393800  0.84480600  0.33110700  1
  K  K61  1  0.32349950  0.96163150  0.78252100  1
  K  K62  1  0.45979550  0.52621650  0.38137100  1
  K  K63  1  0.43640700  0.82925400  0.78964400  1
  Nb  Nb64  1  0.65687050  0.66058150  0.18217500  1
  Nb  Nb65  1  0.65687050  0.33941850  0.68217500  1
  Nb  Nb66  1  0.84312950  0.83941850  0.81782500  1
  Nb  Nb67  1  0.84312950  0.16058150  0.31782500  1
  Nb  Nb68  1  0.15687050  0.16058150  0.18217500  1
  Nb  Nb69  1  0.15687050  0.83941850  0.68217500  1
  Nb  Nb70  1  0.34312950  0.33941850  0.81782500  1
  Nb  Nb71  1  0.34312950  0.66058150  0.31782500  1
  As  As72  1  0.85844900  0.90451600  0.35037900  1
  As  As73  1  0.78487300  0.81358800  0.68568300  1
  As  As74  1  0.67635650  0.79417050  0.02802100  1
  As  As75  1  0.82364350  0.29417050  0.47197900  1
  As  As76  1  0.59346850  0.20785250  0.73769100  1
  As  As77  1  0.71512700  0.31358800  0.81431700  1
  As  As78  1  0.52843750  0.74235850  0.92184300  1
  As  As79  1  0.97156250  0.24235850  0.57815700  1
  As  As80  1  0.52843750  0.25764150  0.42184300  1
  As  As81  1  0.85844900  0.09548400  0.85037900  1
  As  As82  1  0.59346850  0.79214750  0.23769100  1
  As  As83  1  0.71512700  0.68641200  0.31431700  1
  As  As84  1  0.78487300  0.18641200  0.18568300  1
  As  As85  1  0.64155100  0.40451600  0.14962100  1
  As  As86  1  0.97156250  0.75764150  0.07815700  1
  As  As87  1  0.82364350  0.70582950  0.97197900  1
  As  As88  1  0.67635650  0.20582950  0.52802100  1
  As  As89  1  0.90653150  0.70785250  0.76230900  1
  As  As90  1  0.64155100  0.59548400  0.64962100  1
  As  As91  1  0.90653150  0.29214750  0.26230900  1
  As  As92  1  0.35844900  0.40451600  0.35037900  1
  As  As93  1  0.28487300  0.31358800  0.68568300  1
  As  As94  1  0.17635650  0.29417050  0.02802100  1
  As  As95  1  0.32364350  0.79417050  0.47197900  1
  As  As96  1  0.09346850  0.70785250  0.73769100  1
  As  As97  1  0.21512700  0.81358800  0.81431700  1
  As  As98  1  0.02843750  0.24235850  0.92184300  1
  As  As99  1  0.47156250  0.74235850  0.57815700  1
  As  As100  1  0.02843750  0.75764150  0.42184300  1
  As  As101  1  0.35844900  0.59548400  0.85037900  1
  As  As102  1  0.09346850  0.29214750  0.23769100  1
  As  As103  1  0.21512700  0.18641200  0.31431700  1
  As  As104  1  0.28487300  0.68641200  0.18568300  1
  As  As105  1  0.14155100  0.90451600  0.14962100  1
  As  As106  1  0.47156250  0.25764150  0.07815700  1
  As  As107  1  0.32364350  0.20582950  0.97197900  1
  As  As108  1  0.17635650  0.70582950  0.52802100  1
  As  As109  1  0.40653150  0.20785250  0.76230900  1
  As  As110  1  0.14155100  0.09548400  0.64962100  1
  As  As111  1  0.40653150  0.79214750  0.26230900  1
  Pb  Pb112  1  0.90960800  0.61511900  0.96433600  1
  Pb  Pb113  1  0.59039200  0.88488100  0.03566400  1
  Pb  Pb114  1  0.90960800  0.38488100  0.46433600  1
  Pb  Pb115  1  0.59039200  0.11511900  0.53566400  1
  Pb  Pb116  1  0.40960800  0.11511900  0.96433600  1
  Pb  Pb117  1  0.09039200  0.38488100  0.03566400  1
  Pb  Pb118  1  0.40960800  0.88488100  0.46433600  1
  Pb  Pb119  1  0.09039200  0.61511900  0.53566400  1
