# generated using pymatgen
data_BaPr2Ti3O10
_symmetry_space_group_name_H-M   'P 1'
_cell_length_a   3.93426600
_cell_length_b   28.66198800
_cell_length_c   7.70464200
_cell_angle_alpha   90.00000000
_cell_angle_beta   90.00000000
_cell_angle_gamma   90.00000000
_symmetry_Int_Tables_number   1
_chemical_formula_structural   BaPr2Ti3O10
_chemical_formula_sum   'Ba4 Pr8 Ti12 O40'
_cell_volume   868.80536354
_cell_formula_units_Z   4
loop_
 _symmetry_equiv_pos_site_id
 _symmetry_equiv_pos_as_xyz
  1  'x, y, z'
loop_
 _atom_site_type_symbol
 _atom_site_label
 _atom_site_symmetry_multiplicity
 _atom_site_fract_x
 _atom_site_fract_y
 _atom_site_fract_z
 _atom_site_occupancy
  Ba  Ba0  1  0.50000000  0.75933500  0.25000000  1
  Ba  Ba1  1  0.00000000  0.74066500  0.75000000  1
  Ba  Ba2  1  0.00000000  0.25933500  0.25000000  1
  Ba  Ba3  1  0.50000000  0.24066500  0.75000000  1
  Pr  Pr4  1  0.00000000  0.57258300  0.75000000  1
  Pr  Pr5  1  0.50000000  0.92741700  0.25000000  1
  Pr  Pr6  1  0.50000000  0.92042800  0.75000000  1
  Pr  Pr7  1  0.00000000  0.57957200  0.25000000  1
  Pr  Pr8  1  0.50000000  0.07258300  0.75000000  1
  Pr  Pr9  1  0.00000000  0.42741700  0.25000000  1
  Pr  Pr10  1  0.00000000  0.42042800  0.75000000  1
  Pr  Pr11  1  0.50000000  0.07957200  0.25000000  1
  Ti  Ti12  1  0.50000000  0.64579700  0.99584900  1
  Ti  Ti13  1  0.00000000  0.85420300  0.00415100  1
  Ti  Ti14  1  0.50000000  0.64579700  0.50415100  1
  Ti  Ti15  1  0.00000000  0.00000000  0.00000000  1
  Ti  Ti16  1  0.00000000  0.85420300  0.49584900  1
  Ti  Ti17  1  0.00000000  0.00000000  0.50000000  1
  Ti  Ti18  1  0.00000000  0.14579700  0.99584900  1
  Ti  Ti19  1  0.50000000  0.35420300  0.00415100  1
  Ti  Ti20  1  0.00000000  0.14579700  0.50415100  1
  Ti  Ti21  1  0.50000000  0.50000000  0.00000000  1
  Ti  Ti22  1  0.50000000  0.35420300  0.49584900  1
  Ti  Ti23  1  0.50000000  0.50000000  0.50000000  1
  O  O24  1  0.00000000  0.79316500  0.04265000  1
  O  O25  1  0.50000000  0.70683500  0.95735000  1
  O  O26  1  0.50000000  0.86903600  0.49285800  1
  O  O27  1  0.00000000  0.98397500  0.25000000  1
  O  O28  1  0.50000000  0.56632000  0.04957100  1
  O  O29  1  0.00000000  0.63096400  0.50714200  1
  O  O30  1  0.50000000  0.51602500  0.75000000  1
  O  O31  1  0.00000000  0.87676600  0.25000000  1
  O  O32  1  0.50000000  0.70683500  0.54265000  1
  O  O33  1  0.50000000  0.00000000  0.00000000  1
  O  O34  1  0.00000000  0.63096400  0.99285800  1
  O  O35  1  0.00000000  0.93368000  0.54957100  1
  O  O36  1  0.50000000  0.86903600  0.00714200  1
  O  O37  1  0.50000000  0.56632000  0.45042900  1
  O  O38  1  0.00000000  0.79316500  0.45735000  1
  O  O39  1  0.00000000  0.93368000  0.95042900  1
  O  O40  1  0.50000000  0.64465300  0.25000000  1
  O  O41  1  0.50000000  0.62323400  0.75000000  1
  O  O42  1  0.50000000  0.00000000  0.50000000  1
  O  O43  1  0.00000000  0.85534700  0.75000000  1
  O  O44  1  0.50000000  0.29316500  0.04265000  1
  O  O45  1  0.00000000  0.20683500  0.95735000  1
  O  O46  1  0.00000000  0.36903600  0.49285800  1
  O  O47  1  0.50000000  0.48397500  0.25000000  1
  O  O48  1  0.00000000  0.06632000  0.04957100  1
  O  O49  1  0.50000000  0.13096400  0.50714200  1
  O  O50  1  0.00000000  0.01602500  0.75000000  1
  O  O51  1  0.50000000  0.37676600  0.25000000  1
  O  O52  1  0.00000000  0.20683500  0.54265000  1
  O  O53  1  0.00000000  0.50000000  0.00000000  1
  O  O54  1  0.50000000  0.13096400  0.99285800  1
  O  O55  1  0.50000000  0.43368000  0.54957100  1
  O  O56  1  0.00000000  0.36903600  0.00714200  1
  O  O57  1  0.00000000  0.06632000  0.45042900  1
  O  O58  1  0.50000000  0.29316500  0.45735000  1
  O  O59  1  0.50000000  0.43368000  0.95042900  1
  O  O60  1  0.00000000  0.14465300  0.25000000  1
  O  O61  1  0.00000000  0.12323400  0.75000000  1
  O  O62  1  0.00000000  0.50000000  0.50000000  1
  O  O63  1  0.50000000  0.35534700  0.75000000  1
