# generated using pymatgen
data_Ba4Al2O7
_symmetry_space_group_name_H-M   'P 1'
_cell_length_a   11.41580600
_cell_length_b   11.88103200
_cell_length_c   27.58331100
_cell_angle_alpha   90.00000000
_cell_angle_beta   90.00000000
_cell_angle_gamma   90.00000000
_symmetry_Int_Tables_number   1
_chemical_formula_structural   Ba4Al2O7
_chemical_formula_sum   'Ba64 Al32 O112'
_cell_volume   3741.16740137
_cell_formula_units_Z   16
loop_
 _symmetry_equiv_pos_site_id
 _symmetry_equiv_pos_as_xyz
  1  'x, y, z'
loop_
 _atom_site_type_symbol
 _atom_site_label
 _atom_site_symmetry_multiplicity
 _atom_site_fract_x
 _atom_site_fract_y
 _atom_site_fract_z
 _atom_site_occupancy
  Ba  Ba0  1  0.28100600  0.74806200  0.08850900  1
  Ba  Ba1  1  0.20052600  0.00000000  0.00000000  1
  Ba  Ba2  1  0.50000000  0.99418150  0.60374500  1
  Ba  Ba3  1  0.50000000  0.49865700  0.56933500  1
  Ba  Ba4  1  0.50000000  0.75562500  0.33234300  1
  Ba  Ba5  1  0.50000000  0.49418150  0.89625500  1
  Ba  Ba6  1  0.25000000  0.21958500  0.75000000  1
  Ba  Ba7  1  0.71899400  0.75193800  0.58850900  1
  Ba  Ba8  1  0.25000000  0.78041500  0.25000000  1
  Ba  Ba9  1  0.75000000  0.21958500  0.75000000  1
  Ba  Ba10  1  0.70052600  0.00000000  0.50000000  1
  Ba  Ba11  1  0.50000000  0.50134300  0.43066500  1
  Ba  Ba12  1  0.50000000  0.02620200  0.25060200  1
  Ba  Ba13  1  0.50000000  0.25562500  0.16765700  1
  Ba  Ba14  1  0.71899400  0.24806200  0.41149100  1
  Ba  Ba15  1  0.50000000  0.97379800  0.74939800  1
  Ba  Ba16  1  0.50000000  0.47379800  0.75060200  1
  Ba  Ba17  1  0.50000000  0.50581850  0.10374500  1
  Ba  Ba18  1  0.50000000  0.52620200  0.24939800  1
  Ba  Ba19  1  0.50000000  0.24437500  0.66765700  1
  Ba  Ba20  1  0.50000000  0.74437500  0.83234300  1
  Ba  Ba21  1  0.28100600  0.75193800  0.58850900  1
  Ba  Ba22  1  0.50000000  0.00134300  0.06933500  1
  Ba  Ba23  1  0.71899400  0.74806200  0.08850900  1
  Ba  Ba24  1  0.71899400  0.25193800  0.91149100  1
  Ba  Ba25  1  0.29947400  0.00000000  0.50000000  1
  Ba  Ba26  1  0.50000000  0.99865700  0.93066500  1
  Ba  Ba27  1  0.28100600  0.25193800  0.91149100  1
  Ba  Ba28  1  0.28100600  0.24806200  0.41149100  1
  Ba  Ba29  1  0.75000000  0.78041500  0.25000000  1
  Ba  Ba30  1  0.79947400  0.00000000  0.00000000  1
  Ba  Ba31  1  0.50000000  0.00581850  0.39625500  1
  Ba  Ba32  1  0.78100600  0.24806200  0.08850900  1
  Ba  Ba33  1  0.70052600  0.50000000  0.00000000  1
  Ba  Ba34  1  0.00000000  0.49418150  0.60374500  1
  Ba  Ba35  1  0.00000000  0.99865700  0.56933500  1
  Ba  Ba36  1  0.00000000  0.25562500  0.33234300  1
  Ba  Ba37  1  0.00000000  0.99418150  0.89625500  1
  Ba  Ba38  1  0.75000000  0.71958500  0.75000000  1
  Ba  Ba39  1  0.21899400  0.25193800  0.58850900  1
  Ba  Ba40  1  0.75000000  0.28041500  0.25000000  1
  Ba  Ba41  1  0.25000000  0.71958500  0.75000000  1
  Ba  Ba42  1  0.20052600  0.50000000  0.50000000  1
  Ba  Ba43  1  0.00000000  0.00134300  0.43066500  1
  Ba  Ba44  1  0.00000000  0.52620200  0.25060200  1
  Ba  Ba45  1  0.00000000  0.75562500  0.16765700  1
  Ba  Ba46  1  0.21899400  0.74806200  0.41149100  1
  Ba  Ba47  1  0.00000000  0.47379800  0.74939800  1
  Ba  Ba48  1  0.00000000  0.97379800  0.75060200  1
  Ba  Ba49  1  0.00000000  0.00581850  0.10374500  1
  Ba  Ba50  1  0.00000000  0.02620200  0.24939800  1
  Ba  Ba51  1  0.00000000  0.74437500  0.66765700  1
  Ba  Ba52  1  0.00000000  0.24437500  0.83234300  1
  Ba  Ba53  1  0.78100600  0.25193800  0.58850900  1
  Ba  Ba54  1  0.00000000  0.50134300  0.06933500  1
  Ba  Ba55  1  0.21899400  0.24806200  0.08850900  1
  Ba  Ba56  1  0.21899400  0.75193800  0.91149100  1
  Ba  Ba57  1  0.79947400  0.50000000  0.50000000  1
  Ba  Ba58  1  0.00000000  0.49865700  0.93066500  1
  Ba  Ba59  1  0.78100600  0.75193800  0.91149100  1
  Ba  Ba60  1  0.78100600  0.74806200  0.41149100  1
  Ba  Ba61  1  0.25000000  0.28041500  0.25000000  1
  Ba  Ba62  1  0.29947400  0.50000000  0.00000000  1
  Ba  Ba63  1  0.00000000  0.50581850  0.39625500  1
  Al  Al64  1  0.50000000  0.80554400  0.17444900  1
  Al  Al65  1  0.23347500  0.00033800  0.34132000  1
  Al  Al66  1  0.76652500  0.99966200  0.65868000  1
  Al  Al67  1  0.73347500  0.00033800  0.15868000  1
  Al  Al68  1  0.50000000  0.23709100  0.00853200  1
  Al  Al69  1  0.26652500  0.00033800  0.15868000  1
  Al  Al70  1  0.50000000  0.69445600  0.67444900  1
  Al  Al71  1  0.76652500  0.00033800  0.34132000  1
  Al  Al72  1  0.50000000  0.30554400  0.32555100  1
  Al  Al73  1  0.50000000  0.76290900  0.99146800  1
  Al  Al74  1  0.50000000  0.73709100  0.49146800  1
  Al  Al75  1  0.50000000  0.26290900  0.50853200  1
  Al  Al76  1  0.50000000  0.19445600  0.82555100  1
  Al  Al77  1  0.23347500  0.99966200  0.65868000  1
  Al  Al78  1  0.73347500  0.99966200  0.84132000  1
  Al  Al79  1  0.26652500  0.99966200  0.84132000  1
  Al  Al80  1  0.00000000  0.30554400  0.17444900  1
  Al  Al81  1  0.73347500  0.50033800  0.34132000  1
  Al  Al82  1  0.26652500  0.49966200  0.65868000  1
  Al  Al83  1  0.23347500  0.50033800  0.15868000  1
  Al  Al84  1  0.00000000  0.73709100  0.00853200  1
  Al  Al85  1  0.76652500  0.50033800  0.15868000  1
  Al  Al86  1  0.00000000  0.19445600  0.67444900  1
  Al  Al87  1  0.26652500  0.50033800  0.34132000  1
  Al  Al88  1  0.00000000  0.80554400  0.32555100  1
  Al  Al89  1  0.00000000  0.26290900  0.99146800  1
  Al  Al90  1  0.00000000  0.23709100  0.49146800  1
  Al  Al91  1  0.00000000  0.76290900  0.50853200  1
  Al  Al92  1  0.00000000  0.69445600  0.82555100  1
  Al  Al93  1  0.73347500  0.49966200  0.65868000  1
  Al  Al94  1  0.23347500  0.49966200  0.84132000  1
  Al  Al95  1  0.76652500  0.49966200  0.84132000  1
  O  O96  1  0.50000000  0.25181000  0.76642800  1
  O  O97  1  0.50000000  0.71581800  0.12402000  1
  O  O98  1  0.50000000  0.24808900  0.07388800  1
  O  O99  1  0.62449700  0.10520400  0.83100800  1
  O  O100  1  0.37644200  0.35016600  0.49102600  1
  O  O101  1  0.31471650  0.86874450  0.81828100  1
  O  O102  1  0.50000000  0.24819000  0.26642800  1
  O  O103  1  0.62355800  0.14983400  0.99102600  1
  O  O104  1  0.74589650  0.01253650  0.40591300  1
  O  O105  1  0.37644200  0.14983400  0.99102600  1
  O  O106  1  0.63693400  0.05898300  0.68340800  1
  O  O107  1  0.50000000  0.62749800  0.01881400  1
  O  O108  1  0.87550300  0.10520400  0.66899200  1
  O  O109  1  0.50000000  0.78418200  0.62402000  1
  O  O110  1  0.50000000  0.74808900  0.42611200  1
  O  O111  1  0.74589650  0.98746350  0.59408700  1
  O  O112  1  0.87550300  0.89479600  0.33100800  1
  O  O113  1  0.68528350  0.13125550  0.18171900  1
  O  O114  1  0.62449700  0.89479600  0.16899200  1
  O  O115  1  0.50000000  0.28418200  0.87598000  1
  O  O116  1  0.37550300  0.10520400  0.83100800  1
  O  O117  1  0.50000000  0.75191100  0.92611200  1
  O  O118  1  0.31471650  0.13125550  0.18171900  1
  O  O119  1  0.81471650  0.13125550  0.31828100  1
  O  O120  1  0.86306600  0.05898300  0.81659200  1
  O  O121  1  0.13693400  0.94101700  0.18340800  1
  O  O122  1  0.24589650  0.01253650  0.09408700  1
  O  O123  1  0.13693400  0.05898300  0.81659200  1
  O  O124  1  0.68528350  0.86874450  0.81828100  1
  O  O125  1  0.12449700  0.89479600  0.33100800  1
  O  O126  1  0.18528350  0.86874450  0.68171900  1
  O  O127  1  0.62355800  0.85016600  0.00897400  1
  O  O128  1  0.62355800  0.64983400  0.50897400  1
  O  O129  1  0.25410350  0.98746350  0.59408700  1
  O  O130  1  0.50000000  0.12749800  0.48118600  1
  O  O131  1  0.50000000  0.37250200  0.98118600  1
  O  O132  1  0.50000000  0.74819000  0.23357200  1
  O  O133  1  0.75410350  0.01253650  0.09408700  1
  O  O134  1  0.24589650  0.98746350  0.90591300  1
  O  O135  1  0.37644200  0.85016600  0.00897400  1
  O  O136  1  0.62355800  0.35016600  0.49102600  1
  O  O137  1  0.75410350  0.98746350  0.90591300  1
  O  O138  1  0.12449700  0.10520400  0.66899200  1
  O  O139  1  0.86306600  0.94101700  0.18340800  1
  O  O140  1  0.50000000  0.75181000  0.73357200  1
  O  O141  1  0.18528350  0.13125550  0.31828100  1
  O  O142  1  0.25410350  0.01253650  0.40591300  1
  O  O143  1  0.50000000  0.25191100  0.57388800  1
  O  O144  1  0.50000000  0.87250200  0.51881400  1
  O  O145  1  0.36306600  0.94101700  0.31659200  1
  O  O146  1  0.36306600  0.05898300  0.68340800  1
  O  O147  1  0.50000000  0.21581800  0.37598000  1
  O  O148  1  0.81471650  0.86874450  0.68171900  1
  O  O149  1  0.37644200  0.64983400  0.50897400  1
  O  O150  1  0.63693400  0.94101700  0.31659200  1
  O  O151  1  0.37550300  0.89479600  0.16899200  1
  O  O152  1  0.00000000  0.75181000  0.76642800  1
  O  O153  1  0.00000000  0.21581800  0.12402000  1
  O  O154  1  0.00000000  0.74808900  0.07388800  1
  O  O155  1  0.12449700  0.60520400  0.83100800  1
  O  O156  1  0.87644200  0.85016600  0.49102600  1
  O  O157  1  0.81471650  0.36874450  0.81828100  1
  O  O158  1  0.00000000  0.74819000  0.26642800  1
  O  O159  1  0.12355800  0.64983400  0.99102600  1
  O  O160  1  0.24589650  0.51253650  0.40591300  1
  O  O161  1  0.87644200  0.64983400  0.99102600  1
  O  O162  1  0.13693400  0.55898300  0.68340800  1
  O  O163  1  0.00000000  0.12749800  0.01881400  1
  O  O164  1  0.37550300  0.60520400  0.66899200  1
  O  O165  1  0.00000000  0.28418200  0.62402000  1
  O  O166  1  0.00000000  0.24808900  0.42611200  1
  O  O167  1  0.24589650  0.48746350  0.59408700  1
  O  O168  1  0.37550300  0.39479600  0.33100800  1
  O  O169  1  0.18528350  0.63125550  0.18171900  1
  O  O170  1  0.12449700  0.39479600  0.16899200  1
  O  O171  1  0.00000000  0.78418200  0.87598000  1
  O  O172  1  0.87550300  0.60520400  0.83100800  1
  O  O173  1  0.00000000  0.25191100  0.92611200  1
  O  O174  1  0.81471650  0.63125550  0.18171900  1
  O  O175  1  0.31471650  0.63125550  0.31828100  1
  O  O176  1  0.36306600  0.55898300  0.81659200  1
  O  O177  1  0.63693400  0.44101700  0.18340800  1
  O  O178  1  0.74589650  0.51253650  0.09408700  1
  O  O179  1  0.63693400  0.55898300  0.81659200  1
  O  O180  1  0.18528350  0.36874450  0.81828100  1
  O  O181  1  0.62449700  0.39479600  0.33100800  1
  O  O182  1  0.68528350  0.36874450  0.68171900  1
  O  O183  1  0.12355800  0.35016600  0.00897400  1
  O  O184  1  0.12355800  0.14983400  0.50897400  1
  O  O185  1  0.75410350  0.48746350  0.59408700  1
  O  O186  1  0.00000000  0.62749800  0.48118600  1
  O  O187  1  0.00000000  0.87250200  0.98118600  1
  O  O188  1  0.00000000  0.24819000  0.23357200  1
  O  O189  1  0.25410350  0.51253650  0.09408700  1
  O  O190  1  0.74589650  0.48746350  0.90591300  1
  O  O191  1  0.87644200  0.35016600  0.00897400  1
  O  O192  1  0.12355800  0.85016600  0.49102600  1
  O  O193  1  0.25410350  0.48746350  0.90591300  1
  O  O194  1  0.62449700  0.60520400  0.66899200  1
  O  O195  1  0.36306600  0.44101700  0.18340800  1
  O  O196  1  0.00000000  0.25181000  0.73357200  1
  O  O197  1  0.68528350  0.63125550  0.31828100  1
  O  O198  1  0.75410350  0.51253650  0.40591300  1
  O  O199  1  0.00000000  0.75191100  0.57388800  1
  O  O200  1  0.00000000  0.37250200  0.51881400  1
  O  O201  1  0.86306600  0.44101700  0.31659200  1
  O  O202  1  0.86306600  0.55898300  0.68340800  1
  O  O203  1  0.00000000  0.71581800  0.37598000  1
  O  O204  1  0.31471650  0.36874450  0.68171900  1
  O  O205  1  0.87644200  0.14983400  0.50897400  1
  O  O206  1  0.13693400  0.44101700  0.31659200  1
  O  O207  1  0.87550300  0.39479600  0.16899200  1
