# generated using pymatgen
data_RbH4SNO4
_symmetry_space_group_name_H-M   'P 1'
_cell_length_a   6.22972200
_cell_length_b   7.75987500
_cell_length_c   10.85850900
_cell_angle_alpha   90.00000000
_cell_angle_beta   90.00000000
_cell_angle_gamma   90.00000000
_symmetry_Int_Tables_number   1
_chemical_formula_structural   RbH4SNO4
_chemical_formula_sum   'Rb4 H16 S4 N4 O16'
_cell_volume   524.92056537
_cell_formula_units_Z   4
loop_
 _symmetry_equiv_pos_site_id
 _symmetry_equiv_pos_as_xyz
  1  'x, y, z'
loop_
 _atom_site_type_symbol
 _atom_site_label
 _atom_site_symmetry_multiplicity
 _atom_site_fract_x
 _atom_site_fract_y
 _atom_site_fract_z
 _atom_site_occupancy
  Rb  Rb0  1  0.75000000  0.82326100  0.60482800  1
  Rb  Rb1  1  0.25000000  0.67673900  0.10482800  1
  Rb  Rb2  1  0.75000000  0.32326100  0.89517200  1
  Rb  Rb3  1  0.25000000  0.17673900  0.39517200  1
  H  H4  1  0.75000000  0.03361800  0.29149000  1
  H  H5  1  0.38369100  0.87838600  0.82814500  1
  H  H6  1  0.25000000  0.96638200  0.70851000  1
  H  H7  1  0.25000000  0.06999400  0.84836600  1
  H  H8  1  0.88369100  0.12161400  0.17185500  1
  H  H9  1  0.88369100  0.62161400  0.32814500  1
  H  H10  1  0.61630900  0.62161400  0.32814500  1
  H  H11  1  0.38369100  0.37838600  0.67185500  1
  H  H12  1  0.75000000  0.43000600  0.34836600  1
  H  H13  1  0.11630900  0.87838600  0.82814500  1
  H  H14  1  0.75000000  0.93000600  0.15163400  1
  H  H15  1  0.25000000  0.46638200  0.79149000  1
  H  H16  1  0.61630900  0.12161400  0.17185500  1
  H  H17  1  0.11630900  0.37838600  0.67185500  1
  H  H18  1  0.75000000  0.53361800  0.20851000  1
  H  H19  1  0.25000000  0.56999400  0.65163400  1
  S  S20  1  0.25000000  0.22631600  0.06829600  1
  S  S21  1  0.75000000  0.27368400  0.56829600  1
  S  S22  1  0.25000000  0.72631600  0.43170400  1
  S  S23  1  0.75000000  0.77368400  0.93170400  1
  N  N24  1  0.25000000  0.95096300  0.80242900  1
  N  N25  1  0.75000000  0.54903700  0.30242900  1
  N  N26  1  0.75000000  0.04903700  0.19757100  1
  N  N27  1  0.25000000  0.45096300  0.69757100  1
  O  O28  1  0.75000000  0.23737000  0.43193200  1
  O  O29  1  0.94662600  0.69369000  0.87569300  1
  O  O30  1  0.25000000  0.53851500  0.40802800  1
  O  O31  1  0.94662600  0.19369000  0.62430700  1
  O  O32  1  0.55337400  0.69369000  0.87569300  1
  O  O33  1  0.44662600  0.80631000  0.37569300  1
  O  O34  1  0.25000000  0.03851500  0.09197200  1
  O  O35  1  0.55337400  0.19369000  0.62430700  1
  O  O36  1  0.75000000  0.73737000  0.06806800  1
  O  O37  1  0.75000000  0.46148500  0.59197200  1
  O  O38  1  0.05337400  0.30631000  0.12430700  1
  O  O39  1  0.25000000  0.26263000  0.93193200  1
  O  O40  1  0.75000000  0.96148500  0.90802800  1
  O  O41  1  0.44662600  0.30631000  0.12430700  1
  O  O42  1  0.25000000  0.76263000  0.56806800  1
  O  O43  1  0.05337400  0.80631000  0.37569300  1
