# generated using pymatgen
data_PdSeO3
_symmetry_space_group_name_H-M   'P 1'
_cell_length_a   7.23584000
_cell_length_b   7.12569000
_cell_length_c   7.26816561
_cell_angle_alpha   90.00000000
_cell_angle_beta   119.17954027
_cell_angle_gamma   90.00000000
_symmetry_Int_Tables_number   1
_chemical_formula_structural   PdSeO3
_chemical_formula_sum   'Pd4 Se4 O12'
_cell_volume   327.19209883
_cell_formula_units_Z   4
loop_
 _symmetry_equiv_pos_site_id
 _symmetry_equiv_pos_as_xyz
  1  'x, y, z'
loop_
 _atom_site_type_symbol
 _atom_site_label
 _atom_site_symmetry_multiplicity
 _atom_site_fract_x
 _atom_site_fract_y
 _atom_site_fract_z
 _atom_site_occupancy
  Pd  Pd0  1  0.25000000  0.75000000  0.50000000  1
  Pd  Pd1  1  0.75000000  0.75000000  0.50000000  1
  Pd  Pd2  1  0.75000000  0.25000000  0.50000000  1
  Pd  Pd3  1  0.25000000  0.25000000  0.50000000  1
  Se  Se4  1  0.83347200  0.50000000  0.15560200  1
  Se  Se5  1  0.16652800  0.50000000  0.84439800  1
  Se  Se6  1  0.33347200  0.00000000  0.15560200  1
  Se  Se7  1  0.66652800  0.00000000  0.84439800  1
  O  O8  1  0.26071500  0.30467400  0.77996500  1
  O  O9  1  0.26071500  0.69532600  0.77996500  1
  O  O10  1  0.88924500  0.50000000  0.63471500  1
  O  O11  1  0.73928500  0.69532600  0.22003500  1
  O  O12  1  0.11075500  0.50000000  0.36528500  1
  O  O13  1  0.73928500  0.30467400  0.22003500  1
  O  O14  1  0.76071500  0.80467400  0.77996500  1
  O  O15  1  0.76071500  0.19532600  0.77996500  1
  O  O16  1  0.38924500  0.00000000  0.63471500  1
  O  O17  1  0.23928500  0.19532600  0.22003500  1
  O  O18  1  0.61075500  0.00000000  0.36528500  1
  O  O19  1  0.23928500  0.80467400  0.22003500  1
