# generated using pymatgen
data_Hg2PO3F
_symmetry_space_group_name_H-M   'P 1'
_cell_length_a   8.85208400
_cell_length_b   9.61651400
_cell_length_c   12.45371800
_cell_angle_alpha   90.00000000
_cell_angle_beta   90.00000000
_cell_angle_gamma   90.00000000
_symmetry_Int_Tables_number   1
_chemical_formula_structural   Hg2PO3F
_chemical_formula_sum   'Hg16 P8 O24 F8'
_cell_volume   1060.13756113
_cell_formula_units_Z   8
loop_
 _symmetry_equiv_pos_site_id
 _symmetry_equiv_pos_as_xyz
  1  'x, y, z'
loop_
 _atom_site_type_symbol
 _atom_site_label
 _atom_site_symmetry_multiplicity
 _atom_site_fract_x
 _atom_site_fract_y
 _atom_site_fract_z
 _atom_site_occupancy
  Hg  Hg0  1  0.27825500  0.70404600  0.60242500  1
  Hg  Hg1  1  0.27825500  0.29595400  0.39757500  1
  Hg  Hg2  1  0.72174500  0.70404600  0.60242500  1
  Hg  Hg3  1  0.77825500  0.29595400  0.60242500  1
  Hg  Hg4  1  0.22174500  0.29595400  0.60242500  1
  Hg  Hg5  1  0.77825500  0.70404600  0.39757500  1
  Hg  Hg6  1  0.22174500  0.70404600  0.39757500  1
  Hg  Hg7  1  0.72174500  0.29595400  0.39757500  1
  Hg  Hg8  1  0.77825500  0.20404600  0.10242500  1
  Hg  Hg9  1  0.77825500  0.79595400  0.89757500  1
  Hg  Hg10  1  0.22174500  0.20404600  0.10242500  1
  Hg  Hg11  1  0.27825500  0.79595400  0.10242500  1
  Hg  Hg12  1  0.72174500  0.79595400  0.10242500  1
  Hg  Hg13  1  0.27825500  0.20404600  0.89757500  1
  Hg  Hg14  1  0.72174500  0.20404600  0.89757500  1
  Hg  Hg15  1  0.22174500  0.79595400  0.89757500  1
  P  P16  1  0.50000000  0.95131700  0.74158700  1
  P  P17  1  0.00000000  0.95131700  0.25841300  1
  P  P18  1  0.50000000  0.04868300  0.25841300  1
  P  P19  1  0.00000000  0.04868300  0.74158700  1
  P  P20  1  0.00000000  0.45131700  0.24158700  1
  P  P21  1  0.50000000  0.45131700  0.75841300  1
  P  P22  1  0.00000000  0.54868300  0.75841300  1
  P  P23  1  0.50000000  0.54868300  0.24158700  1
  O  O24  1  0.35442250  0.86366950  0.73767050  1
  O  O25  1  0.50000000  0.94124650  0.16878050  1
  O  O26  1  0.64557750  0.86366950  0.73767050  1
  O  O27  1  0.35442250  0.13633050  0.26232950  1
  O  O28  1  0.00000000  0.94124650  0.83121950  1
  O  O29  1  0.00000000  0.05875350  0.16878050  1
  O  O30  1  0.64557750  0.13633050  0.26232950  1
  O  O31  1  0.14557750  0.86366950  0.26232950  1
  O  O32  1  0.85442250  0.13633050  0.73767050  1
  O  O33  1  0.14557750  0.13633050  0.73767050  1
  O  O34  1  0.85442250  0.86366950  0.26232950  1
  O  O35  1  0.50000000  0.05875350  0.83121950  1
  O  O36  1  0.85442250  0.36366950  0.23767050  1
  O  O37  1  0.00000000  0.44124650  0.66878050  1
  O  O38  1  0.14557750  0.36366950  0.23767050  1
  O  O39  1  0.85442250  0.63633050  0.76232950  1
  O  O40  1  0.50000000  0.44124650  0.33121950  1
  O  O41  1  0.50000000  0.55875350  0.66878050  1
  O  O42  1  0.14557750  0.63633050  0.76232950  1
  O  O43  1  0.64557750  0.36366950  0.76232950  1
  O  O44  1  0.35442250  0.63633050  0.23767050  1
  O  O45  1  0.64557750  0.63633050  0.23767050  1
  O  O46  1  0.35442250  0.36366950  0.76232950  1
  O  O47  1  0.00000000  0.55875350  0.33121950  1
  F  F48  1  0.00000000  0.96674800  0.62994000  1
  F  F49  1  0.50000000  0.96674800  0.37006000  1
  F  F50  1  0.00000000  0.03325200  0.37006000  1
  F  F51  1  0.50000000  0.03325200  0.62994000  1
  F  F52  1  0.50000000  0.46674800  0.12994000  1
  F  F53  1  0.00000000  0.46674800  0.87006000  1
  F  F54  1  0.50000000  0.53325200  0.87006000  1
  F  F55  1  0.00000000  0.53325200  0.12994000  1
