# generated using pymatgen
data_TmNbO4
_symmetry_space_group_name_H-M   'P 1'
_cell_length_a   7.06205800
_cell_length_b   10.97332800
_cell_length_c   5.10467858
_cell_angle_alpha   90.00000000
_cell_angle_beta   131.77332527
_cell_angle_gamma   90.00000000
_symmetry_Int_Tables_number   1
_chemical_formula_structural   TmNbO4
_chemical_formula_sum   'Tm4 Nb4 O16'
_cell_volume   295.02064186
_cell_formula_units_Z   4
loop_
 _symmetry_equiv_pos_site_id
 _symmetry_equiv_pos_as_xyz
  1  'x, y, z'
loop_
 _atom_site_type_symbol
 _atom_site_label
 _atom_site_symmetry_multiplicity
 _atom_site_fract_x
 _atom_site_fract_y
 _atom_site_fract_z
 _atom_site_occupancy
  Tm  Tm0  1  0.00000000  0.12866600  0.75000000  1
  Tm  Tm1  1  0.50000000  0.37133400  0.25000000  1
  Tm  Tm2  1  0.50000000  0.62866600  0.75000000  1
  Tm  Tm3  1  0.00000000  0.87133400  0.25000000  1
  Nb  Nb4  1  0.00000000  0.39265400  0.25000000  1
  Nb  Nb5  1  0.50000000  0.10734600  0.75000000  1
  Nb  Nb6  1  0.50000000  0.89265400  0.25000000  1
  Nb  Nb7  1  0.00000000  0.60734600  0.75000000  1
  O  O8  1  0.33764100  0.21160000  0.84061500  1
  O  O9  1  0.16235900  0.28840000  0.15938500  1
  O  O10  1  0.66235900  0.21160000  0.65938500  1
  O  O11  1  0.75118750  0.03193050  0.21202600  1
  O  O12  1  0.74881250  0.46806950  0.78797400  1
  O  O13  1  0.83764100  0.28840000  0.34061500  1
  O  O14  1  0.25118750  0.46806950  0.71202600  1
  O  O15  1  0.24881250  0.03193050  0.28797400  1
  O  O16  1  0.83764100  0.71160000  0.84061500  1
  O  O17  1  0.66235900  0.78840000  0.15938500  1
  O  O18  1  0.16235900  0.71160000  0.65938500  1
  O  O19  1  0.25118750  0.53193050  0.21202600  1
  O  O20  1  0.24881250  0.96806950  0.78797400  1
  O  O21  1  0.33764100  0.78840000  0.34061500  1
  O  O22  1  0.75118750  0.96806950  0.71202600  1
  O  O23  1  0.74881250  0.53193050  0.28797400  1
