# generated using pymatgen
data_CsAl(SiO3)2
_symmetry_space_group_name_H-M   'P 1'
_cell_length_a   13.89909200
_cell_length_b   13.89909200
_cell_length_c   14.03006400
_cell_angle_alpha   90.00000000
_cell_angle_beta   90.00000000
_cell_angle_gamma   90.00000000
_symmetry_Int_Tables_number   1
_chemical_formula_structural   CsAl(SiO3)2
_chemical_formula_sum   'Cs16 Al16 Si32 O96'
_cell_volume   2710.39452452
_cell_formula_units_Z   16
loop_
 _symmetry_equiv_pos_site_id
 _symmetry_equiv_pos_as_xyz
  1  'x, y, z'
loop_
 _atom_site_type_symbol
 _atom_site_label
 _atom_site_symmetry_multiplicity
 _atom_site_fract_x
 _atom_site_fract_y
 _atom_site_fract_z
 _atom_site_occupancy
  Cs  Cs0  1  0.87726300  0.37726300  0.50000000  1
  Cs  Cs1  1  0.62273700  0.12273700  0.00000000  1
  Cs  Cs2  1  0.12273700  0.37726300  0.00000000  1
  Cs  Cs3  1  0.87726300  0.12273700  0.25000000  1
  Cs  Cs4  1  0.37726300  0.37726300  0.25000000  1
  Cs  Cs5  1  0.12273700  0.12273700  0.75000000  1
  Cs  Cs6  1  0.37726300  0.12273700  0.50000000  1
  Cs  Cs7  1  0.12273700  0.87726300  0.25000000  1
  Cs  Cs8  1  0.37726300  0.87726300  0.00000000  1
  Cs  Cs9  1  0.12273700  0.62273700  0.50000000  1
  Cs  Cs10  1  0.62273700  0.87726300  0.50000000  1
  Cs  Cs11  1  0.37726300  0.62273700  0.75000000  1
  Cs  Cs12  1  0.87726300  0.87726300  0.75000000  1
  Cs  Cs13  1  0.62273700  0.62273700  0.25000000  1
  Cs  Cs14  1  0.87726300  0.62273700  0.00000000  1
  Cs  Cs15  1  0.62273700  0.37726300  0.75000000  1
  Al  Al16  1  0.33745700  0.83745700  0.50000000  1
  Al  Al17  1  0.33745700  0.33745700  0.75000000  1
  Al  Al18  1  0.33745700  0.16254300  0.00000000  1
  Al  Al19  1  0.83745700  0.16254300  0.75000000  1
  Al  Al20  1  0.16254300  0.66254300  0.00000000  1
  Al  Al21  1  0.16254300  0.83745700  0.75000000  1
  Al  Al22  1  0.16254300  0.33745700  0.50000000  1
  Al  Al23  1  0.16254300  0.16254300  0.25000000  1
  Al  Al24  1  0.83745700  0.33745700  0.00000000  1
  Al  Al25  1  0.83745700  0.83745700  0.25000000  1
  Al  Al26  1  0.83745700  0.66254300  0.50000000  1
  Al  Al27  1  0.33745700  0.66254300  0.25000000  1
  Al  Al28  1  0.66254300  0.16254300  0.50000000  1
  Al  Al29  1  0.66254300  0.33745700  0.25000000  1
  Al  Al30  1  0.66254300  0.83745700  0.00000000  1
  Al  Al31  1  0.66254300  0.66254300  0.75000000  1
  Si  Si32  1  0.41054550  0.87864850  0.28862250  1
  Si  Si33  1  0.37864850  0.08945450  0.21137750  1
  Si  Si34  1  0.41054550  0.37864850  0.96137750  1
  Si  Si35  1  0.08945450  0.87864850  0.96137750  1
  Si  Si36  1  0.58945450  0.12135150  0.28862250  1
  Si  Si37  1  0.12135150  0.58945450  0.21137750  1
  Si  Si38  1  0.12135150  0.91054550  0.53862250  1
  Si  Si39  1  0.08945450  0.37864850  0.28862250  1
  Si  Si40  1  0.41054550  0.62135150  0.46137750  1
  Si  Si41  1  0.37864850  0.58945450  0.03862250  1
  Si  Si42  1  0.62135150  0.91054550  0.21137750  1
  Si  Si43  1  0.87864850  0.41054550  0.21137750  1
  Si  Si44  1  0.12135150  0.08945450  0.03862250  1
  Si  Si45  1  0.37864850  0.41054550  0.53862250  1
  Si  Si46  1  0.08945450  0.12135150  0.46137750  1
  Si  Si47  1  0.91054550  0.62135150  0.28862250  1
  Si  Si48  1  0.91054550  0.37864850  0.78862250  1
  Si  Si49  1  0.87864850  0.58945450  0.71137750  1
  Si  Si50  1  0.91054550  0.87864850  0.46137750  1
  Si  Si51  1  0.58945450  0.37864850  0.46137750  1
  Si  Si52  1  0.08945450  0.62135150  0.78862250  1
  Si  Si53  1  0.62135150  0.08945450  0.71137750  1
  Si  Si54  1  0.62135150  0.41054550  0.03862250  1
  Si  Si55  1  0.58945450  0.87864850  0.78862250  1
  Si  Si56  1  0.91054550  0.12135150  0.96137750  1
  Si  Si57  1  0.87864850  0.08945450  0.53862250  1
  Si  Si58  1  0.12135150  0.41054550  0.71137750  1
  Si  Si59  1  0.37864850  0.91054550  0.71137750  1
  Si  Si60  1  0.62135150  0.58945450  0.53862250  1
  Si  Si61  1  0.87864850  0.91054550  0.03862250  1
  Si  Si62  1  0.58945450  0.62135150  0.96137750  1
  Si  Si63  1  0.41054550  0.12135150  0.78862250  1
  O  O64  1  0.52732450  0.86896350  0.26993950  1
  O  O65  1  0.97267550  0.13103650  0.48006050  1
  O  O66  1  0.14537450  0.21269150  0.50608250  1
  O  O67  1  0.13103650  0.47267550  0.23006050  1
  O  O68  1  0.10456300  0.60844300  0.90228200  1
  O  O69  1  0.39155700  0.89543700  0.59771800  1
  O  O70  1  0.14537450  0.78730850  0.00608250  1
  O  O71  1  0.47267550  0.13103650  0.26993950  1
  O  O72  1  0.39543700  0.39155700  0.84771800  1
  O  O73  1  0.86896350  0.52732450  0.23006050  1
  O  O74  1  0.10456300  0.10844300  0.34771800  1
  O  O75  1  0.14537450  0.28730850  0.24391750  1
  O  O76  1  0.28730850  0.35462550  0.49391750  1
  O  O77  1  0.86896350  0.02732450  0.01993950  1
  O  O78  1  0.21269150  0.14537450  0.99391750  1
  O  O79  1  0.63103650  0.02732450  0.23006050  1
  O  O80  1  0.02732450  0.63103650  0.26993950  1
  O  O81  1  0.36896350  0.47267550  0.01993950  1
  O  O82  1  0.35462550  0.28730850  0.00608250  1
  O  O83  1  0.35462550  0.78730850  0.24391750  1
  O  O84  1  0.64537450  0.21269150  0.24391750  1
  O  O85  1  0.39543700  0.10844300  0.90228200  1
  O  O86  1  0.10456300  0.39155700  0.40228200  1
  O  O87  1  0.10844300  0.10456300  0.15228200  1
  O  O88  1  0.10844300  0.39543700  0.59771800  1
  O  O89  1  0.28730850  0.14537450  0.25608250  1
  O  O90  1  0.35462550  0.71269150  0.50608250  1
  O  O91  1  0.52732450  0.36896350  0.98006050  1
  O  O92  1  0.10844300  0.89543700  0.65228200  1
  O  O93  1  0.02732450  0.13103650  0.98006050  1
  O  O94  1  0.78730850  0.35462550  0.25608250  1
  O  O95  1  0.85462550  0.71269150  0.24391750  1
  O  O96  1  0.21269150  0.64537450  0.25608250  1
  O  O97  1  0.39155700  0.39543700  0.65228200  1
  O  O98  1  0.28730850  0.64537450  0.99391750  1
  O  O99  1  0.71269150  0.85462550  0.25608250  1
  O  O100  1  0.39543700  0.89155700  0.40228200  1
  O  O101  1  0.36896350  0.97267550  0.23006050  1
  O  O102  1  0.63103650  0.47267550  0.51993950  1
  O  O103  1  0.60456300  0.39155700  0.34771800  1
  O  O104  1  0.39155700  0.10456300  0.09771800  1
  O  O105  1  0.97267550  0.36896350  0.26993950  1
  O  O106  1  0.21269150  0.85462550  0.49391750  1
  O  O107  1  0.47267550  0.36896350  0.48006050  1
  O  O108  1  0.13103650  0.02732450  0.51993950  1
  O  O109  1  0.10844300  0.60456300  0.09771800  1
  O  O110  1  0.39155700  0.60456300  0.15228200  1
  O  O111  1  0.89543700  0.10844300  0.84771800  1
  O  O112  1  0.02732450  0.36896350  0.76993950  1
  O  O113  1  0.47267550  0.63103650  0.98006050  1
  O  O114  1  0.64537450  0.71269150  0.00608250  1
  O  O115  1  0.63103650  0.97267550  0.73006050  1
  O  O116  1  0.60456300  0.10844300  0.40228200  1
  O  O117  1  0.89155700  0.39543700  0.09771800  1
  O  O118  1  0.64537450  0.28730850  0.50608250  1
  O  O119  1  0.97267550  0.63103650  0.76993950  1
  O  O120  1  0.89543700  0.89155700  0.34771800  1
  O  O121  1  0.36896350  0.02732450  0.73006050  1
  O  O122  1  0.60456300  0.60844300  0.84771800  1
  O  O123  1  0.64537450  0.78730850  0.74391750  1
  O  O124  1  0.78730850  0.85462550  0.99391750  1
  O  O125  1  0.36896350  0.52732450  0.51993950  1
  O  O126  1  0.71269150  0.64537450  0.49391750  1
  O  O127  1  0.13103650  0.52732450  0.73006050  1
  O  O128  1  0.52732450  0.13103650  0.76993950  1
  O  O129  1  0.86896350  0.97267550  0.51993950  1
  O  O130  1  0.85462550  0.78730850  0.50608250  1
  O  O131  1  0.85462550  0.28730850  0.74391750  1
  O  O132  1  0.14537450  0.71269150  0.74391750  1
  O  O133  1  0.89543700  0.60844300  0.40228200  1
  O  O134  1  0.60456300  0.89155700  0.90228200  1
  O  O135  1  0.60844300  0.60456300  0.65228200  1
  O  O136  1  0.60844300  0.89543700  0.09771800  1
  O  O137  1  0.78730850  0.64537450  0.75608250  1
  O  O138  1  0.85462550  0.21269150  0.00608250  1
  O  O139  1  0.02732450  0.86896350  0.48006050  1
  O  O140  1  0.60844300  0.39543700  0.15228200  1
  O  O141  1  0.52732450  0.63103650  0.48006050  1
  O  O142  1  0.28730850  0.85462550  0.75608250  1
  O  O143  1  0.35462550  0.21269150  0.74391750  1
  O  O144  1  0.71269150  0.14537450  0.75608250  1
  O  O145  1  0.89155700  0.89543700  0.15228200  1
  O  O146  1  0.78730850  0.14537450  0.49391750  1
  O  O147  1  0.21269150  0.35462550  0.75608250  1
  O  O148  1  0.89543700  0.39155700  0.90228200  1
  O  O149  1  0.86896350  0.47267550  0.73006050  1
  O  O150  1  0.13103650  0.97267550  0.01993950  1
  O  O151  1  0.10456300  0.89155700  0.84771800  1
  O  O152  1  0.89155700  0.60456300  0.59771800  1
  O  O153  1  0.47267550  0.86896350  0.76993950  1
  O  O154  1  0.71269150  0.35462550  0.99391750  1
  O  O155  1  0.97267550  0.86896350  0.98006050  1
  O  O156  1  0.63103650  0.52732450  0.01993950  1
  O  O157  1  0.60844300  0.10456300  0.59771800  1
  O  O158  1  0.89155700  0.10456300  0.65228200  1
  O  O159  1  0.39543700  0.60844300  0.34771800  1
