# generated using pymatgen
data_ZnS
_symmetry_space_group_name_H-M   'P 1'
_cell_length_a   3.85921550
_cell_length_b   3.85921550
_cell_length_c   66.13520200
_cell_angle_alpha   90.00000000
_cell_angle_beta   90.00000000
_cell_angle_gamma   120.00000000
_symmetry_Int_Tables_number   1
_chemical_formula_structural   ZnS
_chemical_formula_sum   'Zn21 S21'
_cell_volume   853.02424652
_cell_formula_units_Z   21
loop_
 _symmetry_equiv_pos_site_id
 _symmetry_equiv_pos_as_xyz
  1  'x, y, z'
loop_
 _atom_site_type_symbol
 _atom_site_label
 _atom_site_symmetry_multiplicity
 _atom_site_fract_x
 _atom_site_fract_y
 _atom_site_fract_z
 _atom_site_occupancy
  Zn  Zn0  1  0.00000000  0.00000000  0.00001800  1
  Zn  Zn1  1  0.66666667  0.33333333  0.04761633  1
  Zn  Zn2  1  0.33333333  0.66666667  0.09523167  1
  Zn  Zn3  1  0.66666667  0.33333333  0.14286733  1
  Zn  Zn4  1  0.33333333  0.66666667  0.19049367  1
  Zn  Zn5  1  0.66666667  0.33333333  0.23811133  1
  Zn  Zn6  1  0.00000000  0.00000000  0.28571900  1
  Zn  Zn7  1  0.66666667  0.33333333  0.33335133  1
  Zn  Zn8  1  0.33333333  0.66666667  0.38094967  1
  Zn  Zn9  1  0.00000000  0.00000000  0.42856500  1
  Zn  Zn10  1  0.33333333  0.66666667  0.47620067  1
  Zn  Zn11  1  0.00000000  0.00000000  0.52382700  1
  Zn  Zn12  1  0.33333333  0.66666667  0.57144467  1
  Zn  Zn13  1  0.66666667  0.33333333  0.61905233  1
  Zn  Zn14  1  0.33333333  0.66666667  0.66668467  1
  Zn  Zn15  1  0.00000000  0.00000000  0.71428300  1
  Zn  Zn16  1  0.66666667  0.33333333  0.76189833  1
  Zn  Zn17  1  0.00000000  0.00000000  0.80953400  1
  Zn  Zn18  1  0.66666667  0.33333333  0.85716033  1
  Zn  Zn19  1  0.00000000  0.00000000  0.90477800  1
  Zn  Zn20  1  0.33333333  0.66666667  0.95238567  1
  S  S21  1  0.00000000  0.00000000  0.03570400  1
  S  S22  1  0.66666667  0.33333333  0.08329533  1
  S  S23  1  0.33333333  0.66666667  0.13094367  1
  S  S24  1  0.66666667  0.33333333  0.17856433  1
  S  S25  1  0.33333333  0.66666667  0.22621167  1
  S  S26  1  0.66666667  0.33333333  0.27377633  1
  S  S27  1  0.00000000  0.00000000  0.32144700  1
  S  S28  1  0.66666667  0.33333333  0.36903733  1
  S  S29  1  0.33333333  0.66666667  0.41662867  1
  S  S30  1  0.00000000  0.00000000  0.46427700  1
  S  S31  1  0.33333333  0.66666667  0.51189767  1
  S  S32  1  0.00000000  0.00000000  0.55954500  1
  S  S33  1  0.33333333  0.66666667  0.60710967  1
  S  S34  1  0.66666667  0.33333333  0.65478033  1
  S  S35  1  0.33333333  0.66666667  0.70237067  1
  S  S36  1  0.00000000  0.00000000  0.74996200  1
  S  S37  1  0.66666667  0.33333333  0.79761033  1
  S  S38  1  0.00000000  0.00000000  0.84523100  1
  S  S39  1  0.66666667  0.33333333  0.89287833  1
  S  S40  1  0.00000000  0.00000000  0.94044300  1
  S  S41  1  0.33333333  0.66666667  0.98811367  1
