# generated using pymatgen
data_LiEu2CBr3N2
_symmetry_space_group_name_H-M   'P 1'
_cell_length_a   14.61827000
_cell_length_b   14.61827000
_cell_length_c   14.61827000
_cell_angle_alpha   90.00000000
_cell_angle_beta   90.00000000
_cell_angle_gamma   90.00000000
_symmetry_Int_Tables_number   1
_chemical_formula_structural   LiEu2CBr3N2
_chemical_formula_sum   'Li16 Eu32 C16 Br48 N32'
_cell_volume   3123.83392583
_cell_formula_units_Z   16
loop_
 _symmetry_equiv_pos_site_id
 _symmetry_equiv_pos_as_xyz
  1  'x, y, z'
loop_
 _atom_site_type_symbol
 _atom_site_label
 _atom_site_symmetry_multiplicity
 _atom_site_fract_x
 _atom_site_fract_y
 _atom_site_fract_z
 _atom_site_occupancy
  Li  Li0  1  0.37500000  0.62500000  0.37500000  1
  Li  Li1  1  0.12500000  0.87500000  0.37500000  1
  Li  Li2  1  0.12500000  0.62500000  0.12500000  1
  Li  Li3  1  0.37500000  0.87500000  0.12500000  1
  Li  Li4  1  0.37500000  0.12500000  0.87500000  1
  Li  Li5  1  0.12500000  0.37500000  0.87500000  1
  Li  Li6  1  0.12500000  0.12500000  0.62500000  1
  Li  Li7  1  0.37500000  0.37500000  0.62500000  1
  Li  Li8  1  0.87500000  0.62500000  0.87500000  1
  Li  Li9  1  0.62500000  0.87500000  0.87500000  1
  Li  Li10  1  0.62500000  0.62500000  0.62500000  1
  Li  Li11  1  0.87500000  0.87500000  0.62500000  1
  Li  Li12  1  0.87500000  0.12500000  0.37500000  1
  Li  Li13  1  0.62500000  0.37500000  0.37500000  1
  Li  Li14  1  0.62500000  0.12500000  0.12500000  1
  Li  Li15  1  0.87500000  0.37500000  0.12500000  1
  Eu  Eu16  1  0.34633133  0.15366867  0.15366867  1
  Eu  Eu17  1  0.59633133  0.09633133  0.40366867  1
  Eu  Eu18  1  0.90366867  0.09633133  0.09633133  1
  Eu  Eu19  1  0.34633133  0.34633133  0.34633133  1
  Eu  Eu20  1  0.40366867  0.90366867  0.40366867  1
  Eu  Eu21  1  0.15366867  0.34633133  0.15366867  1
  Eu  Eu22  1  0.15366867  0.15366867  0.34633133  1
  Eu  Eu23  1  0.09633133  0.90366867  0.09633133  1
  Eu  Eu24  1  0.34633133  0.65366867  0.65366867  1
  Eu  Eu25  1  0.59633133  0.59633133  0.90366867  1
  Eu  Eu26  1  0.90366867  0.59633133  0.59633133  1
  Eu  Eu27  1  0.34633133  0.84633133  0.84633133  1
  Eu  Eu28  1  0.40366867  0.40366867  0.90366867  1
  Eu  Eu29  1  0.15366867  0.84633133  0.65366867  1
  Eu  Eu30  1  0.15366867  0.65366867  0.84633133  1
  Eu  Eu31  1  0.09633133  0.40366867  0.59633133  1
  Eu  Eu32  1  0.84633133  0.15366867  0.65366867  1
  Eu  Eu33  1  0.09633133  0.09633133  0.90366867  1
  Eu  Eu34  1  0.40366867  0.09633133  0.59633133  1
  Eu  Eu35  1  0.84633133  0.34633133  0.84633133  1
  Eu  Eu36  1  0.90366867  0.90366867  0.90366867  1
  Eu  Eu37  1  0.65366867  0.34633133  0.65366867  1
  Eu  Eu38  1  0.65366867  0.15366867  0.84633133  1
  Eu  Eu39  1  0.59633133  0.90366867  0.59633133  1
  Eu  Eu40  1  0.84633133  0.65366867  0.15366867  1
  Eu  Eu41  1  0.09633133  0.59633133  0.40366867  1
  Eu  Eu42  1  0.40366867  0.59633133  0.09633133  1
  Eu  Eu43  1  0.84633133  0.84633133  0.34633133  1
  Eu  Eu44  1  0.90366867  0.40366867  0.40366867  1
  Eu  Eu45  1  0.65366867  0.84633133  0.15366867  1
  Eu  Eu46  1  0.65366867  0.65366867  0.34633133  1
  Eu  Eu47  1  0.59633133  0.40366867  0.09633133  1
  C  C48  1  0.62500000  0.87500000  0.37500000  1
  C  C49  1  0.37500000  0.12500000  0.37500000  1
  C  C50  1  0.87500000  0.87500000  0.12500000  1
  C  C51  1  0.12500000  0.12500000  0.12500000  1
  C  C52  1  0.62500000  0.37500000  0.87500000  1
  C  C53  1  0.37500000  0.62500000  0.87500000  1
  C  C54  1  0.87500000  0.37500000  0.62500000  1
  C  C55  1  0.12500000  0.62500000  0.62500000  1
  C  C56  1  0.12500000  0.87500000  0.87500000  1
  C  C57  1  0.87500000  0.12500000  0.87500000  1
  C  C58  1  0.37500000  0.87500000  0.62500000  1
  C  C59  1  0.62500000  0.12500000  0.62500000  1
  C  C60  1  0.12500000  0.37500000  0.37500000  1
  C  C61  1  0.87500000  0.62500000  0.37500000  1
  C  C62  1  0.37500000  0.37500000  0.12500000  1
  C  C63  1  0.62500000  0.62500000  0.12500000  1
  Br  Br64  1  0.25000000  0.94747300  0.25000000  1
  Br  Br65  1  0.25000000  0.75000000  0.05252700  1
  Br  Br66  1  0.50000000  0.30252700  0.50000000  1
  Br  Br67  1  0.80252700  0.00000000  0.50000000  1
  Br  Br68  1  0.25000000  0.55252700  0.25000000  1
  Br  Br69  1  0.50000000  0.00000000  0.19747300  1
  Br  Br70  1  0.00000000  0.00000000  0.30252700  1
  Br  Br71  1  0.05252700  0.75000000  0.25000000  1
  Br  Br72  1  0.19747300  0.00000000  0.50000000  1
  Br  Br73  1  0.44747300  0.75000000  0.25000000  1
  Br  Br74  1  0.50000000  0.69747300  0.50000000  1
  Br  Br75  1  0.25000000  0.75000000  0.44747300  1
  Br  Br76  1  0.25000000  0.44747300  0.75000000  1
  Br  Br77  1  0.25000000  0.25000000  0.55252700  1
  Br  Br78  1  0.50000000  0.80252700  0.00000000  1
  Br  Br79  1  0.80252700  0.50000000  0.00000000  1
  Br  Br80  1  0.25000000  0.05252700  0.75000000  1
  Br  Br81  1  0.50000000  0.50000000  0.69747300  1
  Br  Br82  1  0.00000000  0.50000000  0.80252700  1
  Br  Br83  1  0.05252700  0.25000000  0.75000000  1
  Br  Br84  1  0.19747300  0.50000000  0.00000000  1
  Br  Br85  1  0.44747300  0.25000000  0.75000000  1
  Br  Br86  1  0.50000000  0.19747300  0.00000000  1
  Br  Br87  1  0.25000000  0.25000000  0.94747300  1
  Br  Br88  1  0.75000000  0.94747300  0.75000000  1
  Br  Br89  1  0.75000000  0.75000000  0.55252700  1
  Br  Br90  1  0.00000000  0.30252700  0.00000000  1
  Br  Br91  1  0.30252700  0.00000000  0.00000000  1
  Br  Br92  1  0.75000000  0.55252700  0.75000000  1
  Br  Br93  1  0.00000000  0.00000000  0.69747300  1
  Br  Br94  1  0.50000000  0.00000000  0.80252700  1
  Br  Br95  1  0.55252700  0.75000000  0.75000000  1
  Br  Br96  1  0.69747300  0.00000000  0.00000000  1
  Br  Br97  1  0.94747300  0.75000000  0.75000000  1
  Br  Br98  1  0.00000000  0.69747300  0.00000000  1
  Br  Br99  1  0.75000000  0.75000000  0.94747300  1
  Br  Br100  1  0.75000000  0.44747300  0.25000000  1
  Br  Br101  1  0.75000000  0.25000000  0.05252700  1
  Br  Br102  1  0.00000000  0.80252700  0.50000000  1
  Br  Br103  1  0.30252700  0.50000000  0.50000000  1
  Br  Br104  1  0.75000000  0.05252700  0.25000000  1
  Br  Br105  1  0.00000000  0.50000000  0.19747300  1
  Br  Br106  1  0.50000000  0.50000000  0.30252700  1
  Br  Br107  1  0.55252700  0.25000000  0.25000000  1
  Br  Br108  1  0.69747300  0.50000000  0.50000000  1
  Br  Br109  1  0.94747300  0.25000000  0.25000000  1
  Br  Br110  1  0.00000000  0.19747300  0.50000000  1
  Br  Br111  1  0.75000000  0.25000000  0.44747300  1
  N  N112  1  0.92379000  0.92379000  0.07621000  1
  N  N113  1  0.32621000  0.32621000  0.17379000  1
  N  N114  1  0.07621000  0.07621000  0.07621000  1
  N  N115  1  0.42379000  0.07621000  0.42379000  1
  N  N116  1  0.32621000  0.17379000  0.32621000  1
  N  N117  1  0.17379000  0.17379000  0.17379000  1
  N  N118  1  0.17379000  0.32621000  0.32621000  1
  N  N119  1  0.57621000  0.92379000  0.42379000  1
  N  N120  1  0.92379000  0.42379000  0.57621000  1
  N  N121  1  0.32621000  0.82621000  0.67379000  1
  N  N122  1  0.07621000  0.57621000  0.57621000  1
  N  N123  1  0.42379000  0.57621000  0.92379000  1
  N  N124  1  0.32621000  0.67379000  0.82621000  1
  N  N125  1  0.17379000  0.67379000  0.67379000  1
  N  N126  1  0.17379000  0.82621000  0.82621000  1
  N  N127  1  0.57621000  0.42379000  0.92379000  1
  N  N128  1  0.42379000  0.92379000  0.57621000  1
  N  N129  1  0.82621000  0.32621000  0.67379000  1
  N  N130  1  0.57621000  0.07621000  0.57621000  1
  N  N131  1  0.92379000  0.07621000  0.92379000  1
  N  N132  1  0.82621000  0.17379000  0.82621000  1
  N  N133  1  0.67379000  0.17379000  0.67379000  1
  N  N134  1  0.67379000  0.32621000  0.82621000  1
  N  N135  1  0.07621000  0.92379000  0.92379000  1
  N  N136  1  0.42379000  0.42379000  0.07621000  1
  N  N137  1  0.82621000  0.82621000  0.17379000  1
  N  N138  1  0.57621000  0.57621000  0.07621000  1
  N  N139  1  0.92379000  0.57621000  0.42379000  1
  N  N140  1  0.82621000  0.67379000  0.32621000  1
  N  N141  1  0.67379000  0.67379000  0.17379000  1
  N  N142  1  0.67379000  0.82621000  0.32621000  1
  N  N143  1  0.07621000  0.42379000  0.42379000  1
