# generated using pymatgen
data_TiO2
_symmetry_space_group_name_H-M   'P 1'
_cell_length_a   12.30715400
_cell_length_b   3.76693600
_cell_length_c   6.61621224
_cell_angle_alpha   90.00000000
_cell_angle_beta   106.94506548
_cell_angle_gamma   90.00000000
_symmetry_Int_Tables_number   1
_chemical_formula_structural   TiO2
_chemical_formula_sum   'Ti8 O16'
_cell_volume   293.41256489
_cell_formula_units_Z   8
loop_
 _symmetry_equiv_pos_site_id
 _symmetry_equiv_pos_as_xyz
  1  'x, y, z'
loop_
 _atom_site_type_symbol
 _atom_site_label
 _atom_site_symmetry_multiplicity
 _atom_site_fract_x
 _atom_site_fract_y
 _atom_site_fract_z
 _atom_site_occupancy
  Ti  Ti0  1  0.30471400  0.50000000  0.71623800  1
  Ti  Ti1  1  0.09992900  0.00000000  0.71039800  1
  Ti  Ti2  1  0.19528600  0.00000000  0.28376200  1
  Ti  Ti3  1  0.40007100  0.50000000  0.28960200  1
  Ti  Ti4  1  0.80471400  0.00000000  0.71623800  1
  Ti  Ti5  1  0.59992900  0.50000000  0.71039800  1
  Ti  Ti6  1  0.69528600  0.50000000  0.28376200  1
  Ti  Ti7  1  0.90007100  0.00000000  0.28960200  1
  O  O8  1  0.05835200  0.00000000  0.36997900  1
  O  O9  1  0.13806800  0.50000000  0.70660300  1
  O  O10  1  0.13281100  0.00000000  0.00470900  1
  O  O11  1  0.44164800  0.50000000  0.63002100  1
  O  O12  1  0.23651100  0.50000000  0.34750000  1
  O  O13  1  0.36718900  0.50000000  0.99529100  1
  O  O14  1  0.26348900  0.00000000  0.65250000  1
  O  O15  1  0.36193200  0.00000000  0.29339700  1
  O  O16  1  0.55835200  0.50000000  0.36997900  1
  O  O17  1  0.63806800  0.00000000  0.70660300  1
  O  O18  1  0.63281100  0.50000000  0.00470900  1
  O  O19  1  0.94164800  0.00000000  0.63002100  1
  O  O20  1  0.73651100  0.00000000  0.34750000  1
  O  O21  1  0.86718900  0.00000000  0.99529100  1
  O  O22  1  0.76348900  0.50000000  0.65250000  1
  O  O23  1  0.86193200  0.50000000  0.29339700  1
