# generated using pymatgen
data_SiO2
_symmetry_space_group_name_H-M   'P 1'
_cell_length_a   15.80455000
_cell_length_b   15.80455000
_cell_length_c   9.95923700
_cell_angle_alpha   90.00000000
_cell_angle_beta   90.00000000
_cell_angle_gamma   90.00000000
_symmetry_Int_Tables_number   1
_chemical_formula_structural   SiO2
_chemical_formula_sum   'Si32 O64'
_cell_volume   2487.65606996
_cell_formula_units_Z   32
loop_
 _symmetry_equiv_pos_site_id
 _symmetry_equiv_pos_as_xyz
  1  'x, y, z'
loop_
 _atom_site_type_symbol
 _atom_site_label
 _atom_site_symmetry_multiplicity
 _atom_site_fract_x
 _atom_site_fract_y
 _atom_site_fract_z
 _atom_site_occupancy
  Si  Si0  1  0.08136200  0.70764200  0.64234900  1
  Si  Si1  1  0.07199200  0.57199200  0.15638600  1
  Si  Si2  1  0.57199200  0.92800800  0.84361400  1
  Si  Si3  1  0.42800800  0.07199200  0.15638600  1
  Si  Si4  1  0.91863800  0.29235800  0.64234900  1
  Si  Si5  1  0.58136200  0.79235800  0.64234900  1
  Si  Si6  1  0.08136200  0.70764200  0.35765100  1
  Si  Si7  1  0.58136200  0.79235800  0.35765100  1
  Si  Si8  1  0.13383000  0.04833100  0.50000000  1
  Si  Si9  1  0.86617000  0.95166900  0.50000000  1
  Si  Si10  1  0.70764200  0.91863800  0.64234900  1
  Si  Si11  1  0.91863800  0.29235800  0.35765100  1
  Si  Si12  1  0.07199200  0.57199200  0.84361400  1
  Si  Si13  1  0.41863800  0.20764200  0.35765100  1
  Si  Si14  1  0.29235800  0.08136200  0.35765100  1
  Si  Si15  1  0.36617000  0.54833100  0.50000000  1
  Si  Si16  1  0.20764200  0.58136200  0.35765100  1
  Si  Si17  1  0.57199200  0.92800800  0.15638600  1
  Si  Si18  1  0.04833100  0.86617000  0.50000000  1
  Si  Si19  1  0.79235800  0.41863800  0.35765100  1
  Si  Si20  1  0.45166900  0.36617000  0.50000000  1
  Si  Si21  1  0.41863800  0.20764200  0.64234900  1
  Si  Si22  1  0.95166900  0.13383000  0.50000000  1
  Si  Si23  1  0.20764200  0.58136200  0.64234900  1
  Si  Si24  1  0.29235800  0.08136200  0.64234900  1
  Si  Si25  1  0.70764200  0.91863800  0.35765100  1
  Si  Si26  1  0.92800800  0.42800800  0.15638600  1
  Si  Si27  1  0.42800800  0.07199200  0.84361400  1
  Si  Si28  1  0.63383000  0.45166900  0.50000000  1
  Si  Si29  1  0.92800800  0.42800800  0.84361400  1
  Si  Si30  1  0.79235800  0.41863800  0.64234900  1
  Si  Si31  1  0.54833100  0.63383000  0.50000000  1
  O  O32  1  0.82810500  0.45867000  0.50000000  1
  O  O33  1  0.43129100  0.31023200  0.36369700  1
  O  O34  1  0.06870900  0.81023200  0.63630300  1
  O  O35  1  0.45867000  0.17189500  0.50000000  1
  O  O36  1  0.50000000  0.00000000  0.16819200  1
  O  O37  1  0.56870900  0.68976800  0.63630300  1
  O  O38  1  0.54133000  0.82810500  0.50000000  1
  O  O39  1  0.65921100  0.96194900  0.77005900  1
  O  O40  1  0.50000000  0.00000000  0.83180800  1
  O  O41  1  0.53805100  0.84078900  0.22994100  1
  O  O42  1  0.31716500  0.18283500  0.64858800  1
  O  O43  1  0.46194900  0.15921100  0.22994100  1
  O  O44  1  0.81023200  0.93129100  0.36369700  1
  O  O45  1  0.65921100  0.96194900  0.22994100  1
  O  O46  1  0.18283500  0.68283500  0.35141200  1
  O  O47  1  0.81716500  0.31716500  0.35141200  1
  O  O48  1  0.84078900  0.46194900  0.22994100  1
  O  O49  1  0.55079000  0.39223000  0.50000000  1
  O  O50  1  0.44921000  0.60777000  0.50000000  1
  O  O51  1  0.68976800  0.43129100  0.36369700  1
  O  O52  1  0.31716500  0.18283500  0.35141200  1
  O  O53  1  0.15921100  0.53805100  0.22994100  1
  O  O54  1  0.00000000  0.50000000  0.16819200  1
  O  O55  1  0.31023200  0.56870900  0.36369700  1
  O  O56  1  0.34078900  0.03805100  0.22994100  1
  O  O57  1  0.53805100  0.84078900  0.77005900  1
  O  O58  1  0.94921000  0.89223000  0.50000000  1
  O  O59  1  0.46194900  0.15921100  0.77005900  1
  O  O60  1  0.15921100  0.53805100  0.77005900  1
  O  O61  1  0.39223000  0.44921000  0.50000000  1
  O  O62  1  0.96194900  0.34078900  0.22994100  1
  O  O63  1  0.03805100  0.65921100  0.22994100  1
  O  O64  1  0.68283500  0.81716500  0.64858800  1
  O  O65  1  0.05079000  0.10777000  0.50000000  1
  O  O66  1  0.96194900  0.34078900  0.77005900  1
  O  O67  1  0.06870900  0.81023200  0.36369700  1
  O  O68  1  0.89223000  0.05079000  0.50000000  1
  O  O69  1  0.00000000  0.50000000  0.83180800  1
  O  O70  1  0.18976800  0.06870900  0.63630300  1
  O  O71  1  0.84078900  0.46194900  0.77005900  1
  O  O72  1  0.90783100  0.40783100  0.00000000  1
  O  O73  1  0.09216900  0.59216900  0.00000000  1
  O  O74  1  0.93129100  0.18976800  0.63630300  1
  O  O75  1  0.31023200  0.56870900  0.63630300  1
  O  O76  1  0.59216900  0.90783100  0.00000000  1
  O  O77  1  0.81023200  0.93129100  0.63630300  1
  O  O78  1  0.68976800  0.43129100  0.63630300  1
  O  O79  1  0.18283500  0.68283500  0.64858800  1
  O  O80  1  0.43129100  0.31023200  0.63630300  1
  O  O81  1  0.18976800  0.06870900  0.36369700  1
  O  O82  1  0.03805100  0.65921100  0.77005900  1
  O  O83  1  0.93129100  0.18976800  0.36369700  1
  O  O84  1  0.32810500  0.04133000  0.50000000  1
  O  O85  1  0.34078900  0.03805100  0.77005900  1
  O  O86  1  0.95867000  0.32810500  0.50000000  1
  O  O87  1  0.40783100  0.09216900  0.00000000  1
  O  O88  1  0.81716500  0.31716500  0.64858800  1
  O  O89  1  0.10777000  0.94921000  0.50000000  1
  O  O90  1  0.04133000  0.67189500  0.50000000  1
  O  O91  1  0.56870900  0.68976800  0.36369700  1
  O  O92  1  0.17189500  0.54133000  0.50000000  1
  O  O93  1  0.68283500  0.81716500  0.35141200  1
  O  O94  1  0.60777000  0.55079000  0.50000000  1
  O  O95  1  0.67189500  0.95867000  0.50000000  1
