# generated using pymatgen
data_Cs2Bi4O7
_symmetry_space_group_name_H-M   'P 1'
_cell_length_a   22.38178200
_cell_length_b   13.23146400
_cell_length_c   16.14734499
_cell_angle_alpha   90.00000000
_cell_angle_beta   95.40729082
_cell_angle_gamma   90.00000000
_symmetry_Int_Tables_number   1
_chemical_formula_structural   Cs2Bi4O7
_chemical_formula_sum   'Cs32 Bi64 O112'
_cell_volume   4760.65547962
_cell_formula_units_Z   16
loop_
 _symmetry_equiv_pos_site_id
 _symmetry_equiv_pos_as_xyz
  1  'x, y, z'
loop_
 _atom_site_type_symbol
 _atom_site_label
 _atom_site_symmetry_multiplicity
 _atom_site_fract_x
 _atom_site_fract_y
 _atom_site_fract_z
 _atom_site_occupancy
  Cs  Cs0  1  0.32164650  0.30079950  0.20466500  1
  Cs  Cs1  1  0.92328500  0.04492900  0.29470900  1
  Cs  Cs2  1  0.66054600  0.20460400  0.79380200  1
  Cs  Cs3  1  0.92328500  0.95507100  0.79470900  1
  Cs  Cs4  1  0.67835350  0.30079950  0.29533500  1
  Cs  Cs5  1  0.58562650  0.05250250  0.21135600  1
  Cs  Cs6  1  0.66054600  0.79539600  0.29380200  1
  Cs  Cs7  1  0.07671500  0.95507100  0.70529100  1
  Cs  Cs8  1  0.33945400  0.20460400  0.70619800  1
  Cs  Cs9  1  0.41437350  0.94749750  0.78864400  1
  Cs  Cs10  1  0.58562650  0.94749750  0.71135600  1
  Cs  Cs11  1  0.67835350  0.69920050  0.79533500  1
  Cs  Cs12  1  0.33945400  0.79539600  0.20619800  1
  Cs  Cs13  1  0.32164650  0.69920050  0.70466500  1
  Cs  Cs14  1  0.07671500  0.04492900  0.20529100  1
  Cs  Cs15  1  0.41437350  0.05250250  0.28864400  1
  Cs  Cs16  1  0.82164650  0.80079950  0.20466500  1
  Cs  Cs17  1  0.42328500  0.54492900  0.29470900  1
  Cs  Cs18  1  0.16054600  0.70460400  0.79380200  1
  Cs  Cs19  1  0.42328500  0.45507100  0.79470900  1
  Cs  Cs20  1  0.17835350  0.80079950  0.29533500  1
  Cs  Cs21  1  0.08562650  0.55250250  0.21135600  1
  Cs  Cs22  1  0.16054600  0.29539600  0.29380200  1
  Cs  Cs23  1  0.57671500  0.45507100  0.70529100  1
  Cs  Cs24  1  0.83945400  0.70460400  0.70619800  1
  Cs  Cs25  1  0.91437350  0.44749750  0.78864400  1
  Cs  Cs26  1  0.08562650  0.44749750  0.71135600  1
  Cs  Cs27  1  0.17835350  0.19920050  0.79533500  1
  Cs  Cs28  1  0.83945400  0.29539600  0.20619800  1
  Cs  Cs29  1  0.82164650  0.19920050  0.70466500  1
  Cs  Cs30  1  0.57671500  0.54492900  0.20529100  1
  Cs  Cs31  1  0.91437350  0.55250250  0.28864400  1
  Bi  Bi32  1  0.50251850  0.79975850  0.38056500  1
  Bi  Bi33  1  0.56947250  0.97099550  0.96652800  1
  Bi  Bi34  1  0.10401700  0.99013700  0.45804400  1
  Bi  Bi35  1  0.35219450  0.25806450  0.95682300  1
  Bi  Bi36  1  0.43052750  0.02900450  0.03347200  1
  Bi  Bi37  1  0.68195150  0.71889450  0.53804000  1
  Bi  Bi38  1  0.74584600  0.04633400  0.11364500  1
  Bi  Bi39  1  0.64780550  0.25806450  0.54317700  1
  Bi  Bi40  1  0.10401700  0.00986300  0.95804400  1
  Bi  Bi41  1  0.89598300  0.00986300  0.54195600  1
  Bi  Bi42  1  0.43052750  0.97099550  0.53347200  1
  Bi  Bi43  1  0.50251850  0.20024150  0.88056500  1
  Bi  Bi44  1  0.48327700  0.27569600  0.12055400  1
  Bi  Bi45  1  0.49748150  0.20024150  0.61943500  1
  Bi  Bi46  1  0.76385550  0.02866850  0.37167600  1
  Bi  Bi47  1  0.51672300  0.72430400  0.87944600  1
  Bi  Bi48  1  0.25415400  0.95366600  0.88635500  1
  Bi  Bi49  1  0.56947250  0.02900450  0.46652800  1
  Bi  Bi50  1  0.48327700  0.72430400  0.62055400  1
  Bi  Bi51  1  0.23614450  0.02866850  0.12832400  1
  Bi  Bi52  1  0.74584600  0.95366600  0.61364500  1
  Bi  Bi53  1  0.64780550  0.74193550  0.04317700  1
  Bi  Bi54  1  0.31804850  0.71889450  0.96196000  1
  Bi  Bi55  1  0.25415400  0.04633400  0.38635500  1
  Bi  Bi56  1  0.23614450  0.97133150  0.62832400  1
  Bi  Bi57  1  0.51672300  0.27569600  0.37944600  1
  Bi  Bi58  1  0.76385550  0.97133150  0.87167600  1
  Bi  Bi59  1  0.49748150  0.79975850  0.11943500  1
  Bi  Bi60  1  0.31804850  0.28110550  0.46196000  1
  Bi  Bi61  1  0.89598300  0.99013700  0.04195600  1
  Bi  Bi62  1  0.35219450  0.74193550  0.45682300  1
  Bi  Bi63  1  0.68195150  0.28110550  0.03804000  1
  Bi  Bi64  1  0.00251850  0.29975850  0.38056500  1
  Bi  Bi65  1  0.06947250  0.47099550  0.96652800  1
  Bi  Bi66  1  0.60401700  0.49013700  0.45804400  1
  Bi  Bi67  1  0.85219450  0.75806450  0.95682300  1
  Bi  Bi68  1  0.93052750  0.52900450  0.03347200  1
  Bi  Bi69  1  0.18195150  0.21889450  0.53804000  1
  Bi  Bi70  1  0.24584600  0.54633400  0.11364500  1
  Bi  Bi71  1  0.14780550  0.75806450  0.54317700  1
  Bi  Bi72  1  0.60401700  0.50986300  0.95804400  1
  Bi  Bi73  1  0.39598300  0.50986300  0.54195600  1
  Bi  Bi74  1  0.93052750  0.47099550  0.53347200  1
  Bi  Bi75  1  0.00251850  0.70024150  0.88056500  1
  Bi  Bi76  1  0.98327700  0.77569600  0.12055400  1
  Bi  Bi77  1  0.99748150  0.70024150  0.61943500  1
  Bi  Bi78  1  0.26385550  0.52866850  0.37167600  1
  Bi  Bi79  1  0.01672300  0.22430400  0.87944600  1
  Bi  Bi80  1  0.75415400  0.45366600  0.88635500  1
  Bi  Bi81  1  0.06947250  0.52900450  0.46652800  1
  Bi  Bi82  1  0.98327700  0.22430400  0.62055400  1
  Bi  Bi83  1  0.73614450  0.52866850  0.12832400  1
  Bi  Bi84  1  0.24584600  0.45366600  0.61364500  1
  Bi  Bi85  1  0.14780550  0.24193550  0.04317700  1
  Bi  Bi86  1  0.81804850  0.21889450  0.96196000  1
  Bi  Bi87  1  0.75415400  0.54633400  0.38635500  1
  Bi  Bi88  1  0.73614450  0.47133150  0.62832400  1
  Bi  Bi89  1  0.01672300  0.77569600  0.37944600  1
  Bi  Bi90  1  0.26385550  0.47133150  0.87167600  1
  Bi  Bi91  1  0.99748150  0.29975850  0.11943500  1
  Bi  Bi92  1  0.81804850  0.78110550  0.46196000  1
  Bi  Bi93  1  0.39598300  0.49013700  0.04195600  1
  Bi  Bi94  1  0.85219450  0.24193550  0.45682300  1
  Bi  Bi95  1  0.18195150  0.78110550  0.03804000  1
  O  O96  1  0.59186700  0.82307000  0.89870800  1
  O  O97  1  0.41229850  0.15284650  0.88151500  1
  O  O98  1  0.56812100  0.34631900  0.52483300  1
  O  O99  1  0.48481800  0.89955500  0.97257000  1
  O  O100  1  0.56506350  0.41049050  0.34830100  1
  O  O101  1  0.18557600  0.16143100  0.15499600  1
  O  O102  1  0.48481800  0.10044500  0.47257000  1
  O  O103  1  0.73331950  0.15011950  0.97300700  1
  O  O104  1  0.58770150  0.15284650  0.61848500  1
  O  O105  1  0.74276600  0.98905900  0.24140300  1
  O  O106  1  0.41229850  0.84715350  0.38151500  1
  O  O107  1  0.81442400  0.83856900  0.84500400  1
  O  O108  1  0.50000000  0.75041400  0.25000000  1
  O  O109  1  0.43187900  0.34631900  0.97516700  1
  O  O110  1  0.56506350  0.58950950  0.84830100  1
  O  O111  1  0.81648600  0.90164200  0.02208700  1
  O  O112  1  0.16348100  0.07551900  0.61212900  1
  O  O113  1  0.18351400  0.90164200  0.47791300  1
  O  O114  1  0.29107050  0.19123350  0.35336000  1
  O  O115  1  0.40813300  0.17693000  0.10129200  1
  O  O116  1  0.43187900  0.65368100  0.47516700  1
  O  O117  1  0.81648600  0.09835800  0.52208700  1
  O  O118  1  0.73331950  0.84988050  0.47300700  1
  O  O119  1  0.25723400  0.98905900  0.25859700  1
  O  O120  1  0.54268450  0.05582950  0.85429500  1
  O  O121  1  0.81442400  0.16143100  0.34500400  1
  O  O122  1  0.25723400  0.01094100  0.75859700  1
  O  O123  1  0.74276600  0.01094100  0.74140300  1
  O  O124  1  0.83725250  0.90957150  0.61891500  1
  O  O125  1  0.29107050  0.80876650  0.85336000  1
  O  O126  1  0.16348100  0.92448100  0.11212900  1
  O  O127  1  0.83651900  0.92448100  0.38787100  1
  O  O128  1  0.51518200  0.89955500  0.52743000  1
  O  O129  1  0.40813300  0.82307000  0.60129200  1
  O  O130  1  0.18557600  0.83856900  0.65499600  1
  O  O131  1  0.16274750  0.09042850  0.38108500  1
  O  O132  1  0.50000000  0.22850100  0.25000000  1
  O  O133  1  0.50000000  0.24958600  0.75000000  1
  O  O134  1  0.51518200  0.10044500  0.02743000  1
  O  O135  1  0.50000000  0.77149900  0.75000000  1
  O  O136  1  0.18351400  0.09835800  0.97791300  1
  O  O137  1  0.45731550  0.05582950  0.64570500  1
  O  O138  1  0.70892950  0.80876650  0.64664000  1
  O  O139  1  0.83725250  0.09042850  0.11891500  1
  O  O140  1  0.16274750  0.90957150  0.88108500  1
  O  O141  1  0.56812100  0.65368100  0.02483300  1
  O  O142  1  0.54268450  0.94417050  0.35429500  1
  O  O143  1  0.58770150  0.84715350  0.11848500  1
  O  O144  1  0.43493650  0.41049050  0.15169900  1
  O  O145  1  0.83651900  0.07551900  0.88787100  1
  O  O146  1  0.45731550  0.94417050  0.14570500  1
  O  O147  1  0.43493650  0.58950950  0.65169900  1
  O  O148  1  0.70892950  0.19123350  0.14664000  1
  O  O149  1  0.26668050  0.84988050  0.02699300  1
  O  O150  1  0.59186700  0.17693000  0.39870800  1
  O  O151  1  0.26668050  0.15011950  0.52699300  1
  O  O152  1  0.09186700  0.32307000  0.89870800  1
  O  O153  1  0.91229850  0.65284650  0.88151500  1
  O  O154  1  0.06812100  0.84631900  0.52483300  1
  O  O155  1  0.98481800  0.39955500  0.97257000  1
  O  O156  1  0.06506350  0.91049050  0.34830100  1
  O  O157  1  0.68557600  0.66143100  0.15499600  1
  O  O158  1  0.98481800  0.60044500  0.47257000  1
  O  O159  1  0.23331950  0.65011950  0.97300700  1
  O  O160  1  0.08770150  0.65284650  0.61848500  1
  O  O161  1  0.24276600  0.48905900  0.24140300  1
  O  O162  1  0.91229850  0.34715350  0.38151500  1
  O  O163  1  0.31442400  0.33856900  0.84500400  1
  O  O164  1  0.00000000  0.25041400  0.25000000  1
  O  O165  1  0.93187900  0.84631900  0.97516700  1
  O  O166  1  0.06506350  0.08950950  0.84830100  1
  O  O167  1  0.31648600  0.40164200  0.02208700  1
  O  O168  1  0.66348100  0.57551900  0.61212900  1
  O  O169  1  0.68351400  0.40164200  0.47791300  1
  O  O170  1  0.79107050  0.69123350  0.35336000  1
  O  O171  1  0.90813300  0.67693000  0.10129200  1
  O  O172  1  0.93187900  0.15368100  0.47516700  1
  O  O173  1  0.31648600  0.59835800  0.52208700  1
  O  O174  1  0.23331950  0.34988050  0.47300700  1
  O  O175  1  0.75723400  0.48905900  0.25859700  1
  O  O176  1  0.04268450  0.55582950  0.85429500  1
  O  O177  1  0.31442400  0.66143100  0.34500400  1
  O  O178  1  0.75723400  0.51094100  0.75859700  1
  O  O179  1  0.24276600  0.51094100  0.74140300  1
  O  O180  1  0.33725250  0.40957150  0.61891500  1
  O  O181  1  0.79107050  0.30876650  0.85336000  1
  O  O182  1  0.66348100  0.42448100  0.11212900  1
  O  O183  1  0.33651900  0.42448100  0.38787100  1
  O  O184  1  0.01518200  0.39955500  0.52743000  1
  O  O185  1  0.90813300  0.32307000  0.60129200  1
  O  O186  1  0.68557600  0.33856900  0.65499600  1
  O  O187  1  0.66274750  0.59042850  0.38108500  1
  O  O188  1  0.00000000  0.72850100  0.25000000  1
  O  O189  1  0.00000000  0.74958600  0.75000000  1
  O  O190  1  0.01518200  0.60044500  0.02743000  1
  O  O191  1  0.00000000  0.27149900  0.75000000  1
  O  O192  1  0.68351400  0.59835800  0.97791300  1
  O  O193  1  0.95731550  0.55582950  0.64570500  1
  O  O194  1  0.20892950  0.30876650  0.64664000  1
  O  O195  1  0.33725250  0.59042850  0.11891500  1
  O  O196  1  0.66274750  0.40957150  0.88108500  1
  O  O197  1  0.06812100  0.15368100  0.02483300  1
  O  O198  1  0.04268450  0.44417050  0.35429500  1
  O  O199  1  0.08770150  0.34715350  0.11848500  1
  O  O200  1  0.93493650  0.91049050  0.15169900  1
  O  O201  1  0.33651900  0.57551900  0.88787100  1
  O  O202  1  0.95731550  0.44417050  0.14570500  1
  O  O203  1  0.93493650  0.08950950  0.65169900  1
  O  O204  1  0.20892950  0.69123350  0.14664000  1
  O  O205  1  0.76668050  0.34988050  0.02699300  1
  O  O206  1  0.09186700  0.67693000  0.39870800  1
  O  O207  1  0.76668050  0.65011950  0.52699300  1
