# generated using pymatgen
data_U3O8
_symmetry_space_group_name_H-M   'P 1'
_cell_length_a   7.08372000
_cell_length_b   11.55172600
_cell_length_c   8.34264000
_cell_angle_alpha   90.00000000
_cell_angle_beta   90.00000000
_cell_angle_gamma   90.00000000
_symmetry_Int_Tables_number   1
_chemical_formula_structural   U3O8
_chemical_formula_sum   'U12 O32'
_cell_volume   682.67149452
_cell_formula_units_Z   4
loop_
 _symmetry_equiv_pos_site_id
 _symmetry_equiv_pos_as_xyz
  1  'x, y, z'
loop_
 _atom_site_type_symbol
 _atom_site_label
 _atom_site_symmetry_multiplicity
 _atom_site_fract_x
 _atom_site_fract_y
 _atom_site_fract_z
 _atom_site_occupancy
  U  U0  1  0.50000000  0.84945500  0.25000000  1
  U  U1  1  0.50000000  0.51110900  0.75000000  1
  U  U2  1  0.50000000  0.83276700  0.75000000  1
  U  U3  1  0.50000000  0.15054500  0.75000000  1
  U  U4  1  0.50000000  0.48889100  0.25000000  1
  U  U5  1  0.50000000  0.16723300  0.25000000  1
  U  U6  1  0.00000000  0.34945500  0.25000000  1
  U  U7  1  0.00000000  0.01110900  0.75000000  1
  U  U8  1  0.00000000  0.33276700  0.75000000  1
  U  U9  1  0.00000000  0.65054500  0.75000000  1
  U  U10  1  0.00000000  0.98889100  0.25000000  1
  U  U11  1  0.00000000  0.66723300  0.25000000  1
  O  O12  1  0.68125350  0.68751850  0.75000000  1
  O  O13  1  0.50000000  0.84675700  0.01346100  1
  O  O14  1  0.68411750  0.02285650  0.25000000  1
  O  O15  1  0.31874650  0.31248150  0.25000000  1
  O  O16  1  0.50000000  0.84675700  0.48653900  1
  O  O17  1  0.50000000  0.33313200  0.75000000  1
  O  O18  1  0.50000000  0.15324300  0.98653900  1
  O  O19  1  0.31588250  0.02285650  0.25000000  1
  O  O20  1  0.68125350  0.31248150  0.25000000  1
  O  O21  1  0.68411750  0.97714350  0.75000000  1
  O  O22  1  0.00000000  0.00000000  0.00000000  1
  O  O23  1  0.50000000  0.15324300  0.51346100  1
  O  O24  1  0.31874650  0.68751850  0.75000000  1
  O  O25  1  0.31588250  0.97714350  0.75000000  1
  O  O26  1  0.00000000  0.00000000  0.50000000  1
  O  O27  1  0.50000000  0.66686800  0.25000000  1
  O  O28  1  0.18125350  0.18751850  0.75000000  1
  O  O29  1  0.00000000  0.34675700  0.01346100  1
  O  O30  1  0.18411750  0.52285650  0.25000000  1
  O  O31  1  0.81874650  0.81248150  0.25000000  1
  O  O32  1  0.00000000  0.34675700  0.48653900  1
  O  O33  1  0.00000000  0.83313200  0.75000000  1
  O  O34  1  0.00000000  0.65324300  0.98653900  1
  O  O35  1  0.81588250  0.52285650  0.25000000  1
  O  O36  1  0.18125350  0.81248150  0.25000000  1
  O  O37  1  0.18411750  0.47714350  0.75000000  1
  O  O38  1  0.50000000  0.50000000  0.00000000  1
  O  O39  1  0.00000000  0.65324300  0.51346100  1
  O  O40  1  0.81874650  0.18751850  0.75000000  1
  O  O41  1  0.81588250  0.47714350  0.75000000  1
  O  O42  1  0.50000000  0.50000000  0.50000000  1
  O  O43  1  0.00000000  0.16686800  0.25000000  1
