# generated using pymatgen
data_KBi6ClO9
_symmetry_space_group_name_H-M   'P 1'
_cell_length_a   17.43275400
_cell_length_b   17.43275400
_cell_length_c   17.43275400
_cell_angle_alpha   90.00000000
_cell_angle_beta   90.00000000
_cell_angle_gamma   90.00000000
_symmetry_Int_Tables_number   1
_chemical_formula_structural   KBi6ClO9
_chemical_formula_sum   'K16 Bi96 Cl16 O144'
_cell_volume   5297.82983970
_cell_formula_units_Z   16
loop_
 _symmetry_equiv_pos_site_id
 _symmetry_equiv_pos_as_xyz
  1  'x, y, z'
loop_
 _atom_site_type_symbol
 _atom_site_label
 _atom_site_symmetry_multiplicity
 _atom_site_fract_x
 _atom_site_fract_y
 _atom_site_fract_z
 _atom_site_occupancy
  K  K0  1  0.25000000  0.75000000  0.25000000  1
  K  K1  1  0.00000000  0.50000000  0.00000000  1
  K  K2  1  0.25000000  0.25000000  0.25000000  1
  K  K3  1  0.00000000  0.00000000  0.00000000  1
  K  K4  1  0.50000000  0.00000000  0.00000000  1
  K  K5  1  0.00000000  0.00000000  0.50000000  1
  K  K6  1  0.25000000  0.25000000  0.75000000  1
  K  K7  1  0.75000000  0.25000000  0.25000000  1
  K  K8  1  0.75000000  0.25000000  0.75000000  1
  K  K9  1  0.50000000  0.00000000  0.50000000  1
  K  K10  1  0.75000000  0.75000000  0.75000000  1
  K  K11  1  0.50000000  0.50000000  0.50000000  1
  K  K12  1  0.00000000  0.50000000  0.50000000  1
  K  K13  1  0.50000000  0.50000000  0.00000000  1
  K  K14  1  0.75000000  0.75000000  0.25000000  1
  K  K15  1  0.25000000  0.75000000  0.75000000  1
  Bi  Bi16  1  0.25000000  0.98605900  0.50000000  1
  Bi  Bi17  1  0.26394100  0.50000000  0.25000000  1
  Bi  Bi18  1  0.50000000  0.25000000  0.26394100  1
  Bi  Bi19  1  0.25000000  0.23605900  0.00000000  1
  Bi  Bi20  1  0.39407250  0.12500000  0.14407250  1
  Bi  Bi21  1  0.37500000  0.14407250  0.60592750  1
  Bi  Bi22  1  0.51394100  0.00000000  0.25000000  1
  Bi  Bi23  1  0.37500000  0.64407250  0.39407250  1
  Bi  Bi24  1  0.50000000  0.25000000  0.98605900  1
  Bi  Bi25  1  0.25000000  0.48605900  0.50000000  1
  Bi  Bi26  1  0.12500000  0.85592750  0.10592750  1
  Bi  Bi27  1  0.60592750  0.37500000  0.14407250  1
  Bi  Bi28  1  0.14407250  0.60592750  0.37500000  1
  Bi  Bi29  1  0.50000000  0.25000000  0.76394100  1
  Bi  Bi30  1  0.37500000  0.35592750  0.10592750  1
  Bi  Bi31  1  0.10592750  0.62500000  0.14407250  1
  Bi  Bi32  1  0.39407250  0.37500000  0.64407250  1
  Bi  Bi33  1  0.87500000  0.35592750  0.39407250  1
  Bi  Bi34  1  0.76394100  0.50000000  0.25000000  1
  Bi  Bi35  1  0.10592750  0.12500000  0.85592750  1
  Bi  Bi36  1  0.23605900  0.00000000  0.25000000  1
  Bi  Bi37  1  0.14407250  0.10592750  0.62500000  1
  Bi  Bi38  1  0.35592750  0.89407250  0.12500000  1
  Bi  Bi39  1  0.12500000  0.35592750  0.89407250  1
  Bi  Bi40  1  0.14407250  0.39407250  0.12500000  1
  Bi  Bi41  1  0.25000000  0.01394100  0.00000000  1
  Bi  Bi42  1  0.35592750  0.10592750  0.37500000  1
  Bi  Bi43  1  0.35592750  0.39407250  0.87500000  1
  Bi  Bi44  1  0.25000000  0.51394100  0.00000000  1
  Bi  Bi45  1  0.25000000  0.26394100  0.50000000  1
  Bi  Bi46  1  0.89407250  0.12500000  0.35592750  1
  Bi  Bi47  1  0.00000000  0.25000000  0.01394100  1
  Bi  Bi48  1  0.50000000  0.25000000  0.48605900  1
  Bi  Bi49  1  0.85592750  0.10592750  0.12500000  1
  Bi  Bi50  1  0.64407250  0.39407250  0.37500000  1
  Bi  Bi51  1  0.00000000  0.25000000  0.73605900  1
  Bi  Bi52  1  0.12500000  0.14407250  0.39407250  1
  Bi  Bi53  1  0.48605900  0.50000000  0.25000000  1
  Bi  Bi54  1  0.25000000  0.76394100  0.50000000  1
  Bi  Bi55  1  0.00000000  0.25000000  0.51394100  1
  Bi  Bi56  1  0.62500000  0.14407250  0.10592750  1
  Bi  Bi57  1  0.25000000  0.73605900  0.00000000  1
  Bi  Bi58  1  0.39407250  0.87500000  0.35592750  1
  Bi  Bi59  1  0.10592750  0.37500000  0.35592750  1
  Bi  Bi60  1  0.00000000  0.25000000  0.23605900  1
  Bi  Bi61  1  0.73605900  0.00000000  0.25000000  1
  Bi  Bi62  1  0.98605900  0.50000000  0.25000000  1
  Bi  Bi63  1  0.01394100  0.00000000  0.25000000  1
  Bi  Bi64  1  0.75000000  0.48605900  0.00000000  1
  Bi  Bi65  1  0.76394100  0.00000000  0.75000000  1
  Bi  Bi66  1  0.00000000  0.75000000  0.76394100  1
  Bi  Bi67  1  0.75000000  0.73605900  0.50000000  1
  Bi  Bi68  1  0.89407250  0.62500000  0.64407250  1
  Bi  Bi69  1  0.87500000  0.64407250  0.10592750  1
  Bi  Bi70  1  0.01394100  0.50000000  0.75000000  1
  Bi  Bi71  1  0.87500000  0.14407250  0.89407250  1
  Bi  Bi72  1  0.00000000  0.75000000  0.48605900  1
  Bi  Bi73  1  0.75000000  0.98605900  0.00000000  1
  Bi  Bi74  1  0.62500000  0.35592750  0.60592750  1
  Bi  Bi75  1  0.10592750  0.87500000  0.64407250  1
  Bi  Bi76  1  0.64407250  0.10592750  0.87500000  1
  Bi  Bi77  1  0.00000000  0.75000000  0.26394100  1
  Bi  Bi78  1  0.87500000  0.85592750  0.60592750  1
  Bi  Bi79  1  0.60592750  0.12500000  0.64407250  1
  Bi  Bi80  1  0.89407250  0.87500000  0.14407250  1
  Bi  Bi81  1  0.37500000  0.85592750  0.89407250  1
  Bi  Bi82  1  0.26394100  0.00000000  0.75000000  1
  Bi  Bi83  1  0.60592750  0.62500000  0.35592750  1
  Bi  Bi84  1  0.73605900  0.50000000  0.75000000  1
  Bi  Bi85  1  0.64407250  0.60592750  0.12500000  1
  Bi  Bi86  1  0.85592750  0.39407250  0.62500000  1
  Bi  Bi87  1  0.62500000  0.85592750  0.39407250  1
  Bi  Bi88  1  0.64407250  0.89407250  0.62500000  1
  Bi  Bi89  1  0.75000000  0.51394100  0.50000000  1
  Bi  Bi90  1  0.85592750  0.60592750  0.87500000  1
  Bi  Bi91  1  0.85592750  0.89407250  0.37500000  1
  Bi  Bi92  1  0.75000000  0.01394100  0.50000000  1
  Bi  Bi93  1  0.75000000  0.76394100  0.00000000  1
  Bi  Bi94  1  0.39407250  0.62500000  0.85592750  1
  Bi  Bi95  1  0.50000000  0.75000000  0.51394100  1
  Bi  Bi96  1  0.00000000  0.75000000  0.98605900  1
  Bi  Bi97  1  0.35592750  0.60592750  0.62500000  1
  Bi  Bi98  1  0.14407250  0.89407250  0.87500000  1
  Bi  Bi99  1  0.50000000  0.75000000  0.23605900  1
  Bi  Bi100  1  0.62500000  0.64407250  0.89407250  1
  Bi  Bi101  1  0.98605900  0.00000000  0.75000000  1
  Bi  Bi102  1  0.75000000  0.26394100  0.00000000  1
  Bi  Bi103  1  0.50000000  0.75000000  0.01394100  1
  Bi  Bi104  1  0.12500000  0.64407250  0.60592750  1
  Bi  Bi105  1  0.75000000  0.23605900  0.50000000  1
  Bi  Bi106  1  0.89407250  0.37500000  0.85592750  1
  Bi  Bi107  1  0.60592750  0.87500000  0.85592750  1
  Bi  Bi108  1  0.50000000  0.75000000  0.73605900  1
  Bi  Bi109  1  0.23605900  0.50000000  0.75000000  1
  Bi  Bi110  1  0.48605900  0.00000000  0.75000000  1
  Bi  Bi111  1  0.51394100  0.50000000  0.75000000  1
  Cl  Cl112  1  0.12500000  0.12500000  0.12500000  1
  Cl  Cl113  1  0.87500000  0.37500000  0.12500000  1
  Cl  Cl114  1  0.37500000  0.12500000  0.87500000  1
  Cl  Cl115  1  0.37500000  0.37500000  0.37500000  1
  Cl  Cl116  1  0.87500000  0.12500000  0.62500000  1
  Cl  Cl117  1  0.62500000  0.87500000  0.12500000  1
  Cl  Cl118  1  0.12500000  0.87500000  0.37500000  1
  Cl  Cl119  1  0.12500000  0.62500000  0.87500000  1
  Cl  Cl120  1  0.62500000  0.62500000  0.62500000  1
  Cl  Cl121  1  0.37500000  0.87500000  0.62500000  1
  Cl  Cl122  1  0.87500000  0.62500000  0.37500000  1
  Cl  Cl123  1  0.87500000  0.87500000  0.87500000  1
  Cl  Cl124  1  0.37500000  0.62500000  0.12500000  1
  Cl  Cl125  1  0.12500000  0.37500000  0.62500000  1
  Cl  Cl126  1  0.62500000  0.37500000  0.87500000  1
  Cl  Cl127  1  0.62500000  0.12500000  0.37500000  1
  O  O128  1  0.01890450  0.12500000  0.76890450  1
  O  O129  1  0.37500000  0.26890450  0.01890450  1
  O  O130  1  0.49893750  0.84872750  0.43861050  1
  O  O131  1  0.31138950  0.90127250  0.25106250  1
  O  O132  1  0.74893750  0.18861050  0.90127250  1
  O  O133  1  0.65127250  0.43861050  0.50106250  1
  O  O134  1  0.99893750  0.84872750  0.06138950  1
  O  O135  1  0.18861050  0.40127250  0.25106250  1
  O  O136  1  0.06138950  0.00106250  0.65127250  1
  O  O137  1  0.01890450  0.37500000  0.26890450  1
  O  O138  1  0.00106250  0.65127250  0.06138950  1
  O  O139  1  0.84872750  0.06138950  0.99893750  1
  O  O140  1  0.90127250  0.25106250  0.31138950  1
  O  O141  1  0.18861050  0.09872750  0.75106250  1
  O  O142  1  0.48109550  0.12500000  0.23109550  1
  O  O143  1  0.76890450  0.01890450  0.12500000  1
  O  O144  1  0.34872750  0.43861050  0.00106250  1
  O  O145  1  0.99893750  0.15127250  0.43861050  1
  O  O146  1  0.43861050  0.99893750  0.15127250  1
  O  O147  1  0.00106250  0.34872750  0.43861050  1
  O  O148  1  0.40127250  0.74893750  0.31138950  1
  O  O149  1  0.75106250  0.31138950  0.59872750  1
  O  O150  1  0.50106250  0.65127250  0.43861050  1
  O  O151  1  0.90127250  0.74893750  0.18861050  1
  O  O152  1  0.43861050  0.00106250  0.34872750  1
  O  O153  1  0.25106250  0.18861050  0.40127250  1
  O  O154  1  0.59872750  0.24893750  0.18861050  1
  O  O155  1  0.74893750  0.31138950  0.40127250  1
  O  O156  1  0.65127250  0.06138950  0.00106250  1
  O  O157  1  0.01890450  0.62500000  0.23109550  1
  O  O158  1  0.40127250  0.25106250  0.18861050  1
  O  O159  1  0.43861050  0.50106250  0.65127250  1
  O  O160  1  0.12500000  0.23109550  0.48109550  1
  O  O161  1  0.23109550  0.48109550  0.12500000  1
  O  O162  1  0.43861050  0.49893750  0.84872750  1
  O  O163  1  0.98109550  0.12500000  0.26890450  1
  O  O164  1  0.49893750  0.15127250  0.06138950  1
  O  O165  1  0.84872750  0.43861050  0.49893750  1
  O  O166  1  0.75106250  0.18861050  0.09872750  1
  O  O167  1  0.25106250  0.31138950  0.90127250  1
  O  O168  1  0.24893750  0.18861050  0.59872750  1
  O  O169  1  0.31138950  0.40127250  0.74893750  1
  O  O170  1  0.31138950  0.09872750  0.24893750  1
  O  O171  1  0.23109550  0.01890450  0.62500000  1
  O  O172  1  0.50106250  0.34872750  0.06138950  1
  O  O173  1  0.09872750  0.24893750  0.31138950  1
  O  O174  1  0.06138950  0.50106250  0.34872750  1
  O  O175  1  0.26890450  0.98109550  0.12500000  1
  O  O176  1  0.26890450  0.01890450  0.37500000  1
  O  O177  1  0.06138950  0.49893750  0.15127250  1
  O  O178  1  0.73109550  0.48109550  0.37500000  1
  O  O179  1  0.51890450  0.37500000  0.23109550  1
  O  O180  1  0.12500000  0.76890450  0.01890450  1
  O  O181  1  0.24893750  0.31138950  0.09872750  1
  O  O182  1  0.37500000  0.23109550  0.51890450  1
  O  O183  1  0.31138950  0.59872750  0.75106250  1
  O  O184  1  0.37500000  0.73109550  0.48109550  1
  O  O185  1  0.48109550  0.87500000  0.26890450  1
  O  O186  1  0.12500000  0.26890450  0.98109550  1
  O  O187  1  0.26890450  0.48109550  0.87500000  1
  O  O188  1  0.59872750  0.75106250  0.31138950  1
  O  O189  1  0.09872750  0.75106250  0.18861050  1
  O  O190  1  0.18861050  0.90127250  0.74893750  1
  O  O191  1  0.34872750  0.06138950  0.50106250  1
  O  O192  1  0.18861050  0.59872750  0.24893750  1
  O  O193  1  0.15127250  0.06138950  0.49893750  1
  O  O194  1  0.23109550  0.51890450  0.37500000  1
  O  O195  1  0.15127250  0.43861050  0.99893750  1
  O  O196  1  0.87500000  0.26890450  0.48109550  1
  O  O197  1  0.06138950  0.99893750  0.84872750  1
  O  O198  1  0.62500000  0.23109550  0.01890450  1
  O  O199  1  0.48109550  0.37500000  0.73109550  1
  O  O200  1  0.51890450  0.62500000  0.26890450  1
  O  O201  1  0.87500000  0.76890450  0.51890450  1
  O  O202  1  0.99893750  0.34872750  0.93861050  1
  O  O203  1  0.81138950  0.40127250  0.75106250  1
  O  O204  1  0.24893750  0.68861050  0.40127250  1
  O  O205  1  0.15127250  0.93861050  0.00106250  1
  O  O206  1  0.49893750  0.34872750  0.56138950  1
  O  O207  1  0.68861050  0.90127250  0.75106250  1
  O  O208  1  0.56138950  0.50106250  0.15127250  1
  O  O209  1  0.51890450  0.87500000  0.76890450  1
  O  O210  1  0.50106250  0.15127250  0.56138950  1
  O  O211  1  0.34872750  0.56138950  0.49893750  1
  O  O212  1  0.40127250  0.75106250  0.81138950  1
  O  O213  1  0.68861050  0.59872750  0.25106250  1
  O  O214  1  0.98109550  0.62500000  0.73109550  1
  O  O215  1  0.26890450  0.51890450  0.62500000  1
  O  O216  1  0.84872750  0.93861050  0.50106250  1
  O  O217  1  0.49893750  0.65127250  0.93861050  1
  O  O218  1  0.93861050  0.49893750  0.65127250  1
  O  O219  1  0.50106250  0.84872750  0.93861050  1
  O  O220  1  0.90127250  0.24893750  0.81138950  1
  O  O221  1  0.25106250  0.81138950  0.09872750  1
  O  O222  1  0.00106250  0.15127250  0.93861050  1
  O  O223  1  0.40127250  0.24893750  0.68861050  1
  O  O224  1  0.93861050  0.50106250  0.84872750  1
  O  O225  1  0.75106250  0.68861050  0.90127250  1
  O  O226  1  0.09872750  0.74893750  0.68861050  1
  O  O227  1  0.24893750  0.81138950  0.90127250  1
  O  O228  1  0.15127250  0.56138950  0.50106250  1
  O  O229  1  0.51890450  0.12500000  0.73109550  1
  O  O230  1  0.90127250  0.75106250  0.68861050  1
  O  O231  1  0.93861050  0.00106250  0.15127250  1
  O  O232  1  0.62500000  0.73109550  0.98109550  1
  O  O233  1  0.73109550  0.98109550  0.62500000  1
  O  O234  1  0.93861050  0.99893750  0.34872750  1
  O  O235  1  0.48109550  0.62500000  0.76890450  1
  O  O236  1  0.99893750  0.65127250  0.56138950  1
  O  O237  1  0.34872750  0.93861050  0.99893750  1
  O  O238  1  0.25106250  0.68861050  0.59872750  1
  O  O239  1  0.75106250  0.81138950  0.40127250  1
  O  O240  1  0.74893750  0.68861050  0.09872750  1
  O  O241  1  0.81138950  0.90127250  0.24893750  1
  O  O242  1  0.81138950  0.59872750  0.74893750  1
  O  O243  1  0.73109550  0.51890450  0.12500000  1
  O  O244  1  0.00106250  0.84872750  0.56138950  1
  O  O245  1  0.59872750  0.74893750  0.81138950  1
  O  O246  1  0.56138950  0.00106250  0.84872750  1
  O  O247  1  0.76890450  0.48109550  0.62500000  1
  O  O248  1  0.76890450  0.51890450  0.87500000  1
  O  O249  1  0.56138950  0.99893750  0.65127250  1
  O  O250  1  0.23109550  0.98109550  0.87500000  1
  O  O251  1  0.01890450  0.87500000  0.73109550  1
  O  O252  1  0.62500000  0.26890450  0.51890450  1
  O  O253  1  0.74893750  0.81138950  0.59872750  1
  O  O254  1  0.87500000  0.73109550  0.01890450  1
  O  O255  1  0.81138950  0.09872750  0.25106250  1
  O  O256  1  0.87500000  0.23109550  0.98109550  1
  O  O257  1  0.98109550  0.37500000  0.76890450  1
  O  O258  1  0.62500000  0.76890450  0.48109550  1
  O  O259  1  0.76890450  0.98109550  0.37500000  1
  O  O260  1  0.09872750  0.25106250  0.81138950  1
  O  O261  1  0.59872750  0.25106250  0.68861050  1
  O  O262  1  0.68861050  0.40127250  0.24893750  1
  O  O263  1  0.84872750  0.56138950  0.00106250  1
  O  O264  1  0.68861050  0.09872750  0.74893750  1
  O  O265  1  0.65127250  0.56138950  0.99893750  1
  O  O266  1  0.73109550  0.01890450  0.87500000  1
  O  O267  1  0.65127250  0.93861050  0.49893750  1
  O  O268  1  0.37500000  0.76890450  0.98109550  1
  O  O269  1  0.56138950  0.49893750  0.34872750  1
  O  O270  1  0.12500000  0.73109550  0.51890450  1
  O  O271  1  0.98109550  0.87500000  0.23109550  1
