# generated using pymatgen
data_K2ScSi4O10F
_symmetry_space_group_name_H-M   'P 1'
_cell_length_a   11.33590800
_cell_length_b   11.33590800
_cell_length_c   8.26827800
_cell_angle_alpha   90.00000000
_cell_angle_beta   90.00000000
_cell_angle_gamma   90.00000000
_symmetry_Int_Tables_number   1
_chemical_formula_structural   K2ScSi4O10F
_chemical_formula_sum   'K8 Sc4 Si16 O40 F4'
_cell_volume   1062.49695839
_cell_formula_units_Z   4
loop_
 _symmetry_equiv_pos_site_id
 _symmetry_equiv_pos_as_xyz
  1  'x, y, z'
loop_
 _atom_site_type_symbol
 _atom_site_label
 _atom_site_symmetry_multiplicity
 _atom_site_fract_x
 _atom_site_fract_y
 _atom_site_fract_z
 _atom_site_occupancy
  K  K0  1  0.68419850  0.68425450  0.00000000  1
  K  K1  1  0.81574550  0.18419850  0.50000000  1
  K  K2  1  0.31580150  0.31574550  0.00000000  1
  K  K3  1  0.18425450  0.81580150  0.50000000  1
  K  K4  1  0.18419850  0.18425450  0.50000000  1
  K  K5  1  0.31574550  0.68419850  0.00000000  1
  K  K6  1  0.81580150  0.81574550  0.50000000  1
  K  K7  1  0.68425450  0.31580150  0.00000000  1
  Sc  Sc8  1  0.00000000  0.00000000  0.75502300  1
  Sc  Sc9  1  0.00000000  0.00000000  0.24497700  1
  Sc  Sc10  1  0.50000000  0.50000000  0.25502300  1
  Sc  Sc11  1  0.50000000  0.50000000  0.74497700  1
  Si  Si12  1  0.48918500  0.81357900  0.30850700  1
  Si  Si13  1  0.51081500  0.18642100  0.30850700  1
  Si  Si14  1  0.31357900  0.01081500  0.19149300  1
  Si  Si15  1  0.68642100  0.98918500  0.19149300  1
  Si  Si16  1  0.48918500  0.81357900  0.69149300  1
  Si  Si17  1  0.68642100  0.98918500  0.80850700  1
  Si  Si18  1  0.31357900  0.01081500  0.80850700  1
  Si  Si19  1  0.51081500  0.18642100  0.69149300  1
  Si  Si20  1  0.98918500  0.31357900  0.80850700  1
  Si  Si21  1  0.01081500  0.68642100  0.80850700  1
  Si  Si22  1  0.81357900  0.51081500  0.69149300  1
  Si  Si23  1  0.18642100  0.48918500  0.69149300  1
  Si  Si24  1  0.98918500  0.31357900  0.19149300  1
  Si  Si25  1  0.18642100  0.48918500  0.30850700  1
  Si  Si26  1  0.81357900  0.51081500  0.30850700  1
  Si  Si27  1  0.01081500  0.68642100  0.19149300  1
  O  O28  1  0.68271200  0.94794400  0.00000000  1
  O  O29  1  0.50121000  0.68409300  0.76466300  1
  O  O30  1  0.61426300  0.11531300  0.79374300  1
  O  O31  1  0.81590700  0.00121000  0.73533700  1
  O  O32  1  0.50121000  0.68409300  0.23533700  1
  O  O33  1  0.61531300  0.88573700  0.29374300  1
  O  O34  1  0.38468700  0.11426300  0.29374300  1
  O  O35  1  0.81590700  0.00121000  0.26466300  1
  O  O36  1  0.31728800  0.05205600  0.00000000  1
  O  O37  1  0.38468700  0.11426300  0.70625700  1
  O  O38  1  0.61426300  0.11531300  0.20625700  1
  O  O39  1  0.61531300  0.88573700  0.70625700  1
  O  O40  1  0.44794400  0.81728800  0.50000000  1
  O  O41  1  0.49879000  0.31590700  0.76466300  1
  O  O42  1  0.18409300  0.99879000  0.26466300  1
  O  O43  1  0.49879000  0.31590700  0.23533700  1
  O  O44  1  0.18409300  0.99879000  0.73533700  1
  O  O45  1  0.55205600  0.18271200  0.50000000  1
  O  O46  1  0.38573700  0.88468700  0.20625700  1
  O  O47  1  0.38573700  0.88468700  0.79374300  1
  O  O48  1  0.18271200  0.44794400  0.50000000  1
  O  O49  1  0.00121000  0.18409300  0.26466300  1
  O  O50  1  0.11426300  0.61531300  0.29374300  1
  O  O51  1  0.31590700  0.50121000  0.23533700  1
  O  O52  1  0.00121000  0.18409300  0.73533700  1
  O  O53  1  0.11531300  0.38573700  0.79374300  1
  O  O54  1  0.88468700  0.61426300  0.79374300  1
  O  O55  1  0.31590700  0.50121000  0.76466300  1
  O  O56  1  0.81728800  0.55205600  0.50000000  1
  O  O57  1  0.88468700  0.61426300  0.20625700  1
  O  O58  1  0.11426300  0.61531300  0.70625700  1
  O  O59  1  0.11531300  0.38573700  0.20625700  1
  O  O60  1  0.94794400  0.31728800  0.00000000  1
  O  O61  1  0.99879000  0.81590700  0.26466300  1
  O  O62  1  0.68409300  0.49879000  0.76466300  1
  O  O63  1  0.99879000  0.81590700  0.73533700  1
  O  O64  1  0.68409300  0.49879000  0.23533700  1
  O  O65  1  0.05205600  0.68271200  0.00000000  1
  O  O66  1  0.88573700  0.38468700  0.70625700  1
  O  O67  1  0.88573700  0.38468700  0.29374300  1
  F  F68  1  0.00000000  0.00000000  0.00000000  1
  F  F69  1  0.00000000  0.00000000  0.50000000  1
  F  F70  1  0.50000000  0.50000000  0.50000000  1
  F  F71  1  0.50000000  0.50000000  0.00000000  1
