# generated using pymatgen
data_BaZnSO
_symmetry_space_group_name_H-M   'P 1'
_cell_length_a   3.99171200
_cell_length_b   13.03958600
_cell_length_c   6.19643500
_cell_angle_alpha   90.00000000
_cell_angle_beta   90.00000000
_cell_angle_gamma   90.00000000
_symmetry_Int_Tables_number   1
_chemical_formula_structural   BaZnSO
_chemical_formula_sum   'Ba4 Zn4 S4 O4'
_cell_volume   322.52612663
_cell_formula_units_Z   4
loop_
 _symmetry_equiv_pos_site_id
 _symmetry_equiv_pos_as_xyz
  1  'x, y, z'
loop_
 _atom_site_type_symbol
 _atom_site_label
 _atom_site_symmetry_multiplicity
 _atom_site_fract_x
 _atom_site_fract_y
 _atom_site_fract_z
 _atom_site_occupancy
  Ba  Ba0  1  0.50000000  0.60791200  0.75000000  1
  Ba  Ba1  1  0.00000000  0.89208800  0.25000000  1
  Ba  Ba2  1  0.00000000  0.10791200  0.75000000  1
  Ba  Ba3  1  0.50000000  0.39208800  0.25000000  1
  Zn  Zn4  1  0.00000000  0.59848800  0.25000000  1
  Zn  Zn5  1  0.50000000  0.90151200  0.75000000  1
  Zn  Zn6  1  0.50000000  0.09848800  0.25000000  1
  Zn  Zn7  1  0.00000000  0.40151200  0.75000000  1
  S  S8  1  0.50000000  0.69349200  0.25000000  1
  S  S9  1  0.00000000  0.80650800  0.75000000  1
  S  S10  1  0.00000000  0.19349200  0.25000000  1
  S  S11  1  0.50000000  0.30650800  0.75000000  1
  O  O12  1  0.50000000  0.00000000  0.50000000  1
  O  O13  1  0.50000000  0.00000000  0.00000000  1
  O  O14  1  0.00000000  0.50000000  0.50000000  1
  O  O15  1  0.00000000  0.50000000  0.00000000  1
