# generated using pymatgen
data_TaAgS3
_symmetry_space_group_name_H-M   'P 1'
_cell_length_a   3.39209600
_cell_length_b   14.36025200
_cell_length_c   7.78599500
_cell_angle_alpha   90.00000000
_cell_angle_beta   90.00000000
_cell_angle_gamma   90.00000000
_symmetry_Int_Tables_number   1
_chemical_formula_structural   TaAgS3
_chemical_formula_sum   'Ta4 Ag4 S12'
_cell_volume   379.26635377
_cell_formula_units_Z   4
loop_
 _symmetry_equiv_pos_site_id
 _symmetry_equiv_pos_as_xyz
  1  'x, y, z'
loop_
 _atom_site_type_symbol
 _atom_site_label
 _atom_site_symmetry_multiplicity
 _atom_site_fract_x
 _atom_site_fract_y
 _atom_site_fract_z
 _atom_site_occupancy
  Ta  Ta0  1  0.00000000  0.26301000  0.25000000  1
  Ta  Ta1  1  0.50000000  0.23699000  0.75000000  1
  Ta  Ta2  1  0.50000000  0.76301000  0.25000000  1
  Ta  Ta3  1  0.00000000  0.73699000  0.75000000  1
  Ag  Ag4  1  0.00000000  0.00000000  0.00000000  1
  Ag  Ag5  1  0.00000000  0.00000000  0.50000000  1
  Ag  Ag6  1  0.50000000  0.50000000  0.00000000  1
  Ag  Ag7  1  0.50000000  0.50000000  0.50000000  1
  S  S8  1  0.50000000  0.17460200  0.42964800  1
  S  S9  1  0.00000000  0.32539800  0.57035200  1
  S  S10  1  0.00000000  0.32539800  0.92964800  1
  S  S11  1  0.50000000  0.17460200  0.07035200  1
  S  S12  1  0.50000000  0.39569600  0.25000000  1
  S  S13  1  0.00000000  0.10430400  0.75000000  1
  S  S14  1  0.00000000  0.67460200  0.42964800  1
  S  S15  1  0.50000000  0.82539800  0.57035200  1
  S  S16  1  0.50000000  0.82539800  0.92964800  1
  S  S17  1  0.00000000  0.67460200  0.07035200  1
  S  S18  1  0.00000000  0.89569600  0.25000000  1
  S  S19  1  0.50000000  0.60430400  0.75000000  1
