# generated using pymatgen
data_Ho2Sn3(PbS4)3
_symmetry_space_group_name_H-M   'P 1'
_cell_length_a   3.93968600
_cell_length_b   11.65239300
_cell_length_c   20.42475200
_cell_angle_alpha   90.00000000
_cell_angle_beta   90.00000000
_cell_angle_gamma   90.00000000
_symmetry_Int_Tables_number   1
_chemical_formula_structural   Ho2Sn3(PbS4)3
_chemical_formula_sum   'Ho4 Sn6 Pb6 S24'
_cell_volume   937.63438356
_cell_formula_units_Z   2
loop_
 _symmetry_equiv_pos_site_id
 _symmetry_equiv_pos_as_xyz
  1  'x, y, z'
loop_
 _atom_site_type_symbol
 _atom_site_label
 _atom_site_symmetry_multiplicity
 _atom_site_fract_x
 _atom_site_fract_y
 _atom_site_fract_z
 _atom_site_occupancy
  Ho  Ho0  1  0.00000000  0.86947800  0.10655100  1
  Ho  Ho1  1  0.00000000  0.36947800  0.89344900  1
  Ho  Ho2  1  0.00000000  0.54838900  0.41211000  1
  Ho  Ho3  1  0.00000000  0.04838900  0.58789000  1
  Sn  Sn4  1  0.50000000  0.67680500  0.91131900  1
  Sn  Sn5  1  0.50000000  0.69271800  0.24985200  1
  Sn  Sn6  1  0.50000000  0.20019100  0.42834300  1
  Sn  Sn7  1  0.50000000  0.19271800  0.75014800  1
  Sn  Sn8  1  0.50000000  0.70019100  0.57165700  1
  Sn  Sn9  1  0.50000000  0.17680500  0.08868100  1
  Pb  Pb10  1  0.00000000  0.29013600  0.26031500  1
  Pb  Pb11  1  0.00000000  0.99202600  0.91558200  1
  Pb  Pb12  1  0.00000000  0.49202600  0.08441800  1
  Pb  Pb13  1  0.00000000  0.79013600  0.73968500  1
  Pb  Pb14  1  0.00000000  0.92194400  0.37876500  1
  Pb  Pb15  1  0.00000000  0.42194400  0.62123500  1
  S  S16  1  0.50000000  0.88942900  0.63725500  1
  S  S17  1  0.50000000  0.09449000  0.32458900  1
  S  S18  1  0.50000000  0.38942900  0.36274500  1
  S  S19  1  0.50000000  0.21053800  0.62631700  1
  S  S20  1  0.00000000  0.59344900  0.84139100  1
  S  S21  1  0.50000000  0.70482900  0.12461000  1
  S  S22  1  0.00000000  0.26071200  0.01766000  1
  S  S23  1  0.50000000  0.85767700  0.84168200  1
  S  S24  1  0.00000000  0.76071200  0.98234000  1
  S  S25  1  0.00000000  0.75279800  0.50387000  1
  S  S26  1  0.50000000  0.20482900  0.87539000  1
  S  S27  1  0.50000000  0.71053800  0.37368300  1
  S  S28  1  0.50000000  0.98139500  0.03209100  1
  S  S29  1  0.50000000  0.00984500  0.49143200  1
  S  S30  1  0.00000000  0.84441400  0.24321700  1
  S  S31  1  0.50000000  0.50984500  0.50856800  1
  S  S32  1  0.50000000  0.59449000  0.67541100  1
  S  S33  1  0.00000000  0.09344900  0.15860900  1
  S  S34  1  0.00000000  0.54793700  0.26130400  1
  S  S35  1  0.50000000  0.35767700  0.15831800  1
  S  S36  1  0.00000000  0.34441400  0.75678300  1
  S  S37  1  0.00000000  0.25279800  0.49613000  1
  S  S38  1  0.50000000  0.48139500  0.96790900  1
  S  S39  1  0.00000000  0.04793700  0.73869600  1
