# generated using pymatgen
data_CdGe(BiO3)2
_symmetry_space_group_name_H-M   'P 1'
_cell_length_a   10.36484000
_cell_length_b   5.70321300
_cell_length_c   14.75445285
_cell_angle_alpha   90.00000000
_cell_angle_beta   134.09058329
_cell_angle_gamma   90.00000000
_symmetry_Int_Tables_number   1
_chemical_formula_structural   CdGe(BiO3)2
_chemical_formula_sum   'Cd4 Ge4 Bi8 O24'
_cell_volume   626.43395777
_cell_formula_units_Z   4
loop_
 _symmetry_equiv_pos_site_id
 _symmetry_equiv_pos_as_xyz
  1  'x, y, z'
loop_
 _atom_site_type_symbol
 _atom_site_label
 _atom_site_symmetry_multiplicity
 _atom_site_fract_x
 _atom_site_fract_y
 _atom_site_fract_z
 _atom_site_occupancy
  Cd  Cd0  1  0.88799700  0.74960900  0.50181300  1
  Cd  Cd1  1  0.11200300  0.24960900  0.99818700  1
  Cd  Cd2  1  0.88799700  0.75039100  0.00181300  1
  Cd  Cd3  1  0.11200300  0.25039100  0.49818700  1
  Ge  Ge4  1  0.34557600  0.74528700  0.99818800  1
  Ge  Ge5  1  0.65442400  0.24528700  0.50181200  1
  Ge  Ge6  1  0.34557600  0.75471300  0.49818800  1
  Ge  Ge7  1  0.65442400  0.25471300  0.00181200  1
  Bi  Bi8  1  0.15713400  0.28540200  0.26231700  1
  Bi  Bi9  1  0.15713400  0.21459800  0.76231700  1
  Bi  Bi10  1  0.84286600  0.78540200  0.23768300  1
  Bi  Bi11  1  0.36442700  0.71364800  0.75470000  1
  Bi  Bi12  1  0.63557300  0.28635200  0.24530000  1
  Bi  Bi13  1  0.63557300  0.21364800  0.74530000  1
  Bi  Bi14  1  0.84286600  0.71459800  0.73768300  1
  Bi  Bi15  1  0.36442700  0.78635200  0.25470000  1
  O  O16  1  0.17524400  0.48834800  0.14514500  1
  O  O17  1  0.82475600  0.51165200  0.85485500  1
  O  O18  1  0.32138700  0.95703300  0.07459300  1
  O  O19  1  0.43423700  0.12620400  0.37690700  1
  O  O20  1  0.56576300  0.87379600  0.62309300  1
  O  O21  1  0.11889800  0.98850300  0.14686300  1
  O  O22  1  0.67399600  0.12579700  0.12120000  1
  O  O23  1  0.82475600  0.98834800  0.35485500  1
  O  O24  1  0.32600400  0.62579700  0.37880000  1
  O  O25  1  0.43423700  0.37379600  0.87690700  1
  O  O26  1  0.82352400  0.47594300  0.08030500  1
  O  O27  1  0.67399600  0.37420300  0.62120000  1
  O  O28  1  0.56576300  0.62620400  0.12309300  1
  O  O29  1  0.67861300  0.45703300  0.42540700  1
  O  O30  1  0.88110200  0.01149700  0.85313700  1
  O  O31  1  0.82352400  0.02405700  0.58030500  1
  O  O32  1  0.67861300  0.04296700  0.92540700  1
  O  O33  1  0.32600400  0.87420300  0.87880000  1
  O  O34  1  0.17524400  0.01165200  0.64514500  1
  O  O35  1  0.17647600  0.97594300  0.41969500  1
  O  O36  1  0.32138700  0.54296700  0.57459300  1
  O  O37  1  0.17647600  0.52405700  0.91969500  1
  O  O38  1  0.11889800  0.51149700  0.64686300  1
  O  O39  1  0.88110200  0.48850300  0.35313700  1
