# generated using pymatgen
data_Ca4P2O
_symmetry_space_group_name_H-M   'P 1'
_cell_length_a   4.51222000
_cell_length_b   4.51222000
_cell_length_c   15.09767200
_cell_angle_alpha   90.00000000
_cell_angle_beta   90.00000000
_cell_angle_gamma   90.00000000
_symmetry_Int_Tables_number   1
_chemical_formula_structural   Ca4P2O
_chemical_formula_sum   'Ca8 P4 O2'
_cell_volume   307.39055448
_cell_formula_units_Z   2
loop_
 _symmetry_equiv_pos_site_id
 _symmetry_equiv_pos_as_xyz
  1  'x, y, z'
loop_
 _atom_site_type_symbol
 _atom_site_label
 _atom_site_symmetry_multiplicity
 _atom_site_fract_x
 _atom_site_fract_y
 _atom_site_fract_z
 _atom_site_occupancy
  Ca  Ca0  1  0.50000000  0.50000000  0.32601800  1
  Ca  Ca1  1  0.00000000  0.00000000  0.17398200  1
  Ca  Ca2  1  0.00000000  0.50000000  0.00000000  1
  Ca  Ca3  1  0.50000000  0.00000000  0.00000000  1
  Ca  Ca4  1  0.00000000  0.00000000  0.82601800  1
  Ca  Ca5  1  0.50000000  0.50000000  0.67398200  1
  Ca  Ca6  1  0.50000000  0.00000000  0.50000000  1
  Ca  Ca7  1  0.00000000  0.50000000  0.50000000  1
  P  P8  1  0.50000000  0.50000000  0.13617700  1
  P  P9  1  0.00000000  0.00000000  0.36382300  1
  P  P10  1  0.00000000  0.00000000  0.63617700  1
  P  P11  1  0.50000000  0.50000000  0.86382300  1
  O  O12  1  0.00000000  0.00000000  0.00000000  1
  O  O13  1  0.50000000  0.50000000  0.50000000  1
