# generated using pymatgen
data_Dy2Te4O11
_symmetry_space_group_name_H-M   'P 1'
_cell_length_a   12.49956000
_cell_length_b   5.17684000
_cell_length_c   16.30714463
_cell_angle_alpha   90.00000000
_cell_angle_beta   105.34417539
_cell_angle_gamma   90.00000000
_symmetry_Int_Tables_number   1
_chemical_formula_structural   Dy2Te4O11
_chemical_formula_sum   'Dy8 Te16 O44'
_cell_volume   1017.59211947
_cell_formula_units_Z   4
loop_
 _symmetry_equiv_pos_site_id
 _symmetry_equiv_pos_as_xyz
  1  'x, y, z'
loop_
 _atom_site_type_symbol
 _atom_site_label
 _atom_site_symmetry_multiplicity
 _atom_site_fract_x
 _atom_site_fract_y
 _atom_site_fract_z
 _atom_site_occupancy
  Dy  Dy0  1  0.11916750  0.74998350  0.53710700  1
  Dy  Dy1  1  0.61916750  0.75001650  0.03710700  1
  Dy  Dy2  1  0.38083250  0.24998350  0.96289300  1
  Dy  Dy3  1  0.88083250  0.25001650  0.46289300  1
  Dy  Dy4  1  0.61916750  0.24998350  0.53710700  1
  Dy  Dy5  1  0.11916750  0.25001650  0.03710700  1
  Dy  Dy6  1  0.88083250  0.74998350  0.96289300  1
  Dy  Dy7  1  0.38083250  0.75001650  0.46289300  1
  Te  Te8  1  0.37840950  0.77842050  0.80160400  1
  Te  Te9  1  0.87840950  0.72157950  0.30160400  1
  Te  Te10  1  0.12159050  0.27842050  0.69839600  1
  Te  Te11  1  0.87153550  0.28213550  0.12530100  1
  Te  Te12  1  0.62159050  0.22157950  0.19839600  1
  Te  Te13  1  0.12846450  0.71786450  0.87469900  1
  Te  Te14  1  0.12846450  0.28213550  0.37469900  1
  Te  Te15  1  0.87153550  0.71786450  0.62530100  1
  Te  Te16  1  0.87840950  0.27842050  0.80160400  1
  Te  Te17  1  0.37840950  0.22157950  0.30160400  1
  Te  Te18  1  0.62159050  0.77842050  0.69839600  1
  Te  Te19  1  0.37153550  0.78213550  0.12530100  1
  Te  Te20  1  0.12159050  0.72157950  0.19839600  1
  Te  Te21  1  0.62846450  0.21786450  0.87469900  1
  Te  Te22  1  0.62846450  0.78213550  0.37469900  1
  Te  Te23  1  0.37153550  0.21786450  0.62530100  1
  O  O24  1  0.14897450  0.94270150  0.66728600  1
  O  O25  1  0.02428050  0.57798050  0.09614300  1
  O  O26  1  0.75261950  0.56263750  0.37244500  1
  O  O27  1  0.93067900  0.10722500  0.04491200  1
  O  O28  1  0.97571950  0.42201950  0.90385700  1
  O  O29  1  0.93067900  0.89277500  0.54491200  1
  O  O30  1  0.20787900  0.45497800  0.94772700  1
  O  O31  1  0.25261950  0.93736250  0.87244500  1
  O  O32  1  0.20787900  0.54502200  0.44772700  1
  O  O33  1  0.79212100  0.54502200  0.05227300  1
  O  O34  1  0.00000000  0.14542900  0.75000000  1
  O  O35  1  0.79212100  0.45497800  0.55227300  1
  O  O36  1  0.97571950  0.57798050  0.40385700  1
  O  O37  1  0.02428050  0.42201950  0.59614300  1
  O  O38  1  0.85102550  0.05729850  0.33271400  1
  O  O39  1  0.00000000  0.85457100  0.25000000  1
  O  O40  1  0.74738050  0.06263750  0.12755500  1
  O  O41  1  0.06932100  0.89277500  0.95508800  1
  O  O42  1  0.64897450  0.55729850  0.16728600  1
  O  O43  1  0.35102550  0.44270150  0.83271400  1
  O  O44  1  0.24738050  0.43736250  0.62755500  1
  O  O45  1  0.06932100  0.10722500  0.45508800  1
  O  O46  1  0.64897450  0.44270150  0.66728600  1
  O  O47  1  0.52428050  0.07798050  0.09614300  1
  O  O48  1  0.25261950  0.06263750  0.37244500  1
  O  O49  1  0.43067900  0.60722500  0.04491200  1
  O  O50  1  0.47571950  0.92201950  0.90385700  1
  O  O51  1  0.43067900  0.39277500  0.54491200  1
  O  O52  1  0.70787900  0.95497800  0.94772700  1
  O  O53  1  0.75261950  0.43736250  0.87244500  1
  O  O54  1  0.70787900  0.04502200  0.44772700  1
  O  O55  1  0.29212100  0.04502200  0.05227300  1
  O  O56  1  0.50000000  0.64542900  0.75000000  1
  O  O57  1  0.29212100  0.95497800  0.55227300  1
  O  O58  1  0.47571950  0.07798050  0.40385700  1
  O  O59  1  0.52428050  0.92201950  0.59614300  1
  O  O60  1  0.35102550  0.55729850  0.33271400  1
  O  O61  1  0.50000000  0.35457100  0.25000000  1
  O  O62  1  0.24738050  0.56263750  0.12755500  1
  O  O63  1  0.56932100  0.39277500  0.95508800  1
  O  O64  1  0.14897450  0.05729850  0.16728600  1
  O  O65  1  0.85102550  0.94270150  0.83271400  1
  O  O66  1  0.74738050  0.93736250  0.62755500  1
  O  O67  1  0.56932100  0.60722500  0.45508800  1
