# generated using pymatgen
data_ZnS
_symmetry_space_group_name_H-M   'P 1'
_cell_length_a   3.85497386
_cell_length_b   3.85497386
_cell_length_c   75.46534371
_cell_angle_alpha   90.00000000
_cell_angle_beta   90.00000000
_cell_angle_gamma   120.00000000
_symmetry_Int_Tables_number   1
_chemical_formula_structural   ZnS
_chemical_formula_sum   'Zn24 S24'
_cell_volume   971.22770306
_cell_formula_units_Z   24
loop_
 _symmetry_equiv_pos_site_id
 _symmetry_equiv_pos_as_xyz
  1  'x, y, z'
loop_
 _atom_site_type_symbol
 _atom_site_label
 _atom_site_symmetry_multiplicity
 _atom_site_fract_x
 _atom_site_fract_y
 _atom_site_fract_z
 _atom_site_occupancy
  Zn  Zn0  1  0.66666667  0.33333333  0.04165733  1
  Zn  Zn1  1  0.33333333  0.66666667  0.08330867  1
  Zn  Zn2  1  0.66666667  0.33333333  0.33332333  1
  Zn  Zn3  1  0.00000000  0.00000000  0.12499200  1
  Zn  Zn4  1  0.00000000  0.00000000  0.24998800  1
  Zn  Zn5  1  0.33333333  0.66666667  0.16665567  1
  Zn  Zn6  1  0.66666667  0.33333333  0.20832033  1
  Zn  Zn7  1  0.33333333  0.66666667  0.29164067  1
  Zn  Zn8  1  0.33333333  0.66666667  0.37499067  1
  Zn  Zn9  1  0.00000000  0.00000000  0.41664200  1
  Zn  Zn10  1  0.33333333  0.66666667  0.66665667  1
  Zn  Zn11  1  0.66666667  0.33333333  0.45832533  1
  Zn  Zn12  1  0.66666667  0.33333333  0.58332133  1
  Zn  Zn13  1  0.00000000  0.00000000  0.49998900  1
  Zn  Zn14  1  0.33333333  0.66666667  0.54165367  1
  Zn  Zn15  1  0.00000000  0.00000000  0.62497400  1
  Zn  Zn16  1  0.00000000  0.00000000  0.70832400  1
  Zn  Zn17  1  0.66666667  0.33333333  0.74997533  1
  Zn  Zn18  1  0.00000000  0.00000000  0.99999000  1
  Zn  Zn19  1  0.33333333  0.66666667  0.79165867  1
  Zn  Zn20  1  0.33333333  0.66666667  0.91665467  1
  Zn  Zn21  1  0.66666667  0.33333333  0.83332233  1
  Zn  Zn22  1  0.00000000  0.00000000  0.87498700  1
  Zn  Zn23  1  0.66666667  0.33333333  0.95830733  1
  S  S24  1  0.66666667  0.33333333  0.17709633  1
  S  S25  1  0.33333333  0.66666667  0.05209767  1
  S  S26  1  0.00000000  0.00000000  0.09374400  1
  S  S27  1  0.00000000  0.00000000  0.21876500  1
  S  S28  1  0.33333333  0.66666667  0.13545067  1
  S  S29  1  0.66666667  0.33333333  0.01045033  1
  S  S30  1  0.33333333  0.66666667  0.26042967  1
  S  S31  1  0.66666667  0.33333333  0.30207433  1
  S  S32  1  0.33333333  0.66666667  0.51042967  1
  S  S33  1  0.00000000  0.00000000  0.38543100  1
  S  S34  1  0.66666667  0.33333333  0.42707733  1
  S  S35  1  0.66666667  0.33333333  0.55209833  1
  S  S36  1  0.00000000  0.00000000  0.46878400  1
  S  S37  1  0.33333333  0.66666667  0.34378367  1
  S  S38  1  0.00000000  0.00000000  0.59376300  1
  S  S39  1  0.33333333  0.66666667  0.63540767  1
  S  S40  1  0.00000000  0.00000000  0.84376300  1
  S  S41  1  0.66666667  0.33333333  0.71876433  1
  S  S42  1  0.33333333  0.66666667  0.76041067  1
  S  S43  1  0.33333333  0.66666667  0.88543167  1
  S  S44  1  0.66666667  0.33333333  0.80211733  1
  S  S45  1  0.00000000  0.00000000  0.67711700  1
  S  S46  1  0.66666667  0.33333333  0.92709633  1
  S  S47  1  0.00000000  0.00000000  0.96874100  1
