# generated using pymatgen
data_Cd(InS2)2
_symmetry_space_group_name_H-M   'P 1'
_cell_length_a   11.02882000
_cell_length_b   11.02882000
_cell_length_c   11.02882000
_cell_angle_alpha   90.00000000
_cell_angle_beta   90.00000000
_cell_angle_gamma   90.00000000
_symmetry_Int_Tables_number   1
_chemical_formula_structural   Cd(InS2)2
_chemical_formula_sum   'Cd8 In16 S32'
_cell_volume   1341.48909349
_cell_formula_units_Z   8
loop_
 _symmetry_equiv_pos_site_id
 _symmetry_equiv_pos_as_xyz
  1  'x, y, z'
loop_
 _atom_site_type_symbol
 _atom_site_label
 _atom_site_symmetry_multiplicity
 _atom_site_fract_x
 _atom_site_fract_y
 _atom_site_fract_z
 _atom_site_occupancy
  Cd  Cd0  1  0.50000000  0.00000000  0.50000000  1
  Cd  Cd1  1  0.25000000  0.25000000  0.25000000  1
  Cd  Cd2  1  0.50000000  0.50000000  0.00000000  1
  Cd  Cd3  1  0.25000000  0.75000000  0.75000000  1
  Cd  Cd4  1  0.00000000  0.00000000  0.00000000  1
  Cd  Cd5  1  0.75000000  0.25000000  0.75000000  1
  Cd  Cd6  1  0.00000000  0.50000000  0.50000000  1
  Cd  Cd7  1  0.75000000  0.75000000  0.25000000  1
  In  In8  1  0.37500000  0.87500000  0.12500000  1
  In  In9  1  0.12500000  0.62500000  0.12500000  1
  In  In10  1  0.37500000  0.62500000  0.37500000  1
  In  In11  1  0.12500000  0.87500000  0.37500000  1
  In  In12  1  0.37500000  0.37500000  0.62500000  1
  In  In13  1  0.12500000  0.12500000  0.62500000  1
  In  In14  1  0.37500000  0.12500000  0.87500000  1
  In  In15  1  0.12500000  0.37500000  0.87500000  1
  In  In16  1  0.87500000  0.87500000  0.62500000  1
  In  In17  1  0.62500000  0.62500000  0.62500000  1
  In  In18  1  0.87500000  0.62500000  0.87500000  1
  In  In19  1  0.62500000  0.87500000  0.87500000  1
  In  In20  1  0.87500000  0.37500000  0.12500000  1
  In  In21  1  0.62500000  0.12500000  0.12500000  1
  In  In22  1  0.87500000  0.12500000  0.37500000  1
  In  In23  1  0.62500000  0.37500000  0.37500000  1
  S  S24  1  0.11517067  0.11517067  0.38482933  1
  S  S25  1  0.38482933  0.11517067  0.11517067  1
  S  S26  1  0.11517067  0.38482933  0.11517067  1
  S  S27  1  0.36517067  0.86517067  0.36517067  1
  S  S28  1  0.38482933  0.38482933  0.38482933  1
  S  S29  1  0.86517067  0.13482933  0.13482933  1
  S  S30  1  0.13482933  0.86517067  0.13482933  1
  S  S31  1  0.63482933  0.13482933  0.36517067  1
  S  S32  1  0.11517067  0.61517067  0.88482933  1
  S  S33  1  0.38482933  0.61517067  0.61517067  1
  S  S34  1  0.11517067  0.88482933  0.61517067  1
  S  S35  1  0.36517067  0.36517067  0.86517067  1
  S  S36  1  0.38482933  0.88482933  0.88482933  1
  S  S37  1  0.86517067  0.63482933  0.63482933  1
  S  S38  1  0.13482933  0.36517067  0.63482933  1
  S  S39  1  0.63482933  0.63482933  0.86517067  1
  S  S40  1  0.61517067  0.11517067  0.88482933  1
  S  S41  1  0.88482933  0.11517067  0.61517067  1
  S  S42  1  0.61517067  0.38482933  0.61517067  1
  S  S43  1  0.86517067  0.86517067  0.86517067  1
  S  S44  1  0.88482933  0.38482933  0.88482933  1
  S  S45  1  0.36517067  0.13482933  0.63482933  1
  S  S46  1  0.63482933  0.86517067  0.63482933  1
  S  S47  1  0.13482933  0.13482933  0.86517067  1
  S  S48  1  0.61517067  0.61517067  0.38482933  1
  S  S49  1  0.88482933  0.61517067  0.11517067  1
  S  S50  1  0.61517067  0.88482933  0.11517067  1
  S  S51  1  0.86517067  0.36517067  0.36517067  1
  S  S52  1  0.88482933  0.88482933  0.38482933  1
  S  S53  1  0.36517067  0.63482933  0.13482933  1
  S  S54  1  0.63482933  0.36517067  0.13482933  1
  S  S55  1  0.13482933  0.63482933  0.36517067  1
