# generated using pymatgen
data_ZnS
_symmetry_space_group_name_H-M   'P 1'
_cell_length_a   3.86325809
_cell_length_b   3.86325809
_cell_length_c   94.47857403
_cell_angle_alpha   90.00000000
_cell_angle_beta   90.00000000
_cell_angle_gamma   120.00000000
_symmetry_Int_Tables_number   1
_chemical_formula_structural   ZnS
_chemical_formula_sum   'Zn30 S30'
_cell_volume   1221.15673175
_cell_formula_units_Z   30
loop_
 _symmetry_equiv_pos_site_id
 _symmetry_equiv_pos_as_xyz
  1  'x, y, z'
loop_
 _atom_site_type_symbol
 _atom_site_label
 _atom_site_symmetry_multiplicity
 _atom_site_fract_x
 _atom_site_fract_y
 _atom_site_fract_z
 _atom_site_occupancy
  Zn  Zn0  1  0.00000000  0.00000000  0.10002000  1
  Zn  Zn1  1  0.66666667  0.33333333  0.13333933  1
  Zn  Zn2  1  0.66666667  0.33333333  0.23332933  1
  Zn  Zn3  1  0.33333333  0.66666667  0.03336567  1
  Zn  Zn4  1  0.00000000  0.00000000  0.29999200  1
  Zn  Zn5  1  0.00000000  0.00000000  0.20001100  1
  Zn  Zn6  1  0.33333333  0.66666667  0.16665667  1
  Zn  Zn7  1  0.00000000  0.00000000  0.00000700  1
  Zn  Zn8  1  0.33333333  0.66666667  0.26665967  1
  Zn  Zn9  1  0.66666667  0.33333333  0.06668233  1
  Zn  Zn10  1  0.66666667  0.33333333  0.43335333  1
  Zn  Zn11  1  0.33333333  0.66666667  0.46667267  1
  Zn  Zn12  1  0.33333333  0.66666667  0.56666267  1
  Zn  Zn13  1  0.00000000  0.00000000  0.36669900  1
  Zn  Zn14  1  0.66666667  0.33333333  0.63332533  1
  Zn  Zn15  1  0.66666667  0.33333333  0.53334433  1
  Zn  Zn16  1  0.00000000  0.00000000  0.49999000  1
  Zn  Zn17  1  0.66666667  0.33333333  0.33334033  1
  Zn  Zn18  1  0.00000000  0.00000000  0.59999300  1
  Zn  Zn19  1  0.33333333  0.66666667  0.40001567  1
  Zn  Zn20  1  0.33333333  0.66666667  0.76668667  1
  Zn  Zn21  1  0.00000000  0.00000000  0.80000600  1
  Zn  Zn22  1  0.00000000  0.00000000  0.89999600  1
  Zn  Zn23  1  0.66666667  0.33333333  0.70003233  1
  Zn  Zn24  1  0.33333333  0.66666667  0.96665867  1
  Zn  Zn25  1  0.33333333  0.66666667  0.86667767  1
  Zn  Zn26  1  0.66666667  0.33333333  0.83332333  1
  Zn  Zn27  1  0.33333333  0.66666667  0.66667367  1
  Zn  Zn28  1  0.66666667  0.33333333  0.93332633  1
  Zn  Zn29  1  0.00000000  0.00000000  0.73334900  1
  S  S30  1  0.66666667  0.33333333  0.10836933  1
  S  S31  1  0.00000000  0.00000000  0.27500600  1
  S  S32  1  0.33333333  0.66666667  0.14166467  1
  S  S33  1  0.33333333  0.66666667  0.24166267  1
  S  S34  1  0.00000000  0.00000000  0.17501000  1
  S  S35  1  0.00000000  0.00000000  0.07500800  1
  S  S36  1  0.33333333  0.66666667  0.00838067  1
  S  S37  1  0.66666667  0.33333333  0.04170533  1
  S  S38  1  0.66666667  0.33333333  0.20834133  1
  S  S39  1  0.66666667  0.33333333  0.30832233  1
  S  S40  1  0.33333333  0.66666667  0.44170267  1
  S  S41  1  0.66666667  0.33333333  0.60833933  1
  S  S42  1  0.00000000  0.00000000  0.47499800  1
  S  S43  1  0.00000000  0.00000000  0.57499600  1
  S  S44  1  0.66666667  0.33333333  0.50834333  1
  S  S45  1  0.66666667  0.33333333  0.40834133  1
  S  S46  1  0.00000000  0.00000000  0.34171400  1
  S  S47  1  0.33333333  0.66666667  0.37503867  1
  S  S48  1  0.33333333  0.66666667  0.54167467  1
  S  S49  1  0.33333333  0.66666667  0.64165567  1
  S  S50  1  0.00000000  0.00000000  0.77503600  1
  S  S51  1  0.33333333  0.66666667  0.94167267  1
  S  S52  1  0.66666667  0.33333333  0.80833133  1
  S  S53  1  0.66666667  0.33333333  0.90832933  1
  S  S54  1  0.33333333  0.66666667  0.84167667  1
  S  S55  1  0.33333333  0.66666667  0.74167467  1
  S  S56  1  0.66666667  0.33333333  0.67504733  1
  S  S57  1  0.00000000  0.00000000  0.70837200  1
  S  S58  1  0.00000000  0.00000000  0.87500800  1
  S  S59  1  0.00000000  0.00000000  0.97498900  1
