# generated using pymatgen
data_K2Hg2SCl4O3
_symmetry_space_group_name_H-M   'P 1'
_cell_length_a   9.79884900
_cell_length_b   6.11676100
_cell_length_c   10.42896750
_cell_angle_alpha   90.00000000
_cell_angle_beta   110.47861998
_cell_angle_gamma   90.00000000
_symmetry_Int_Tables_number   1
_chemical_formula_structural   K2Hg2SCl4O3
_chemical_formula_sum   'K4 Hg4 S2 Cl8 O6'
_cell_volume   585.57978123
_cell_formula_units_Z   2
loop_
 _symmetry_equiv_pos_site_id
 _symmetry_equiv_pos_as_xyz
  1  'x, y, z'
loop_
 _atom_site_type_symbol
 _atom_site_label
 _atom_site_symmetry_multiplicity
 _atom_site_fract_x
 _atom_site_fract_y
 _atom_site_fract_z
 _atom_site_occupancy
  K  K0  1  0.59991600  0.25000000  0.17706900  1
  K  K1  1  0.12780500  0.25000000  0.94357200  1
  K  K2  1  0.40008400  0.75000000  0.82293100  1
  K  K3  1  0.87219500  0.75000000  0.05642800  1
  Hg  Hg4  1  0.40736100  0.75000000  0.36822700  1
  Hg  Hg5  1  0.11594600  0.25000000  0.47241100  1
  Hg  Hg6  1  0.88405400  0.75000000  0.52758900  1
  Hg  Hg7  1  0.59263900  0.25000000  0.63177300  1
  S  S8  1  0.69257000  0.25000000  0.88189000  1
  S  S9  1  0.30743000  0.75000000  0.11811000  1
  Cl  Cl10  1  0.41988100  0.25000000  0.39237600  1
  Cl  Cl11  1  0.83765700  0.25000000  0.53260100  1
  Cl  Cl12  1  0.01893600  0.75000000  0.76614500  1
  Cl  Cl13  1  0.16234300  0.75000000  0.46739900  1
  Cl  Cl14  1  0.98106400  0.25000000  0.23385500  1
  Cl  Cl15  1  0.58011900  0.75000000  0.60762400  1
  Cl  Cl16  1  0.72319800  0.75000000  0.29316700  1
  Cl  Cl17  1  0.27680200  0.25000000  0.70683300  1
  O  O18  1  0.14752400  0.75000000  0.08060800  1
  O  O19  1  0.35982500  0.54945500  0.06859700  1
  O  O20  1  0.85247600  0.25000000  0.91939200  1
  O  O21  1  0.64017500  0.45054500  0.93140300  1
  O  O22  1  0.64017500  0.04945500  0.93140300  1
  O  O23  1  0.35982500  0.95054500  0.06859700  1
