# generated using pymatgen
data_CsAu2F7
_symmetry_space_group_name_H-M   'P 1'
_cell_length_a   11.65217400
_cell_length_b   11.08649000
_cell_length_c   7.62318999
_cell_angle_alpha   90.00000000
_cell_angle_beta   123.29681445
_cell_angle_gamma   90.00000000
_symmetry_Int_Tables_number   1
_chemical_formula_structural   CsAu2F7
_chemical_formula_sum   'Cs4 Au8 F28'
_cell_volume   823.11369325
_cell_formula_units_Z   4
loop_
 _symmetry_equiv_pos_site_id
 _symmetry_equiv_pos_as_xyz
  1  'x, y, z'
loop_
 _atom_site_type_symbol
 _atom_site_label
 _atom_site_symmetry_multiplicity
 _atom_site_fract_x
 _atom_site_fract_y
 _atom_site_fract_z
 _atom_site_occupancy
  Cs  Cs0  1  0.00000000  0.69143400  0.75000000  1
  Cs  Cs1  1  0.00000000  0.30856600  0.25000000  1
  Cs  Cs2  1  0.50000000  0.19143400  0.75000000  1
  Cs  Cs3  1  0.50000000  0.80856600  0.25000000  1
  Au  Au4  1  0.68574450  0.59893650  0.85636700  1
  Au  Au5  1  0.31425550  0.59893650  0.64363300  1
  Au  Au6  1  0.31425550  0.40106350  0.14363300  1
  Au  Au7  1  0.68574450  0.40106350  0.35636700  1
  Au  Au8  1  0.18574450  0.09893650  0.85636700  1
  Au  Au9  1  0.81425550  0.09893650  0.64363300  1
  Au  Au10  1  0.81425550  0.90106350  0.14363300  1
  Au  Au11  1  0.18574450  0.90106350  0.35636700  1
  F  F12  1  0.36147300  0.45302600  0.55157100  1
  F  F13  1  0.13265900  0.46489000  0.03859900  1
  F  F14  1  0.36147300  0.54697400  0.05157100  1
  F  F15  1  0.76669550  0.24651350  0.73364700  1
  F  F16  1  0.63852700  0.45302600  0.94842900  1
  F  F17  1  0.23330450  0.75348650  0.26635300  1
  F  F18  1  0.00000000  0.17751900  0.75000000  1
  F  F19  1  0.23330450  0.24651350  0.76635300  1
  F  F20  1  0.76669550  0.75348650  0.23364700  1
  F  F21  1  0.86734100  0.53511000  0.96140100  1
  F  F22  1  0.63852700  0.54697400  0.44842900  1
  F  F23  1  0.86734100  0.46489000  0.46140100  1
  F  F24  1  0.00000000  0.82248100  0.25000000  1
  F  F25  1  0.13265900  0.53511000  0.53859900  1
  F  F26  1  0.86147300  0.95302600  0.55157100  1
  F  F27  1  0.63265900  0.96489000  0.03859900  1
  F  F28  1  0.86147300  0.04697400  0.05157100  1
  F  F29  1  0.26669550  0.74651350  0.73364700  1
  F  F30  1  0.13852700  0.95302600  0.94842900  1
  F  F31  1  0.73330450  0.25348650  0.26635300  1
  F  F32  1  0.50000000  0.67751900  0.75000000  1
  F  F33  1  0.73330450  0.74651350  0.76635300  1
  F  F34  1  0.26669550  0.25348650  0.23364700  1
  F  F35  1  0.36734100  0.03511000  0.96140100  1
  F  F36  1  0.13852700  0.04697400  0.44842900  1
  F  F37  1  0.36734100  0.96489000  0.46140100  1
  F  F38  1  0.50000000  0.32248100  0.25000000  1
  F  F39  1  0.63265900  0.03511000  0.53859900  1
