# generated using pymatgen
data_BaAg2GeSe4
_symmetry_space_group_name_H-M   'P 1'
_cell_length_a   7.12924400
_cell_length_b   7.37008600
_cell_length_c   8.48869400
_cell_angle_alpha   90.00000000
_cell_angle_beta   90.00000000
_cell_angle_gamma   90.00000000
_symmetry_Int_Tables_number   1
_chemical_formula_structural   BaAg2GeSe4
_chemical_formula_sum   'Ba2 Ag4 Ge2 Se8'
_cell_volume   446.02264910
_cell_formula_units_Z   2
loop_
 _symmetry_equiv_pos_site_id
 _symmetry_equiv_pos_as_xyz
  1  'x, y, z'
loop_
 _atom_site_type_symbol
 _atom_site_label
 _atom_site_symmetry_multiplicity
 _atom_site_fract_x
 _atom_site_fract_y
 _atom_site_fract_z
 _atom_site_occupancy
  Ba  Ba0  1  0.00000000  0.00000000  0.00000000  1
  Ba  Ba1  1  0.50000000  0.50000000  0.50000000  1
  Ag  Ag2  1  0.00000000  0.50000000  0.20729900  1
  Ag  Ag3  1  0.50000000  0.00000000  0.29270100  1
  Ag  Ag4  1  0.50000000  0.00000000  0.70729900  1
  Ag  Ag5  1  0.00000000  0.50000000  0.79270100  1
  Ge  Ge6  1  0.00000000  0.00000000  0.50000000  1
  Ge  Ge7  1  0.50000000  0.50000000  0.00000000  1
  Se  Se8  1  0.19303700  0.80965100  0.33808600  1
  Se  Se9  1  0.30696300  0.69034900  0.83808600  1
  Se  Se10  1  0.30696300  0.30965100  0.16191400  1
  Se  Se11  1  0.19303700  0.19034900  0.66191400  1
  Se  Se12  1  0.69303700  0.30965100  0.83808600  1
  Se  Se13  1  0.80696300  0.19034900  0.33808600  1
  Se  Se14  1  0.80696300  0.80965100  0.66191400  1
  Se  Se15  1  0.69303700  0.69034900  0.16191400  1
