# generated using pymatgen
data_PrZr2F11
_symmetry_space_group_name_H-M   'P 1'
_cell_length_a   7.90108200
_cell_length_b   10.20332800
_cell_length_c   11.10943800
_cell_angle_alpha   90.00000000
_cell_angle_beta   90.00000000
_cell_angle_gamma   90.00000000
_symmetry_Int_Tables_number   1
_chemical_formula_structural   PrZr2F11
_chemical_formula_sum   'Pr4 Zr8 F44'
_cell_volume   895.61324270
_cell_formula_units_Z   4
loop_
 _symmetry_equiv_pos_site_id
 _symmetry_equiv_pos_as_xyz
  1  'x, y, z'
loop_
 _atom_site_type_symbol
 _atom_site_label
 _atom_site_symmetry_multiplicity
 _atom_site_fract_x
 _atom_site_fract_y
 _atom_site_fract_z
 _atom_site_occupancy
  Pr  Pr0  1  0.00000000  0.00000000  0.25000000  1
  Pr  Pr1  1  0.00000000  0.00000000  0.75000000  1
  Pr  Pr2  1  0.50000000  0.50000000  0.75000000  1
  Pr  Pr3  1  0.50000000  0.50000000  0.25000000  1
  Zr  Zr4  1  0.13357650  0.31935150  0.50000000  1
  Zr  Zr5  1  0.86642350  0.68064850  0.50000000  1
  Zr  Zr6  1  0.36642350  0.81935150  0.50000000  1
  Zr  Zr7  1  0.63357650  0.18064850  0.50000000  1
  Zr  Zr8  1  0.63357650  0.81935150  0.00000000  1
  Zr  Zr9  1  0.36642350  0.18064850  0.00000000  1
  Zr  Zr10  1  0.86642350  0.31935150  0.00000000  1
  Zr  Zr11  1  0.13357650  0.68064850  0.00000000  1
  F  F12  1  0.39801650  0.68464050  0.63678950  1
  F  F13  1  0.37038500  0.21963800  0.50000000  1
  F  F14  1  0.60198350  0.31535950  0.63678950  1
  F  F15  1  0.23569250  0.07621050  0.87001750  1
  F  F16  1  0.12961500  0.71963800  0.50000000  1
  F  F17  1  0.76430750  0.92378950  0.87001750  1
  F  F18  1  0.10198350  0.18464050  0.36321050  1
  F  F19  1  0.76430750  0.07621050  0.37001750  1
  F  F20  1  0.87038500  0.28036200  0.50000000  1
  F  F21  1  0.23569250  0.92378950  0.37001750  1
  F  F22  1  0.89801650  0.81535950  0.63678950  1
  F  F23  1  0.76430750  0.07621050  0.62998250  1
  F  F24  1  0.23569250  0.92378950  0.62998250  1
  F  F25  1  0.39801650  0.68464050  0.36321050  1
  F  F26  1  0.50000000  0.00000000  0.00000000  1
  F  F27  1  0.10198350  0.18464050  0.63678950  1
  F  F28  1  0.23569250  0.07621050  0.12998250  1
  F  F29  1  0.60198350  0.31535950  0.36321050  1
  F  F30  1  0.89801650  0.81535950  0.36321050  1
  F  F31  1  0.62961500  0.78036200  0.50000000  1
  F  F32  1  0.76430750  0.92378950  0.12998250  1
  F  F33  1  0.50000000  0.00000000  0.50000000  1
  F  F34  1  0.89801650  0.18464050  0.13678950  1
  F  F35  1  0.87038500  0.71963800  0.00000000  1
  F  F36  1  0.10198350  0.81535950  0.13678950  1
  F  F37  1  0.73569250  0.57621050  0.37001750  1
  F  F38  1  0.62961500  0.21963800  0.00000000  1
  F  F39  1  0.26430750  0.42378950  0.37001750  1
  F  F40  1  0.60198350  0.68464050  0.86321050  1
  F  F41  1  0.26430750  0.57621050  0.87001750  1
  F  F42  1  0.37038500  0.78036200  0.00000000  1
  F  F43  1  0.73569250  0.42378950  0.87001750  1
  F  F44  1  0.39801650  0.31535950  0.13678950  1
  F  F45  1  0.26430750  0.57621050  0.12998250  1
  F  F46  1  0.73569250  0.42378950  0.12998250  1
  F  F47  1  0.89801650  0.18464050  0.86321050  1
  F  F48  1  0.00000000  0.50000000  0.50000000  1
  F  F49  1  0.60198350  0.68464050  0.13678950  1
  F  F50  1  0.73569250  0.57621050  0.62998250  1
  F  F51  1  0.10198350  0.81535950  0.86321050  1
  F  F52  1  0.39801650  0.31535950  0.86321050  1
  F  F53  1  0.12961500  0.28036200  0.00000000  1
  F  F54  1  0.26430750  0.42378950  0.62998250  1
  F  F55  1  0.00000000  0.50000000  0.00000000  1
