# generated using pymatgen
data_Cs4Cu3F10
_symmetry_space_group_name_H-M   'P 1'
_cell_length_a   14.25165600
_cell_length_b   6.29453800
_cell_length_c   8.10099596
_cell_angle_alpha   90.00000000
_cell_angle_beta   116.98417142
_cell_angle_gamma   90.00000000
_symmetry_Int_Tables_number   1
_chemical_formula_structural   Cs4Cu3F10
_chemical_formula_sum   'Cs8 Cu6 F20'
_cell_volume   647.60411768
_cell_formula_units_Z   2
loop_
 _symmetry_equiv_pos_site_id
 _symmetry_equiv_pos_as_xyz
  1  'x, y, z'
loop_
 _atom_site_type_symbol
 _atom_site_label
 _atom_site_symmetry_multiplicity
 _atom_site_fract_x
 _atom_site_fract_y
 _atom_site_fract_z
 _atom_site_occupancy
  Cs  Cs0  1  0.18707200  0.00000000  0.28425000  1
  Cs  Cs1  1  0.31292800  0.50000000  0.71575000  1
  Cs  Cs2  1  0.03503100  0.50000000  0.78533300  1
  Cs  Cs3  1  0.46496900  0.00000000  0.21466700  1
  Cs  Cs4  1  0.68707200  0.50000000  0.28425000  1
  Cs  Cs5  1  0.81292800  0.00000000  0.71575000  1
  Cs  Cs6  1  0.53503100  0.00000000  0.78533300  1
  Cs  Cs7  1  0.96496900  0.50000000  0.21466700  1
  Cu  Cu8  1  0.30225000  0.50000000  0.18291200  1
  Cu  Cu9  1  0.19775000  0.00000000  0.81708800  1
  Cu  Cu10  1  0.00000000  0.00000000  0.50000000  1
  Cu  Cu11  1  0.80225000  0.00000000  0.18291200  1
  Cu  Cu12  1  0.69775000  0.50000000  0.81708800  1
  Cu  Cu13  1  0.50000000  0.50000000  0.50000000  1
  F  F14  1  0.39019550  0.71265150  0.43540000  1
  F  F15  1  0.32163200  0.00000000  0.78073300  1
  F  F16  1  0.06445200  0.00000000  0.82911300  1
  F  F17  1  0.10980450  0.78734850  0.56460000  1
  F  F18  1  0.43554800  0.50000000  0.17088700  1
  F  F19  1  0.10980450  0.21265150  0.56460000  1
  F  F20  1  0.39019550  0.28734850  0.43540000  1
  F  F21  1  0.25000000  0.75000000  0.00000000  1
  F  F22  1  0.25000000  0.25000000  0.00000000  1
  F  F23  1  0.17836800  0.50000000  0.21926700  1
  F  F24  1  0.89019550  0.21265150  0.43540000  1
  F  F25  1  0.82163200  0.50000000  0.78073300  1
  F  F26  1  0.56445200  0.50000000  0.82911300  1
  F  F27  1  0.60980450  0.28734850  0.56460000  1
  F  F28  1  0.93554800  0.00000000  0.17088700  1
  F  F29  1  0.60980450  0.71265150  0.56460000  1
  F  F30  1  0.89019550  0.78734850  0.43540000  1
  F  F31  1  0.75000000  0.25000000  0.00000000  1
  F  F32  1  0.75000000  0.75000000  0.00000000  1
  F  F33  1  0.67836800  0.00000000  0.21926700  1
