# generated using pymatgen
data_Ca5(SiN3)2
_symmetry_space_group_name_H-M   'P 1'
_cell_length_a   9.86187800
_cell_length_b   6.07202600
_cell_length_c   12.77704047
_cell_angle_alpha   90.00000000
_cell_angle_beta   100.15612647
_cell_angle_gamma   90.00000000
_symmetry_Int_Tables_number   1
_chemical_formula_structural   Ca5(SiN3)2
_chemical_formula_sum   'Ca20 Si8 N24'
_cell_volume   753.12080636
_cell_formula_units_Z   4
loop_
 _symmetry_equiv_pos_site_id
 _symmetry_equiv_pos_as_xyz
  1  'x, y, z'
loop_
 _atom_site_type_symbol
 _atom_site_label
 _atom_site_symmetry_multiplicity
 _atom_site_fract_x
 _atom_site_fract_y
 _atom_site_fract_z
 _atom_site_occupancy
  Ca  Ca0  1  0.56482050  0.24038050  0.49907400  1
  Ca  Ca1  1  0.50000000  0.88232300  0.25000000  1
  Ca  Ca2  1  0.15323500  0.08536100  0.71595300  1
  Ca  Ca3  1  0.50000000  0.11767700  0.75000000  1
  Ca  Ca4  1  0.43517950  0.24038050  0.00092600  1
  Ca  Ca5  1  0.56482050  0.75961950  0.99907400  1
  Ca  Ca6  1  0.15323500  0.91463900  0.21595300  1
  Ca  Ca7  1  0.43517950  0.75961950  0.50092600  1
  Ca  Ca8  1  0.84676500  0.91463900  0.28404700  1
  Ca  Ca9  1  0.84676500  0.08536100  0.78404700  1
  Ca  Ca10  1  0.06482050  0.74038050  0.49907400  1
  Ca  Ca11  1  0.00000000  0.38232300  0.25000000  1
  Ca  Ca12  1  0.65323500  0.58536100  0.71595300  1
  Ca  Ca13  1  0.00000000  0.61767700  0.75000000  1
  Ca  Ca14  1  0.93517950  0.74038050  0.00092600  1
  Ca  Ca15  1  0.06482050  0.25961950  0.99907400  1
  Ca  Ca16  1  0.65323500  0.41463900  0.21595300  1
  Ca  Ca17  1  0.93517950  0.25961950  0.50092600  1
  Ca  Ca18  1  0.34676500  0.41463900  0.28404700  1
  Ca  Ca19  1  0.34676500  0.58536100  0.78404700  1
  Si  Si20  1  0.22329800  0.13002000  0.42393400  1
  Si  Si21  1  0.22329800  0.86998000  0.92393400  1
  Si  Si22  1  0.77670200  0.13002000  0.07606600  1
  Si  Si23  1  0.77670200  0.86998000  0.57606600  1
  Si  Si24  1  0.72329800  0.63002000  0.42393400  1
  Si  Si25  1  0.72329800  0.36998000  0.92393400  1
  Si  Si26  1  0.27670200  0.63002000  0.07606600  1
  Si  Si27  1  0.27670200  0.36998000  0.57606600  1
  N  N28  1  0.65100500  0.04170000  0.14804600  1
  N  N29  1  0.05837100  0.95675800  0.87254500  1
  N  N30  1  0.72415200  0.06858300  0.93756800  1
  N  N31  1  0.05837100  0.04324200  0.37254500  1
  N  N32  1  0.34899500  0.95830000  0.85195400  1
  N  N33  1  0.27584800  0.93141700  0.06243200  1
  N  N34  1  0.94162900  0.95675800  0.62745500  1
  N  N35  1  0.65100500  0.95830000  0.64804600  1
  N  N36  1  0.27584800  0.06858300  0.56243200  1
  N  N37  1  0.94162900  0.04324200  0.12745500  1
  N  N38  1  0.72415200  0.93141700  0.43756800  1
  N  N39  1  0.34899500  0.04170000  0.35195400  1
  N  N40  1  0.15100500  0.54170000  0.14804600  1
  N  N41  1  0.55837100  0.45675800  0.87254500  1
  N  N42  1  0.22415200  0.56858300  0.93756800  1
  N  N43  1  0.55837100  0.54324200  0.37254500  1
  N  N44  1  0.84899500  0.45830000  0.85195400  1
  N  N45  1  0.77584800  0.43141700  0.06243200  1
  N  N46  1  0.44162900  0.45675800  0.62745500  1
  N  N47  1  0.15100500  0.45830000  0.64804600  1
  N  N48  1  0.77584800  0.56858300  0.56243200  1
  N  N49  1  0.44162900  0.54324200  0.12745500  1
  N  N50  1  0.22415200  0.43141700  0.43756800  1
  N  N51  1  0.84899500  0.54170000  0.35195400  1
