# generated using pymatgen
data_Rb4Zr3Se14
_symmetry_space_group_name_H-M   'P 1'
_cell_length_a   23.02547200
_cell_length_b   8.80987800
_cell_length_c   14.57089894
_cell_angle_alpha   90.00000000
_cell_angle_beta   111.72587910
_cell_angle_gamma   90.00000000
_symmetry_Int_Tables_number   1
_chemical_formula_structural   Rb4Zr3Se14
_chemical_formula_sum   'Rb16 Zr12 Se56'
_cell_volume   2745.77125342
_cell_formula_units_Z   4
loop_
 _symmetry_equiv_pos_site_id
 _symmetry_equiv_pos_as_xyz
  1  'x, y, z'
loop_
 _atom_site_type_symbol
 _atom_site_label
 _atom_site_symmetry_multiplicity
 _atom_site_fract_x
 _atom_site_fract_y
 _atom_site_fract_z
 _atom_site_occupancy
  Rb  Rb0  1  0.30177900  0.67716400  0.89220700  1
  Rb  Rb1  1  0.19822100  0.17716400  0.60779300  1
  Rb  Rb2  1  0.19822100  0.82283600  0.10779300  1
  Rb  Rb3  1  0.30177900  0.32283600  0.39220700  1
  Rb  Rb4  1  0.06812700  0.75006800  0.64940600  1
  Rb  Rb5  1  0.43187300  0.25006800  0.85059400  1
  Rb  Rb6  1  0.43187300  0.74993200  0.35059400  1
  Rb  Rb7  1  0.06812700  0.24993200  0.14940600  1
  Rb  Rb8  1  0.80177900  0.17716400  0.89220700  1
  Rb  Rb9  1  0.69822100  0.67716400  0.60779300  1
  Rb  Rb10  1  0.69822100  0.32283600  0.10779300  1
  Rb  Rb11  1  0.80177900  0.82283600  0.39220700  1
  Rb  Rb12  1  0.56812700  0.25006800  0.64940600  1
  Rb  Rb13  1  0.93187300  0.75006800  0.85059400  1
  Rb  Rb14  1  0.93187300  0.24993200  0.35059400  1
  Rb  Rb15  1  0.56812700  0.74993200  0.14940600  1
  Zr  Zr16  1  0.33231150  0.74296750  0.58593500  1
  Zr  Zr17  1  0.16768850  0.24296750  0.91406500  1
  Zr  Zr18  1  0.16768850  0.75703250  0.41406500  1
  Zr  Zr19  1  0.33231150  0.25703250  0.08593500  1
  Zr  Zr20  1  0.00000000  0.23860700  0.75000000  1
  Zr  Zr21  1  0.00000000  0.76139300  0.25000000  1
  Zr  Zr22  1  0.83231150  0.24296750  0.58593500  1
  Zr  Zr23  1  0.66768850  0.74296750  0.91406500  1
  Zr  Zr24  1  0.66768850  0.25703250  0.41406500  1
  Zr  Zr25  1  0.83231150  0.75703250  0.08593500  1
  Zr  Zr26  1  0.50000000  0.73860700  0.75000000  1
  Zr  Zr27  1  0.50000000  0.26139300  0.25000000  1
  Se  Se28  1  0.46373600  0.66319000  0.90305500  1
  Se  Se29  1  0.03626400  0.16319000  0.59694500  1
  Se  Se30  1  0.03626400  0.83681000  0.09694500  1
  Se  Se31  1  0.46373600  0.33681000  0.40305500  1
  Se  Se32  1  0.43516450  0.90391150  0.57850800  1
  Se  Se33  1  0.06483550  0.40391150  0.92149200  1
  Se  Se34  1  0.06483550  0.59608850  0.42149200  1
  Se  Se35  1  0.43516450  0.09608850  0.07850800  1
  Se  Se36  1  0.41827900  0.50939000  0.63291300  1
  Se  Se37  1  0.08172100  0.00939000  0.86708700  1
  Se  Se38  1  0.08172100  0.99061000  0.36708700  1
  Se  Se39  1  0.41827900  0.49061000  0.13291300  1
  Se  Se40  1  0.40050750  0.85637850  0.78388300  1
  Se  Se41  1  0.09949250  0.35637850  0.71611700  1
  Se  Se42  1  0.09949250  0.64362150  0.21611700  1
  Se  Se43  1  0.40050750  0.14362150  0.28388300  1
  Se  Se44  1  0.21935500  0.78739000  0.60425200  1
  Se  Se45  1  0.28064500  0.28739000  0.89574800  1
  Se  Se46  1  0.28064500  0.71261000  0.39574800  1
  Se  Se47  1  0.21935500  0.21261000  0.10425200  1
  Se  Se48  1  0.17489250  0.97680350  0.83035700  1
  Se  Se49  1  0.32510750  0.47680350  0.66964300  1
  Se  Se50  1  0.32510750  0.52319650  0.16964300  1
  Se  Se51  1  0.17489250  0.02319650  0.33035700  1
  Se  Se52  1  0.14597600  0.54987100  0.89061600  1
  Se  Se53  1  0.35402400  0.04987100  0.60938400  1
  Se  Se54  1  0.35402400  0.95012900  0.10938400  1
  Se  Se55  1  0.14597600  0.45012900  0.39061600  1
  Se  Se56  1  0.96373600  0.16319000  0.90305500  1
  Se  Se57  1  0.53626400  0.66319000  0.59694500  1
  Se  Se58  1  0.53626400  0.33681000  0.09694500  1
  Se  Se59  1  0.96373600  0.83681000  0.40305500  1
  Se  Se60  1  0.93516450  0.40391150  0.57850800  1
  Se  Se61  1  0.56483550  0.90391150  0.92149200  1
  Se  Se62  1  0.56483550  0.09608850  0.42149200  1
  Se  Se63  1  0.93516450  0.59608850  0.07850800  1
  Se  Se64  1  0.91827900  0.00939000  0.63291300  1
  Se  Se65  1  0.58172100  0.50939000  0.86708700  1
  Se  Se66  1  0.58172100  0.49061000  0.36708700  1
  Se  Se67  1  0.91827900  0.99061000  0.13291300  1
  Se  Se68  1  0.90050750  0.35637850  0.78388300  1
  Se  Se69  1  0.59949250  0.85637850  0.71611700  1
  Se  Se70  1  0.59949250  0.14362150  0.21611700  1
  Se  Se71  1  0.90050750  0.64362150  0.28388300  1
  Se  Se72  1  0.71935500  0.28739000  0.60425200  1
  Se  Se73  1  0.78064500  0.78739000  0.89574800  1
  Se  Se74  1  0.78064500  0.21261000  0.39574800  1
  Se  Se75  1  0.71935500  0.71261000  0.10425200  1
  Se  Se76  1  0.67489250  0.47680350  0.83035700  1
  Se  Se77  1  0.82510750  0.97680350  0.66964300  1
  Se  Se78  1  0.82510750  0.02319650  0.16964300  1
  Se  Se79  1  0.67489250  0.52319650  0.33035700  1
  Se  Se80  1  0.64597600  0.04987100  0.89061600  1
  Se  Se81  1  0.85402400  0.54987100  0.60938400  1
  Se  Se82  1  0.85402400  0.45012900  0.10938400  1
  Se  Se83  1  0.64597600  0.95012900  0.39061600  1
