# generated using pymatgen
data_Nd10S14O
_symmetry_space_group_name_H-M   'P 1'
_cell_length_a   15.14637800
_cell_length_b   15.14637800
_cell_length_c   20.07620600
_cell_angle_alpha   90.00000000
_cell_angle_beta   90.00000000
_cell_angle_gamma   90.00000000
_symmetry_Int_Tables_number   1
_chemical_formula_structural   Nd10S14O
_chemical_formula_sum   'Nd80 S112 O8'
_cell_volume   4605.73795966
_cell_formula_units_Z   8
loop_
 _symmetry_equiv_pos_site_id
 _symmetry_equiv_pos_as_xyz
  1  'x, y, z'
loop_
 _atom_site_type_symbol
 _atom_site_label
 _atom_site_symmetry_multiplicity
 _atom_site_fract_x
 _atom_site_fract_y
 _atom_site_fract_z
 _atom_site_occupancy
  Nd  Nd0  1  0.36512200  0.13487800  0.00000000  1
  Nd  Nd1  1  0.22265250  0.87220450  0.32825750  1
  Nd  Nd2  1  0.87220450  0.22265250  0.17174250  1
  Nd  Nd3  1  0.36512200  0.36512200  0.75000000  1
  Nd  Nd4  1  0.72265250  0.62779550  0.32825750  1
  Nd  Nd5  1  0.49364450  0.36779550  0.93262650  1
  Nd  Nd6  1  0.36779550  0.50635550  0.06737350  1
  Nd  Nd7  1  0.27734750  0.12779550  0.42174250  1
  Nd  Nd8  1  0.62779550  0.22265250  0.07825750  1
  Nd  Nd9  1  0.49364450  0.86779550  0.31737350  1
  Nd  Nd10  1  0.99364450  0.63220450  0.31737350  1
  Nd  Nd11  1  0.37220450  0.22265250  0.57825750  1
  Nd  Nd12  1  0.13220450  0.00635550  0.06737350  1
  Nd  Nd13  1  0.22265250  0.37220450  0.92174250  1
  Nd  Nd14  1  0.13487800  0.13487800  0.25000000  1
  Nd  Nd15  1  0.86512200  0.13487800  0.75000000  1
  Nd  Nd16  1  0.50635550  0.36779550  0.43262650  1
  Nd  Nd17  1  0.13487800  0.86512200  0.75000000  1
  Nd  Nd18  1  0.12779550  0.22265250  0.67174250  1
  Nd  Nd19  1  0.13220450  0.50635550  0.18262650  1
  Nd  Nd20  1  0.36779550  0.00635550  0.18262650  1
  Nd  Nd21  1  0.27734750  0.37220450  0.32825750  1
  Nd  Nd22  1  0.86779550  0.99364450  0.06737350  1
  Nd  Nd23  1  0.63220450  0.99364450  0.18262650  1
  Nd  Nd24  1  0.49364450  0.63220450  0.43262650  1
  Nd  Nd25  1  0.27734750  0.62779550  0.82825750  1
  Nd  Nd26  1  0.87220450  0.27734750  0.57825750  1
  Nd  Nd27  1  0.12779550  0.27734750  0.07825750  1
  Nd  Nd28  1  0.50635550  0.13220450  0.31737350  1
  Nd  Nd29  1  0.72265250  0.12779550  0.92174250  1
  Nd  Nd30  1  0.12779550  0.77734750  0.17174250  1
  Nd  Nd31  1  0.00635550  0.13220450  0.43262650  1
  Nd  Nd32  1  0.86779550  0.49364450  0.18262650  1
  Nd  Nd33  1  0.36512200  0.86512200  0.50000000  1
  Nd  Nd34  1  0.13487800  0.36512200  0.50000000  1
  Nd  Nd35  1  0.13220450  0.99364450  0.56737350  1
  Nd  Nd36  1  0.13487800  0.63487800  0.00000000  1
  Nd  Nd37  1  0.00635550  0.36779550  0.31737350  1
  Nd  Nd38  1  0.37220450  0.27734750  0.17174250  1
  Nd  Nd39  1  0.77734750  0.37220450  0.42174250  1
  Nd  Nd40  1  0.86512200  0.63487800  0.50000000  1
  Nd  Nd41  1  0.72265250  0.37220450  0.82825750  1
  Nd  Nd42  1  0.37220450  0.72265250  0.67174250  1
  Nd  Nd43  1  0.86512200  0.86512200  0.25000000  1
  Nd  Nd44  1  0.22265250  0.12779550  0.82825750  1
  Nd  Nd45  1  0.99364450  0.86779550  0.43262650  1
  Nd  Nd46  1  0.86779550  0.00635550  0.56737350  1
  Nd  Nd47  1  0.77734750  0.62779550  0.92174250  1
  Nd  Nd48  1  0.12779550  0.72265250  0.57825750  1
  Nd  Nd49  1  0.99364450  0.36779550  0.81737350  1
  Nd  Nd50  1  0.49364450  0.13220450  0.81737350  1
  Nd  Nd51  1  0.87220450  0.72265250  0.07825750  1
  Nd  Nd52  1  0.63220450  0.50635550  0.56737350  1
  Nd  Nd53  1  0.72265250  0.87220450  0.42174250  1
  Nd  Nd54  1  0.63487800  0.63487800  0.75000000  1
  Nd  Nd55  1  0.36512200  0.63487800  0.25000000  1
  Nd  Nd56  1  0.00635550  0.86779550  0.93262650  1
  Nd  Nd57  1  0.63487800  0.36512200  0.25000000  1
  Nd  Nd58  1  0.62779550  0.72265250  0.17174250  1
  Nd  Nd59  1  0.63220450  0.00635550  0.68262650  1
  Nd  Nd60  1  0.86779550  0.50635550  0.68262650  1
  Nd  Nd61  1  0.77734750  0.87220450  0.82825750  1
  Nd  Nd62  1  0.36779550  0.49364450  0.56737350  1
  Nd  Nd63  1  0.13220450  0.49364450  0.68262650  1
  Nd  Nd64  1  0.99364450  0.13220450  0.93262650  1
  Nd  Nd65  1  0.77734750  0.12779550  0.32825750  1
  Nd  Nd66  1  0.37220450  0.77734750  0.07825750  1
  Nd  Nd67  1  0.62779550  0.77734750  0.57825750  1
  Nd  Nd68  1  0.00635550  0.63220450  0.81737350  1
  Nd  Nd69  1  0.22265250  0.62779550  0.42174250  1
  Nd  Nd70  1  0.62779550  0.27734750  0.67174250  1
  Nd  Nd71  1  0.50635550  0.63220450  0.93262650  1
  Nd  Nd72  1  0.36779550  0.99364450  0.68262650  1
  Nd  Nd73  1  0.86512200  0.36512200  0.00000000  1
  Nd  Nd74  1  0.63487800  0.86512200  0.00000000  1
  Nd  Nd75  1  0.63220450  0.49364450  0.06737350  1
  Nd  Nd76  1  0.63487800  0.13487800  0.50000000  1
  Nd  Nd77  1  0.50635550  0.86779550  0.81737350  1
  Nd  Nd78  1  0.87220450  0.77734750  0.67174250  1
  Nd  Nd79  1  0.27734750  0.87220450  0.92174250  1
  S  S80  1  0.17938300  0.46177500  0.04651700  1
  S  S81  1  0.36726550  0.47539050  0.87149550  1
  S  S82  1  0.97539050  0.86726550  0.12850450  1
  S  S83  1  0.82277250  0.34345950  0.28171850  1
  S  S84  1  0.35215100  0.75000000  0.37500000  1
  S  S85  1  0.84345950  0.67722750  0.21828150  1
  S  S86  1  0.63273450  0.47539050  0.37149550  1
  S  S87  1  0.97539050  0.36726550  0.12149550  1
  S  S88  1  0.17722750  0.15654050  0.96828150  1
  S  S89  1  0.34345950  0.32277250  0.03171850  1
  S  S90  1  0.02460950  0.63273450  0.12149550  1
  S  S91  1  0.15654050  0.32277250  0.21828150  1
  S  S92  1  0.17938300  0.03822500  0.70348300  1
  S  S93  1  0.46177500  0.17938300  0.45348300  1
  S  S94  1  0.36726550  0.97539050  0.37850450  1
  S  S95  1  0.32061700  0.53822500  0.70348300  1
  S  S96  1  0.67938300  0.03822500  0.04651700  1
  S  S97  1  0.02460950  0.36726550  0.62149550  1
  S  S98  1  0.65654050  0.17722750  0.21828150  1
  S  S99  1  0.32061700  0.46177500  0.20348300  1
  S  S100  1  0.13273450  0.02460950  0.37149550  1
  S  S101  1  0.25000000  0.85215100  0.62500000  1
  S  S102  1  0.53822500  0.17938300  0.95348300  1
  S  S103  1  0.46177500  0.32061700  0.29651700  1
  S  S104  1  0.32061700  0.03822500  0.54651700  1
  S  S105  1  0.36726550  0.52460950  0.37149550  1
  S  S106  1  0.32277250  0.34345950  0.46828150  1
  S  S107  1  0.34345950  0.82277250  0.21828150  1
  S  S108  1  0.03822500  0.17938300  0.79651700  1
  S  S109  1  0.25000000  0.64784900  0.12500000  1
  S  S110  1  0.13273450  0.52460950  0.87850450  1
  S  S111  1  0.96177500  0.17938300  0.29651700  1
  S  S112  1  0.53822500  0.32061700  0.79651700  1
  S  S113  1  0.35215100  0.25000000  0.87500000  1
  S  S114  1  0.67722750  0.84345950  0.28171850  1
  S  S115  1  0.34345950  0.67722750  0.53171850  1
  S  S116  1  0.17722750  0.84345950  0.46828150  1
  S  S117  1  0.47539050  0.13273450  0.12149550  1
  S  S118  1  0.86726550  0.52460950  0.37850450  1
  S  S119  1  0.17722750  0.65654050  0.28171850  1
  S  S120  1  0.14784900  0.75000000  0.87500000  1
  S  S121  1  0.97539050  0.13273450  0.62850450  1
  S  S122  1  0.15654050  0.82277250  0.03171850  1
  S  S123  1  0.32061700  0.96177500  0.04651700  1
  S  S124  1  0.17938300  0.96177500  0.20348300  1
  S  S125  1  0.96177500  0.32061700  0.45348300  1
  S  S126  1  0.25000000  0.14784900  0.12500000  1
  S  S127  1  0.14784900  0.25000000  0.37500000  1
  S  S128  1  0.32277250  0.65654050  0.96828150  1
  S  S129  1  0.02460950  0.13273450  0.12850450  1
  S  S130  1  0.25000000  0.35215100  0.62500000  1
  S  S131  1  0.52460950  0.36726550  0.12850450  1
  S  S132  1  0.53822500  0.82061700  0.45348300  1
  S  S133  1  0.13273450  0.47539050  0.37850450  1
  S  S134  1  0.32277250  0.15654050  0.28171850  1
  S  S135  1  0.15654050  0.17722750  0.53171850  1
  S  S136  1  0.67938300  0.96177500  0.54651700  1
  S  S137  1  0.86726550  0.97539050  0.37149550  1
  S  S138  1  0.47539050  0.36726550  0.62850450  1
  S  S139  1  0.32277250  0.84345950  0.78171850  1
  S  S140  1  0.85215100  0.25000000  0.87500000  1
  S  S141  1  0.34345950  0.17722750  0.71828150  1
  S  S142  1  0.13273450  0.97539050  0.87149550  1
  S  S143  1  0.47539050  0.86726550  0.62149550  1
  S  S144  1  0.67722750  0.65654050  0.46828150  1
  S  S145  1  0.84345950  0.82277250  0.53171850  1
  S  S146  1  0.52460950  0.13273450  0.62149550  1
  S  S147  1  0.65654050  0.82277250  0.71828150  1
  S  S148  1  0.67938300  0.53822500  0.20348300  1
  S  S149  1  0.96177500  0.67938300  0.95348300  1
  S  S150  1  0.86726550  0.47539050  0.87850450  1
  S  S151  1  0.82061700  0.03822500  0.20348300  1
  S  S152  1  0.17938300  0.53822500  0.54651700  1
  S  S153  1  0.52460950  0.86726550  0.12149550  1
  S  S154  1  0.15654050  0.67722750  0.71828150  1
  S  S155  1  0.82061700  0.96177500  0.70348300  1
  S  S156  1  0.63273450  0.52460950  0.87149550  1
  S  S157  1  0.75000000  0.35215100  0.12500000  1
  S  S158  1  0.03822500  0.67938300  0.45348300  1
  S  S159  1  0.96177500  0.82061700  0.79651700  1
  S  S160  1  0.82061700  0.53822500  0.04651700  1
  S  S161  1  0.86726550  0.02460950  0.87149550  1
  S  S162  1  0.82277250  0.84345950  0.96828150  1
  S  S163  1  0.84345950  0.32277250  0.71828150  1
  S  S164  1  0.53822500  0.67938300  0.29651700  1
  S  S165  1  0.75000000  0.14784900  0.62500000  1
  S  S166  1  0.63273450  0.02460950  0.37850450  1
  S  S167  1  0.46177500  0.67938300  0.79651700  1
  S  S168  1  0.03822500  0.82061700  0.29651700  1
  S  S169  1  0.85215100  0.75000000  0.37500000  1
  S  S170  1  0.17722750  0.34345950  0.78171850  1
  S  S171  1  0.84345950  0.17722750  0.03171850  1
  S  S172  1  0.67722750  0.34345950  0.96828150  1
  S  S173  1  0.97539050  0.63273450  0.62149550  1
  S  S174  1  0.36726550  0.02460950  0.87850450  1
  S  S175  1  0.67722750  0.15654050  0.78171850  1
  S  S176  1  0.64784900  0.25000000  0.37500000  1
  S  S177  1  0.47539050  0.63273450  0.12850450  1
  S  S178  1  0.65654050  0.32277250  0.53171850  1
  S  S179  1  0.82061700  0.46177500  0.54651700  1
  S  S180  1  0.67938300  0.46177500  0.70348300  1
  S  S181  1  0.46177500  0.82061700  0.95348300  1
  S  S182  1  0.75000000  0.64784900  0.62500000  1
  S  S183  1  0.64784900  0.75000000  0.87500000  1
  S  S184  1  0.82277250  0.15654050  0.46828150  1
  S  S185  1  0.52460950  0.63273450  0.62850450  1
  S  S186  1  0.75000000  0.85215100  0.12500000  1
  S  S187  1  0.02460950  0.86726550  0.62850450  1
  S  S188  1  0.03822500  0.32061700  0.95348300  1
  S  S189  1  0.63273450  0.97539050  0.87850450  1
  S  S190  1  0.82277250  0.65654050  0.78171850  1
  S  S191  1  0.65654050  0.67722750  0.03171850  1
  O  O192  1  0.00000000  0.50000000  0.25000000  1
  O  O193  1  0.00000000  0.00000000  0.50000000  1
  O  O194  1  0.00000000  0.00000000  0.00000000  1
  O  O195  1  0.50000000  0.00000000  0.25000000  1
  O  O196  1  0.50000000  0.00000000  0.75000000  1
  O  O197  1  0.50000000  0.50000000  0.00000000  1
  O  O198  1  0.50000000  0.50000000  0.50000000  1
  O  O199  1  0.00000000  0.50000000  0.75000000  1
