# generated using pymatgen
data_AlPO4
_symmetry_space_group_name_H-M   'P 1'
_cell_length_a   18.74511200
_cell_length_b   32.44556600
_cell_length_c   8.52825296
_cell_angle_alpha   90.00000000
_cell_angle_beta   90.02713541
_cell_angle_gamma   90.00000000
_symmetry_Int_Tables_number   1
_chemical_formula_structural   AlPO4
_chemical_formula_sum   'Al36 P36 O144'
_cell_volume   5186.84677973
_cell_formula_units_Z   36
loop_
 _symmetry_equiv_pos_site_id
 _symmetry_equiv_pos_as_xyz
  1  'x, y, z'
loop_
 _atom_site_type_symbol
 _atom_site_label
 _atom_site_symmetry_multiplicity
 _atom_site_fract_x
 _atom_site_fract_y
 _atom_site_fract_z
 _atom_site_occupancy
  Al  Al0  1  0.59500100  0.08836900  0.26258700  1
  Al  Al1  1  0.21750200  0.20838200  0.76189800  1
  Al  Al2  1  0.58557100  0.75224700  0.26351400  1
  Al  Al3  1  0.59500100  0.91163100  0.26258700  1
  Al  Al4  1  0.29681650  0.28662150  0.26112200  1
  Al  Al5  1  0.43557800  0.00000000  0.26445900  1
  Al  Al6  1  0.67590300  0.16853300  0.76454000  1
  Al  Al7  1  0.35055200  0.16436500  0.26446900  1
  Al  Al8  1  0.58557100  0.24775300  0.26351400  1
  Al  Al9  1  0.59528700  0.00000000  0.76268600  1
  Al  Al10  1  0.43378450  0.08441150  0.76410500  1
  Al  Al11  1  0.35055200  0.83563500  0.26446900  1
  Al  Al12  1  0.21750200  0.79161800  0.76189800  1
  Al  Al13  1  0.29681650  0.71337850  0.26112200  1
  Al  Al14  1  0.42628250  0.24662250  0.76427500  1
  Al  Al15  1  0.43378450  0.91558850  0.76410500  1
  Al  Al16  1  0.67590300  0.83146700  0.76454000  1
  Al  Al17  1  0.42628250  0.75337750  0.76427500  1
  Al  Al18  1  0.09500100  0.58836900  0.26258700  1
  Al  Al19  1  0.71750200  0.70838200  0.76189800  1
  Al  Al20  1  0.08557100  0.25224700  0.26351400  1
  Al  Al21  1  0.09500100  0.41163100  0.26258700  1
  Al  Al22  1  0.79681650  0.78662150  0.26112200  1
  Al  Al23  1  0.93557800  0.50000000  0.26445900  1
  Al  Al24  1  0.17590300  0.66853300  0.76454000  1
  Al  Al25  1  0.85055200  0.66436500  0.26446900  1
  Al  Al26  1  0.08557100  0.74775300  0.26351400  1
  Al  Al27  1  0.09528700  0.50000000  0.76268600  1
  Al  Al28  1  0.93378450  0.58441150  0.76410500  1
  Al  Al29  1  0.85055200  0.33563500  0.26446900  1
  Al  Al30  1  0.71750200  0.29161800  0.76189800  1
  Al  Al31  1  0.79681650  0.21337850  0.26112200  1
  Al  Al32  1  0.92628250  0.74662250  0.76427500  1
  Al  Al33  1  0.93378450  0.41558850  0.76410500  1
  Al  Al34  1  0.17590300  0.33146700  0.76454000  1
  Al  Al35  1  0.92628250  0.25337750  0.76427500  1
  P  P36  1  0.67349500  0.16799300  0.38937500  1
  P  P37  1  0.59710700  0.08890400  0.89065800  1
  P  P38  1  0.42665200  0.24775300  0.38852900  1
  P  P39  1  0.29947100  0.71248600  0.88654000  1
  P  P40  1  0.58506800  0.75266600  0.89089400  1
  P  P41  1  0.59690000  0.00000000  0.38917200  1
  P  P42  1  0.21603200  0.20697700  0.39000000  1
  P  P43  1  0.21603200  0.79302300  0.39000000  1
  P  P44  1  0.43270100  0.08527300  0.38867600  1
  P  P45  1  0.42665200  0.75224700  0.38852900  1
  P  P46  1  0.43376800  0.00000000  0.88508600  1
  P  P47  1  0.59710700  0.91109600  0.89065800  1
  P  P48  1  0.58506800  0.24733400  0.89089400  1
  P  P49  1  0.67349500  0.83200700  0.38937500  1
  P  P50  1  0.35021850  0.16293350  0.89009500  1
  P  P51  1  0.29947100  0.28751400  0.88654000  1
  P  P52  1  0.35021850  0.83706650  0.89009500  1
  P  P53  1  0.43270100  0.91472700  0.38867600  1
  P  P54  1  0.17349500  0.66799300  0.38937500  1
  P  P55  1  0.09710700  0.58890400  0.89065800  1
  P  P56  1  0.92665200  0.74775300  0.38852900  1
  P  P57  1  0.79947100  0.21248600  0.88654000  1
  P  P58  1  0.08506800  0.25266600  0.89089400  1
  P  P59  1  0.09690000  0.50000000  0.38917200  1
  P  P60  1  0.71603200  0.70697700  0.39000000  1
  P  P61  1  0.71603200  0.29302300  0.39000000  1
  P  P62  1  0.93270100  0.58527300  0.38867600  1
  P  P63  1  0.92665200  0.25224700  0.38852900  1
  P  P64  1  0.93376800  0.50000000  0.88508600  1
  P  P65  1  0.09710700  0.41109600  0.89065800  1
  P  P66  1  0.08506800  0.74733400  0.89089400  1
  P  P67  1  0.17349500  0.33200700  0.38937500  1
  P  P68  1  0.85021850  0.66293350  0.89009500  1
  P  P69  1  0.79947100  0.78751400  0.88654000  1
  P  P70  1  0.85021850  0.33706650  0.89009500  1
  P  P71  1  0.93270100  0.41472700  0.38867600  1
  O  O72  1  0.40322200  0.20820800  0.30189000  1
  O  O73  1  0.61000350  0.90155850  0.06447800  1
  O  O74  1  0.50294300  0.90718100  0.29886500  1
  O  O75  1  0.44957850  0.07900950  0.56325500  1
  O  O76  1  0.44957850  0.92099050  0.56325500  1
  O  O77  1  0.63611800  0.28367100  0.85855400  1
  O  O78  1  0.20198300  0.19787500  0.56402500  1
  O  O79  1  0.35594300  0.15280100  0.06519500  1
  O  O80  1  0.62034350  0.20591250  0.84953700  1
  O  O81  1  0.35594300  0.84719900  0.06519500  1
  O  O82  1  0.38316100  0.12245500  0.37049000  1
  O  O83  1  0.40913500  0.24340000  0.56346300  1
  O  O84  1  0.37988250  0.71092650  0.84829800  1
  O  O85  1  0.68233050  0.82198050  0.56391500  1
  O  O86  1  0.26541500  0.25456200  0.77959800  1
  O  O87  1  0.62505100  0.95470200  0.85291600  1
  O  O88  1  0.56409300  0.75277900  0.06459100  1
  O  O89  1  0.62363650  0.20003450  0.31309200  1
  O  O90  1  0.61705100  0.00000000  0.56375400  1
  O  O91  1  0.27130150  0.17036850  0.84710800  1
  O  O92  1  0.20198300  0.80212500  0.56402500  1
  O  O93  1  0.63611800  0.71632900  0.85855400  1
  O  O94  1  0.74743700  0.16896600  0.30822100  1
  O  O95  1  0.27130150  0.82963150  0.84710800  1
  O  O96  1  0.51677750  0.09273550  0.85505900  1
  O  O97  1  0.76214300  0.17109400  0.85143100  1
  O  O98  1  0.38316100  0.87754500  0.37049000  1
  O  O99  1  0.28861650  0.27577950  0.06032900  1
  O  O100  1  0.51525600  0.00000000  0.37230200  1
  O  O101  1  0.26057050  0.82810350  0.31798700  1
  O  O102  1  0.38692000  0.28543200  0.31884900  1
  O  O103  1  0.64167600  0.12478400  0.37231600  1
  O  O104  1  0.51677750  0.90726450  0.85505900  1
  O  O105  1  0.64413250  0.28902750  0.30362800  1
  O  O106  1  0.62363650  0.79996550  0.31309200  1
  O  O107  1  0.62735100  0.03888700  0.31023900  1
  O  O108  1  0.64413250  0.71097250  0.30362800  1
  O  O109  1  0.50294300  0.09281900  0.29886500  1
  O  O110  1  0.45135600  0.00000000  0.06175100  1
  O  O111  1  0.50695600  0.25455900  0.36930800  1
  O  O112  1  0.40913500  0.75660000  0.56346300  1
  O  O113  1  0.51767750  0.74691750  0.79128600  1
  O  O114  1  0.50266900  0.00000000  0.78654900  1
  O  O115  1  0.26541500  0.74543800  0.77959800  1
  O  O116  1  0.74743700  0.83103400  0.30822100  1
  O  O117  1  0.51767750  0.25308250  0.79128600  1
  O  O118  1  0.62735100  0.96111300  0.31023900  1
  O  O119  1  0.26057050  0.17189650  0.31798700  1
  O  O120  1  0.39639500  0.79900000  0.85361800  1
  O  O121  1  0.63911000  0.11980400  0.79101200  1
  O  O122  1  0.68233050  0.17801950  0.56391500  1
  O  O123  1  0.62034350  0.79408750  0.84953700  1
  O  O124  1  0.62505100  0.04529800  0.85291600  1
  O  O125  1  0.25751100  0.75230700  0.37461200  1
  O  O126  1  0.76214300  0.82890600  0.85143100  1
  O  O127  1  0.56409300  0.24722100  0.06459100  1
  O  O128  1  0.39480950  0.95341650  0.32178200  1
  O  O129  1  0.39227200  0.03951900  0.84231600  1
  O  O130  1  0.25751100  0.24769300  0.37461200  1
  O  O131  1  0.38692000  0.71456800  0.31884900  1
  O  O132  1  0.39639500  0.20100000  0.85361800  1
  O  O133  1  0.50695600  0.74544100  0.36930800  1
  O  O134  1  0.37706900  0.12608700  0.79453200  1
  O  O135  1  0.64167600  0.87521600  0.37231600  1
  O  O136  1  0.40322200  0.79179200  0.30189000  1
  O  O137  1  0.39480950  0.04658350  0.32178200  1
  O  O138  1  0.37988250  0.28907350  0.84829800  1
  O  O139  1  0.61000350  0.09844150  0.06447800  1
  O  O140  1  0.63911000  0.88019600  0.79101200  1
  O  O141  1  0.28861650  0.72422050  0.06032900  1
  O  O142  1  0.39227200  0.96048100  0.84231600  1
  O  O143  1  0.37706900  0.87391300  0.79453200  1
  O  O144  1  0.90322200  0.70820800  0.30189000  1
  O  O145  1  0.11000350  0.40155850  0.06447800  1
  O  O146  1  0.00294300  0.40718100  0.29886500  1
  O  O147  1  0.94957850  0.57900950  0.56325500  1
  O  O148  1  0.94957850  0.42099050  0.56325500  1
  O  O149  1  0.13611800  0.78367100  0.85855400  1
  O  O150  1  0.70198300  0.69787500  0.56402500  1
  O  O151  1  0.85594300  0.65280100  0.06519500  1
  O  O152  1  0.12034350  0.70591250  0.84953700  1
  O  O153  1  0.85594300  0.34719900  0.06519500  1
  O  O154  1  0.88316100  0.62245500  0.37049000  1
  O  O155  1  0.90913500  0.74340000  0.56346300  1
  O  O156  1  0.87988250  0.21092650  0.84829800  1
  O  O157  1  0.18233050  0.32198050  0.56391500  1
  O  O158  1  0.76541500  0.75456200  0.77959800  1
  O  O159  1  0.12505100  0.45470200  0.85291600  1
  O  O160  1  0.06409300  0.25277900  0.06459100  1
  O  O161  1  0.12363650  0.70003450  0.31309200  1
  O  O162  1  0.11705100  0.50000000  0.56375400  1
  O  O163  1  0.77130150  0.67036850  0.84710800  1
  O  O164  1  0.70198300  0.30212500  0.56402500  1
  O  O165  1  0.13611800  0.21632900  0.85855400  1
  O  O166  1  0.24743700  0.66896600  0.30822100  1
  O  O167  1  0.77130150  0.32963150  0.84710800  1
  O  O168  1  0.01677750  0.59273550  0.85505900  1
  O  O169  1  0.26214300  0.67109400  0.85143100  1
  O  O170  1  0.88316100  0.37754500  0.37049000  1
  O  O171  1  0.78861650  0.77577950  0.06032900  1
  O  O172  1  0.01525600  0.50000000  0.37230200  1
  O  O173  1  0.76057050  0.32810350  0.31798700  1
  O  O174  1  0.88692000  0.78543200  0.31884900  1
  O  O175  1  0.14167600  0.62478400  0.37231600  1
  O  O176  1  0.01677750  0.40726450  0.85505900  1
  O  O177  1  0.14413250  0.78902750  0.30362800  1
  O  O178  1  0.12363650  0.29996550  0.31309200  1
  O  O179  1  0.12735100  0.53888700  0.31023900  1
  O  O180  1  0.14413250  0.21097250  0.30362800  1
  O  O181  1  0.00294300  0.59281900  0.29886500  1
  O  O182  1  0.95135600  0.50000000  0.06175100  1
  O  O183  1  0.00695600  0.75455900  0.36930800  1
  O  O184  1  0.90913500  0.25660000  0.56346300  1
  O  O185  1  0.01767750  0.24691750  0.79128600  1
  O  O186  1  0.00266900  0.50000000  0.78654900  1
  O  O187  1  0.76541500  0.24543800  0.77959800  1
  O  O188  1  0.24743700  0.33103400  0.30822100  1
  O  O189  1  0.01767750  0.75308250  0.79128600  1
  O  O190  1  0.12735100  0.46111300  0.31023900  1
  O  O191  1  0.76057050  0.67189650  0.31798700  1
  O  O192  1  0.89639500  0.29900000  0.85361800  1
  O  O193  1  0.13911000  0.61980400  0.79101200  1
  O  O194  1  0.18233050  0.67801950  0.56391500  1
  O  O195  1  0.12034350  0.29408750  0.84953700  1
  O  O196  1  0.12505100  0.54529800  0.85291600  1
  O  O197  1  0.75751100  0.25230700  0.37461200  1
  O  O198  1  0.26214300  0.32890600  0.85143100  1
  O  O199  1  0.06409300  0.74722100  0.06459100  1
  O  O200  1  0.89480950  0.45341650  0.32178200  1
  O  O201  1  0.89227200  0.53951900  0.84231600  1
  O  O202  1  0.75751100  0.74769300  0.37461200  1
  O  O203  1  0.88692000  0.21456800  0.31884900  1
  O  O204  1  0.89639500  0.70100000  0.85361800  1
  O  O205  1  0.00695600  0.24544100  0.36930800  1
  O  O206  1  0.87706900  0.62608700  0.79453200  1
  O  O207  1  0.14167600  0.37521600  0.37231600  1
  O  O208  1  0.90322200  0.29179200  0.30189000  1
  O  O209  1  0.89480950  0.54658350  0.32178200  1
  O  O210  1  0.87988250  0.78907350  0.84829800  1
  O  O211  1  0.11000350  0.59844150  0.06447800  1
  O  O212  1  0.13911000  0.38019600  0.79101200  1
  O  O213  1  0.78861650  0.22422050  0.06032900  1
  O  O214  1  0.89227200  0.46048100  0.84231600  1
  O  O215  1  0.87706900  0.37391300  0.79453200  1
