# generated using pymatgen
data_BaCa(CO3)2
_symmetry_space_group_name_H-M   'P 1'
_cell_length_a   8.78836135
_cell_length_b   8.78836135
_cell_length_c   6.24329000
_cell_angle_alpha   90.00000000
_cell_angle_beta   90.00000000
_cell_angle_gamma   120.00000000
_symmetry_Int_Tables_number   1
_chemical_formula_structural   BaCa(CO3)2
_chemical_formula_sum   'Ba3 Ca3 C6 O18'
_cell_volume   417.59948172
_cell_formula_units_Z   3
loop_
 _symmetry_equiv_pos_site_id
 _symmetry_equiv_pos_as_xyz
  1  'x, y, z'
loop_
 _atom_site_type_symbol
 _atom_site_label
 _atom_site_symmetry_multiplicity
 _atom_site_fract_x
 _atom_site_fract_y
 _atom_site_fract_z
 _atom_site_occupancy
  Ba  Ba0  1  0.00000000  0.68684200  0.00000000  1
  Ba  Ba1  1  0.68684200  0.00000000  0.00000000  1
  Ba  Ba2  1  0.31315800  0.31315800  0.00000000  1
  Ca  Ca3  1  0.35986800  0.00000000  0.50000000  1
  Ca  Ca4  1  0.64013200  0.64013200  0.50000000  1
  Ca  Ca5  1  0.00000000  0.35986800  0.50000000  1
  C  C6  1  0.66666667  0.33333333  0.64552700  1
  C  C7  1  0.00000000  0.00000000  0.26496200  1
  C  C8  1  0.00000000  0.00000000  0.73503800  1
  C  C9  1  0.66666667  0.33333333  0.18381600  1
  C  C10  1  0.33333333  0.66666667  0.81618400  1
  C  C11  1  0.33333333  0.66666667  0.35447300  1
  O  O12  1  0.00224500  0.14890100  0.74158900  1
  O  O13  1  0.99775500  0.14665600  0.25841100  1
  O  O14  1  0.82028200  0.34491200  0.18088800  1
  O  O15  1  0.19018700  0.67599500  0.35828600  1
  O  O16  1  0.85109900  0.85334400  0.74158900  1
  O  O17  1  0.14890100  0.00224500  0.25841100  1
  O  O18  1  0.80981300  0.48580800  0.64171400  1
  O  O19  1  0.47537000  0.65508800  0.81911200  1
  O  O20  1  0.85334400  0.85109900  0.25841100  1
  O  O21  1  0.65508800  0.47537000  0.18088800  1
  O  O22  1  0.32400500  0.51419200  0.35828600  1
  O  O23  1  0.67599500  0.19018700  0.64171400  1
  O  O24  1  0.34491200  0.82028200  0.81911200  1
  O  O25  1  0.17971800  0.52463000  0.81911200  1
  O  O26  1  0.14665600  0.99775500  0.74158900  1
  O  O27  1  0.51419200  0.32400500  0.64171400  1
  O  O28  1  0.52463000  0.17971800  0.18088800  1
  O  O29  1  0.48580800  0.80981300  0.35828600  1
