# generated using pymatgen
data_Cs3TaO8
_symmetry_space_group_name_H-M   'P 1'
_cell_length_a   7.54116600
_cell_length_b   7.54116600
_cell_length_c   8.49155800
_cell_angle_alpha   90.00000000
_cell_angle_beta   90.00000000
_cell_angle_gamma   90.00000000
_symmetry_Int_Tables_number   1
_chemical_formula_structural   Cs3TaO8
_chemical_formula_sum   'Cs6 Ta2 O16'
_cell_volume   482.90797978
_cell_formula_units_Z   2
loop_
 _symmetry_equiv_pos_site_id
 _symmetry_equiv_pos_as_xyz
  1  'x, y, z'
loop_
 _atom_site_type_symbol
 _atom_site_label
 _atom_site_symmetry_multiplicity
 _atom_site_fract_x
 _atom_site_fract_y
 _atom_site_fract_z
 _atom_site_occupancy
  Cs  Cs0  1  0.00000000  0.00000000  0.50000000  1
  Cs  Cs1  1  0.00000000  0.50000000  0.25000000  1
  Cs  Cs2  1  0.50000000  0.00000000  0.25000000  1
  Cs  Cs3  1  0.50000000  0.50000000  0.00000000  1
  Cs  Cs4  1  0.50000000  0.00000000  0.75000000  1
  Cs  Cs5  1  0.00000000  0.50000000  0.75000000  1
  Ta  Ta6  1  0.00000000  0.00000000  0.00000000  1
  Ta  Ta7  1  0.50000000  0.50000000  0.50000000  1
  O  O8  1  0.87205300  0.12794700  0.17646900  1
  O  O9  1  0.30533350  0.30533350  0.48074050  1
  O  O10  1  0.37205300  0.37205300  0.32353100  1
  O  O11  1  0.12794700  0.87205300  0.17646900  1
  O  O12  1  0.12794700  0.12794700  0.82353100  1
  O  O13  1  0.19466650  0.19466650  0.98074050  1
  O  O14  1  0.69466650  0.30533350  0.51925950  1
  O  O15  1  0.30533350  0.69466650  0.51925950  1
  O  O16  1  0.37205300  0.62794700  0.67646900  1
  O  O17  1  0.80533350  0.80533350  0.98074050  1
  O  O18  1  0.87205300  0.87205300  0.82353100  1
  O  O19  1  0.62794700  0.37205300  0.67646900  1
  O  O20  1  0.62794700  0.62794700  0.32353100  1
  O  O21  1  0.69466650  0.69466650  0.48074050  1
  O  O22  1  0.19466650  0.80533350  0.01925950  1
  O  O23  1  0.80533350  0.19466650  0.01925950  1
