# generated using pymatgen
data_Ca14GaAs11
_symmetry_space_group_name_H-M   'P 1'
_cell_length_a   15.71441600
_cell_length_b   15.71441600
_cell_length_c   21.27124000
_cell_angle_alpha   90.00000000
_cell_angle_beta   90.00000000
_cell_angle_gamma   90.00000000
_symmetry_Int_Tables_number   1
_chemical_formula_structural   Ca14GaAs11
_chemical_formula_sum   'Ca112 Ga8 As88'
_cell_volume   5252.78105876
_cell_formula_units_Z   8
loop_
 _symmetry_equiv_pos_site_id
 _symmetry_equiv_pos_as_xyz
  1  'x, y, z'
loop_
 _atom_site_type_symbol
 _atom_site_label
 _atom_site_symmetry_multiplicity
 _atom_site_fract_x
 _atom_site_fract_y
 _atom_site_fract_z
 _atom_site_occupancy
  Ca  Ca0  1  0.97628350  0.62742350  0.11809850  1
  Ca  Ca1  1  0.97628350  0.12742350  0.13190150  1
  Ca  Ca2  1  0.32010450  0.34452950  0.96811650  1
  Ca  Ca3  1  0.52371650  0.37257650  0.63190150  1
  Ca  Ca4  1  0.32010450  0.84452950  0.28188350  1
  Ca  Ca5  1  0.17657500  0.95608400  0.70426900  1
  Ca  Ca6  1  0.14809500  0.25000000  0.87500000  1
  Ca  Ca7  1  0.25000000  0.35190500  0.12500000  1
  Ca  Ca8  1  0.15547050  0.17989550  0.03188350  1
  Ca  Ca9  1  0.45608400  0.82342500  0.45426900  1
  Ca  Ca10  1  0.04391600  0.17657500  0.29573100  1
  Ca  Ca11  1  0.37257650  0.02371650  0.38190150  1
  Ca  Ca12  1  0.65547050  0.32010450  0.03188350  1
  Ca  Ca13  1  0.67657500  0.95608400  0.04573100  1
  Ca  Ca14  1  0.65547050  0.82010450  0.21811650  1
  Ca  Ca15  1  0.45608400  0.17657500  0.95426900  1
  Ca  Ca16  1  0.64809500  0.25000000  0.87500000  1
  Ca  Ca17  1  0.32342500  0.45608400  0.70426900  1
  Ca  Ca18  1  0.47628350  0.37257650  0.13190150  1
  Ca  Ca19  1  0.37257650  0.52371650  0.86809850  1
  Ca  Ca20  1  0.97628350  0.37257650  0.61809850  1
  Ca  Ca21  1  0.75000000  0.35190500  0.62500000  1
  Ca  Ca22  1  0.75000000  0.14809500  0.12500000  1
  Ca  Ca23  1  0.17989550  0.15547050  0.46811650  1
  Ca  Ca24  1  0.37257650  0.47628350  0.36809850  1
  Ca  Ca25  1  0.34452950  0.32010450  0.53188350  1
  Ca  Ca26  1  0.02371650  0.37257650  0.11809850  1
  Ca  Ca27  1  0.84452950  0.32010450  0.21811650  1
  Ca  Ca28  1  0.85190500  0.25000000  0.37500000  1
  Ca  Ca29  1  0.67989550  0.15547050  0.28188350  1
  Ca  Ca30  1  0.04391600  0.32342500  0.45426900  1
  Ca  Ca31  1  0.54391600  0.17657500  0.45426900  1
  Ca  Ca32  1  0.82010450  0.65547050  0.28188350  1
  Ca  Ca33  1  0.17989550  0.34452950  0.28188350  1
  Ca  Ca34  1  0.32342500  0.04391600  0.04573100  1
  Ca  Ca35  1  0.54391600  0.32342500  0.29573100  1
  Ca  Ca36  1  0.67989550  0.34452950  0.46811650  1
  Ca  Ca37  1  0.95608400  0.17657500  0.79573100  1
  Ca  Ca38  1  0.32342500  0.95608400  0.54573100  1
  Ca  Ca39  1  0.32342500  0.54391600  0.20426900  1
  Ca  Ca40  1  0.12742350  0.97628350  0.36809850  1
  Ca  Ca41  1  0.02371650  0.12742350  0.63190150  1
  Ca  Ca42  1  0.15547050  0.67989550  0.21811650  1
  Ca  Ca43  1  0.87257650  0.47628350  0.38190150  1
  Ca  Ca44  1  0.12742350  0.02371650  0.86809850  1
  Ca  Ca45  1  0.35190500  0.25000000  0.37500000  1
  Ca  Ca46  1  0.82010450  0.15547050  0.96811650  1
  Ca  Ca47  1  0.52371650  0.12742350  0.11809850  1
  Ca  Ca48  1  0.17657500  0.54391600  0.04573100  1
  Ca  Ca49  1  0.12742350  0.52371650  0.38190150  1
  Ca  Ca50  1  0.12742350  0.47628350  0.88190150  1
  Ca  Ca51  1  0.17657500  0.04391600  0.20426900  1
  Ca  Ca52  1  0.34452950  0.17989550  0.21811650  1
  Ca  Ca53  1  0.84452950  0.17989550  0.53188350  1
  Ca  Ca54  1  0.45608400  0.32342500  0.79573100  1
  Ca  Ca55  1  0.25000000  0.14809500  0.62500000  1
  Ca  Ca56  1  0.47628350  0.12742350  0.61809850  1
  Ca  Ca57  1  0.47628350  0.62742350  0.63190150  1
  Ca  Ca58  1  0.82010450  0.84452950  0.46811650  1
  Ca  Ca59  1  0.02371650  0.87257650  0.13190150  1
  Ca  Ca60  1  0.82010450  0.34452950  0.78188350  1
  Ca  Ca61  1  0.67657500  0.45608400  0.20426900  1
  Ca  Ca62  1  0.64809500  0.75000000  0.37500000  1
  Ca  Ca63  1  0.75000000  0.85190500  0.62500000  1
  Ca  Ca64  1  0.65547050  0.67989550  0.53188350  1
  Ca  Ca65  1  0.95608400  0.32342500  0.95426900  1
  Ca  Ca66  1  0.54391600  0.67657500  0.79573100  1
  Ca  Ca67  1  0.87257650  0.52371650  0.88190150  1
  Ca  Ca68  1  0.15547050  0.82010450  0.53188350  1
  Ca  Ca69  1  0.17657500  0.45608400  0.54573100  1
  Ca  Ca70  1  0.15547050  0.32010450  0.71811650  1
  Ca  Ca71  1  0.95608400  0.67657500  0.45426900  1
  Ca  Ca72  1  0.14809500  0.75000000  0.37500000  1
  Ca  Ca73  1  0.82342500  0.95608400  0.20426900  1
  Ca  Ca74  1  0.97628350  0.87257650  0.63190150  1
  Ca  Ca75  1  0.87257650  0.02371650  0.36809850  1
  Ca  Ca76  1  0.47628350  0.87257650  0.11809850  1
  Ca  Ca77  1  0.25000000  0.85190500  0.12500000  1
  Ca  Ca78  1  0.25000000  0.64809500  0.62500000  1
  Ca  Ca79  1  0.67989550  0.65547050  0.96811650  1
  Ca  Ca80  1  0.87257650  0.97628350  0.86809850  1
  Ca  Ca81  1  0.84452950  0.82010450  0.03188350  1
  Ca  Ca82  1  0.52371650  0.87257650  0.61809850  1
  Ca  Ca83  1  0.34452950  0.82010450  0.71811650  1
  Ca  Ca84  1  0.35190500  0.75000000  0.87500000  1
  Ca  Ca85  1  0.17989550  0.65547050  0.78188350  1
  Ca  Ca86  1  0.54391600  0.82342500  0.95426900  1
  Ca  Ca87  1  0.04391600  0.67657500  0.95426900  1
  Ca  Ca88  1  0.32010450  0.15547050  0.78188350  1
  Ca  Ca89  1  0.67989550  0.84452950  0.78188350  1
  Ca  Ca90  1  0.82342500  0.54391600  0.54573100  1
  Ca  Ca91  1  0.04391600  0.82342500  0.79573100  1
  Ca  Ca92  1  0.17989550  0.84452950  0.96811650  1
  Ca  Ca93  1  0.45608400  0.67657500  0.29573100  1
  Ca  Ca94  1  0.82342500  0.45608400  0.04573100  1
  Ca  Ca95  1  0.82342500  0.04391600  0.70426900  1
  Ca  Ca96  1  0.62742350  0.47628350  0.86809850  1
  Ca  Ca97  1  0.52371650  0.62742350  0.13190150  1
  Ca  Ca98  1  0.65547050  0.17989550  0.71811650  1
  Ca  Ca99  1  0.37257650  0.97628350  0.88190150  1
  Ca  Ca100  1  0.62742350  0.52371650  0.36809850  1
  Ca  Ca101  1  0.85190500  0.75000000  0.87500000  1
  Ca  Ca102  1  0.32010450  0.65547050  0.46811650  1
  Ca  Ca103  1  0.02371650  0.62742350  0.61809850  1
  Ca  Ca104  1  0.67657500  0.04391600  0.54573100  1
  Ca  Ca105  1  0.62742350  0.02371650  0.88190150  1
  Ca  Ca106  1  0.62742350  0.97628350  0.38190150  1
  Ca  Ca107  1  0.67657500  0.54391600  0.70426900  1
  Ca  Ca108  1  0.84452950  0.67989550  0.71811650  1
  Ca  Ca109  1  0.34452950  0.67989550  0.03188350  1
  Ca  Ca110  1  0.95608400  0.82342500  0.29573100  1
  Ca  Ca111  1  0.75000000  0.64809500  0.12500000  1
  Ga  Ga112  1  0.50000000  0.00000000  0.25000000  1
  Ga  Ga113  1  0.00000000  0.50000000  0.25000000  1
  Ga  Ga114  1  0.00000000  0.00000000  0.00000000  1
  Ga  Ga115  1  0.00000000  0.00000000  0.50000000  1
  Ga  Ga116  1  0.00000000  0.50000000  0.75000000  1
  Ga  Ga117  1  0.50000000  0.00000000  0.75000000  1
  Ga  Ga118  1  0.50000000  0.50000000  0.50000000  1
  Ga  Ga119  1  0.50000000  0.50000000  0.00000000  1
  As  As120  1  0.27502100  0.37033600  0.82802500  1
  As  As121  1  0.87033600  0.22497900  0.67197500  1
  As  As122  1  0.12966400  0.27502100  0.57802500  1
  As  As123  1  0.49618650  0.13639350  0.31672650  1
  As  As124  1  0.13639350  0.00381350  0.56672650  1
  As  As125  1  0.22497900  0.37033600  0.42197500  1
  As  As126  1  0.00000000  0.50000000  0.00000000  1
  As  As127  1  0.86360650  0.50381350  0.18327350  1
  As  As128  1  0.27502100  0.87033600  0.42197500  1
  As  As129  1  0.49618650  0.36360650  0.43327350  1
  As  As130  1  0.36630800  0.13369200  0.50000000  1
  As  As131  1  0.72497900  0.37033600  0.32802500  1
  As  As132  1  0.12966400  0.72497900  0.07802500  1
  As  As133  1  0.99618650  0.36360650  0.31672650  1
  As  As134  1  0.13639350  0.99618650  0.06672650  1
  As  As135  1  0.86360650  0.00381350  0.06672650  1
  As  As136  1  0.62966400  0.27502100  0.17197500  1
  As  As137  1  0.13369200  0.36630800  0.00000000  1
  As  As138  1  0.13639350  0.49618650  0.18327350  1
  As  As139  1  0.36630800  0.36630800  0.25000000  1
  As  As140  1  0.36360650  0.49618650  0.06672650  1
  As  As141  1  0.00000000  0.00000000  0.25000000  1
  As  As142  1  0.50381350  0.63639350  0.43327350  1
  As  As143  1  0.27502100  0.62966400  0.32802500  1
  As  As144  1  0.00381350  0.63639350  0.31672650  1
  As  As145  1  0.99618650  0.13639350  0.43327350  1
  As  As146  1  0.37033600  0.77502100  0.57802500  1
  As  As147  1  0.87033600  0.77502100  0.17197500  1
  As  As148  1  0.86630800  0.13369200  0.25000000  1
  As  As149  1  0.50381350  0.86360650  0.31672650  1
  As  As150  1  0.27502100  0.12966400  0.92197500  1
  As  As151  1  0.50000000  0.00000000  0.00000000  1
  As  As152  1  0.86630800  0.36630800  0.50000000  1
  As  As153  1  0.63369200  0.13369200  0.00000000  1
  As  As154  1  0.22497900  0.12966400  0.32802500  1
  As  As155  1  0.00000000  0.00000000  0.75000000  1
  As  As156  1  0.13369200  0.13369200  0.75000000  1
  As  As157  1  0.37033600  0.22497900  0.07802500  1
  As  As158  1  0.12966400  0.22497900  0.17197500  1
  As  As159  1  0.13369200  0.86630800  0.25000000  1
  As  As160  1  0.22497900  0.62966400  0.92197500  1
  As  As161  1  0.63639350  0.00381350  0.18327350  1
  As  As162  1  0.50381350  0.36360650  0.93327350  1
  As  As163  1  0.36360650  0.99618650  0.18327350  1
  As  As164  1  0.77502100  0.87033600  0.32802500  1
  As  As165  1  0.37033600  0.72497900  0.17197500  1
  As  As166  1  0.62966400  0.77502100  0.07802500  1
  As  As167  1  0.99618650  0.63639350  0.81672650  1
  As  As168  1  0.63639350  0.50381350  0.06672650  1
  As  As169  1  0.72497900  0.87033600  0.92197500  1
  As  As170  1  0.50000000  0.00000000  0.50000000  1
  As  As171  1  0.36360650  0.00381350  0.68327350  1
  As  As172  1  0.77502100  0.37033600  0.92197500  1
  As  As173  1  0.99618650  0.86360650  0.93327350  1
  As  As174  1  0.86630800  0.63369200  0.00000000  1
  As  As175  1  0.22497900  0.87033600  0.82802500  1
  As  As176  1  0.62966400  0.22497900  0.57802500  1
  As  As177  1  0.49618650  0.86360650  0.81672650  1
  As  As178  1  0.63639350  0.49618650  0.56672650  1
  As  As179  1  0.36360650  0.50381350  0.56672650  1
  As  As180  1  0.12966400  0.77502100  0.67197500  1
  As  As181  1  0.63369200  0.86630800  0.50000000  1
  As  As182  1  0.63639350  0.99618650  0.68327350  1
  As  As183  1  0.86630800  0.86630800  0.75000000  1
  As  As184  1  0.86360650  0.99618650  0.56672650  1
  As  As185  1  0.50000000  0.50000000  0.75000000  1
  As  As186  1  0.00381350  0.13639350  0.93327350  1
  As  As187  1  0.77502100  0.12966400  0.82802500  1
  As  As188  1  0.50381350  0.13639350  0.81672650  1
  As  As189  1  0.49618650  0.63639350  0.93327350  1
  As  As190  1  0.87033600  0.27502100  0.07802500  1
  As  As191  1  0.37033600  0.27502100  0.67197500  1
  As  As192  1  0.36630800  0.63369200  0.75000000  1
  As  As193  1  0.00381350  0.36360650  0.81672650  1
  As  As194  1  0.77502100  0.62966400  0.42197500  1
  As  As195  1  0.00000000  0.50000000  0.50000000  1
  As  As196  1  0.36630800  0.86630800  0.00000000  1
  As  As197  1  0.13369200  0.63369200  0.50000000  1
  As  As198  1  0.72497900  0.62966400  0.82802500  1
  As  As199  1  0.50000000  0.50000000  0.25000000  1
  As  As200  1  0.63369200  0.63369200  0.25000000  1
  As  As201  1  0.87033600  0.72497900  0.57802500  1
  As  As202  1  0.62966400  0.72497900  0.67197500  1
  As  As203  1  0.63369200  0.36630800  0.75000000  1
  As  As204  1  0.72497900  0.12966400  0.42197500  1
  As  As205  1  0.13639350  0.50381350  0.68327350  1
  As  As206  1  0.00381350  0.86360650  0.43327350  1
  As  As207  1  0.86360650  0.49618650  0.68327350  1
