# generated using pymatgen
data_CaMn3O6
_symmetry_space_group_name_H-M   'P 1'
_cell_length_a   8.72004200
_cell_length_b   11.42269500
_cell_length_c   10.88487429
_cell_angle_alpha   90.00000000
_cell_angle_beta   122.63574509
_cell_angle_gamma   90.00000000
_symmetry_Int_Tables_number   1
_chemical_formula_structural   CaMn3O6
_chemical_formula_sum   'Ca8 Mn24 O48'
_cell_volume   913.02475138
_cell_formula_units_Z   8
loop_
 _symmetry_equiv_pos_site_id
 _symmetry_equiv_pos_as_xyz
  1  'x, y, z'
loop_
 _atom_site_type_symbol
 _atom_site_label
 _atom_site_symmetry_multiplicity
 _atom_site_fract_x
 _atom_site_fract_y
 _atom_site_fract_z
 _atom_site_occupancy
  Ca  Ca0  1  0.55413700  0.83348400  0.74870200  1
  Ca  Ca1  1  0.44586300  0.33348400  0.75129800  1
  Ca  Ca2  1  0.44586300  0.16651600  0.25129800  1
  Ca  Ca3  1  0.55413700  0.66651600  0.24870200  1
  Ca  Ca4  1  0.94210900  0.83439700  0.74273300  1
  Ca  Ca5  1  0.05789100  0.33439700  0.75726700  1
  Ca  Ca6  1  0.05789100  0.16560300  0.25726700  1
  Ca  Ca7  1  0.94210900  0.66560300  0.24273300  1
  Mn  Mn8  1  0.45598500  0.61821400  0.55614000  1
  Mn  Mn9  1  0.54401500  0.11821400  0.94386000  1
  Mn  Mn10  1  0.54401500  0.38178600  0.44386000  1
  Mn  Mn11  1  0.45598500  0.88178600  0.05614000  1
  Mn  Mn12  1  0.86981400  0.11801900  0.92750000  1
  Mn  Mn13  1  0.13018600  0.61801900  0.57250000  1
  Mn  Mn14  1  0.13018600  0.88198100  0.07250000  1
  Mn  Mn15  1  0.86981400  0.38198100  0.42750000  1
  Mn  Mn16  1  0.47057700  0.09502900  0.58160200  1
  Mn  Mn17  1  0.52942300  0.59502900  0.91839800  1
  Mn  Mn18  1  0.52942300  0.90497100  0.41839800  1
  Mn  Mn19  1  0.47057700  0.40497100  0.08160200  1
  Mn  Mn20  1  0.85980600  0.59694400  0.90932500  1
  Mn  Mn21  1  0.14019400  0.09694400  0.59067500  1
  Mn  Mn22  1  0.14019400  0.40305600  0.09067500  1
  Mn  Mn23  1  0.85980600  0.90305600  0.40932500  1
  Mn  Mn24  1  0.79559000  0.60410400  0.56892800  1
  Mn  Mn25  1  0.20441000  0.10410400  0.93107200  1
  Mn  Mn26  1  0.20441000  0.39589600  0.43107200  1
  Mn  Mn27  1  0.79559000  0.89589600  0.06892800  1
  Mn  Mn28  1  0.80593300  0.09614900  0.58300600  1
  Mn  Mn29  1  0.19406700  0.59614900  0.91699400  1
  Mn  Mn30  1  0.19406700  0.90385100  0.41699400  1
  Mn  Mn31  1  0.80593300  0.40385100  0.08300600  1
  O  O32  1  0.60523900  0.14911200  0.78989400  1
  O  O33  1  0.39476100  0.64911200  0.71010600  1
  O  O34  1  0.39476100  0.85088800  0.21010600  1
  O  O35  1  0.60523900  0.35088800  0.28989400  1
  O  O36  1  0.71095700  0.66500200  0.69314700  1
  O  O37  1  0.28904300  0.16500200  0.80685300  1
  O  O38  1  0.28904300  0.33499800  0.30685300  1
  O  O39  1  0.71095700  0.83499800  0.19314700  1
  O  O40  1  0.67060900  0.47814600  0.88743600  1
  O  O41  1  0.32939100  0.97814600  0.61256400  1
  O  O42  1  0.32939100  0.52185400  0.11256400  1
  O  O43  1  0.67060900  0.02185400  0.38743600  1
  O  O44  1  0.66240600  0.97661800  0.61786700  1
  O  O45  1  0.33759400  0.47661800  0.88213300  1
  O  O46  1  0.33759400  0.02338200  0.38213300  1
  O  O47  1  0.66240600  0.52338200  0.11786700  1
  O  O48  1  0.72807700  0.69875700  0.96761500  1
  O  O49  1  0.27192300  0.19875700  0.53238500  1
  O  O50  1  0.27192300  0.30124300  0.03238500  1
  O  O51  1  0.72807700  0.80124300  0.46761500  1
  O  O52  1  0.59715600  0.19566200  0.52265200  1
  O  O53  1  0.40284400  0.69566200  0.97734800  1
  O  O54  1  0.40284400  0.80433800  0.47734800  1
  O  O55  1  0.59715600  0.30433800  0.02265200  1
  O  O56  1  0.45945900  0.42181300  0.57135900  1
  O  O57  1  0.54054100  0.92181300  0.92864100  1
  O  O58  1  0.54054100  0.57818700  0.42864100  1
  O  O59  1  0.45945900  0.07818700  0.07135900  1
  O  O60  1  0.86851500  0.91106600  0.92388300  1
  O  O61  1  0.13148500  0.41106600  0.57611700  1
  O  O62  1  0.13148500  0.08893400  0.07611700  1
  O  O63  1  0.86851500  0.58893400  0.42388300  1
  O  O64  1  0.94754700  0.15061600  0.79168600  1
  O  O65  1  0.05245300  0.65061600  0.70831400  1
  O  O66  1  0.05245300  0.84938400  0.20831400  1
  O  O67  1  0.94754700  0.34938400  0.29168600  1
  O  O68  1  0.00258300  0.48848000  0.87349700  1
  O  O69  1  0.99741700  0.98848000  0.62650300  1
  O  O70  1  0.99741700  0.51152000  0.12650300  1
  O  O71  1  0.00258300  0.01152000  0.37349700  1
  O  O72  1  0.06458100  0.70377000  0.96085000  1
  O  O73  1  0.93541900  0.20377000  0.53915000  1
  O  O74  1  0.93541900  0.29623000  0.03915000  1
  O  O75  1  0.06458100  0.79623000  0.46085000  1
  O  O76  1  0.80262900  0.41668700  0.56678000  1
  O  O77  1  0.19737100  0.91668700  0.93322000  1
  O  O78  1  0.19737100  0.58331300  0.43322000  1
  O  O79  1  0.80262900  0.08331300  0.06678000  1
