# generated using pymatgen
data_Sr11InSb9
_symmetry_space_group_name_H-M   'P 1'
_cell_length_a   12.54396000
_cell_length_b   13.26077800
_cell_length_c   17.71340000
_cell_angle_alpha   90.00000000
_cell_angle_beta   90.00000000
_cell_angle_gamma   90.00000000
_symmetry_Int_Tables_number   1
_chemical_formula_structural   Sr11InSb9
_chemical_formula_sum   'Sr44 In4 Sb36'
_cell_volume   2946.49422954
_cell_formula_units_Z   4
loop_
 _symmetry_equiv_pos_site_id
 _symmetry_equiv_pos_as_xyz
  1  'x, y, z'
loop_
 _atom_site_type_symbol
 _atom_site_label
 _atom_site_symmetry_multiplicity
 _atom_site_fract_x
 _atom_site_fract_y
 _atom_site_fract_z
 _atom_site_occupancy
  Sr  Sr0  1  0.00000000  0.00000000  0.32141600  1
  Sr  Sr1  1  0.34053750  0.32649750  0.50007950  1
  Sr  Sr2  1  0.41034700  0.77320000  0.65831000  1
  Sr  Sr3  1  0.00000000  0.00000000  0.82141600  1
  Sr  Sr4  1  0.31413000  0.05845400  0.63057600  1
  Sr  Sr5  1  0.31643200  0.05393900  0.37166900  1
  Sr  Sr6  1  0.15946250  0.82649750  0.50007950  1
  Sr  Sr7  1  0.31643200  0.94606100  0.87166900  1
  Sr  Sr8  1  0.07321950  0.27797750  0.34249950  1
  Sr  Sr9  1  0.58965300  0.22680000  0.65831000  1
  Sr  Sr10  1  0.42678050  0.77797750  0.34249950  1
  Sr  Sr11  1  0.68587000  0.05845400  0.13057600  1
  Sr  Sr12  1  0.68356800  0.05393900  0.87166900  1
  Sr  Sr13  1  0.91034700  0.72680000  0.65831000  1
  Sr  Sr14  1  0.92678050  0.72202250  0.34249950  1
  Sr  Sr15  1  0.57321950  0.22202250  0.34249950  1
  Sr  Sr16  1  0.08965300  0.27320000  0.65831000  1
  Sr  Sr17  1  0.84053750  0.17350250  0.50007950  1
  Sr  Sr18  1  0.68587000  0.94154600  0.63057600  1
  Sr  Sr19  1  0.65946250  0.67350250  0.50007950  1
  Sr  Sr20  1  0.31413000  0.94154600  0.13057600  1
  Sr  Sr21  1  0.68356800  0.94606100  0.37166900  1
  Sr  Sr22  1  0.50000000  0.50000000  0.82141600  1
  Sr  Sr23  1  0.84053750  0.82649750  0.00007950  1
  Sr  Sr24  1  0.91034700  0.27320000  0.15831000  1
  Sr  Sr25  1  0.50000000  0.50000000  0.32141600  1
  Sr  Sr26  1  0.81413000  0.55845400  0.13057600  1
  Sr  Sr27  1  0.81643200  0.55393900  0.87166900  1
  Sr  Sr28  1  0.65946250  0.32649750  0.00007950  1
  Sr  Sr29  1  0.81643200  0.44606100  0.37166900  1
  Sr  Sr30  1  0.57321950  0.77797750  0.84249950  1
  Sr  Sr31  1  0.08965300  0.72680000  0.15831000  1
  Sr  Sr32  1  0.92678050  0.27797750  0.84249950  1
  Sr  Sr33  1  0.18587000  0.55845400  0.63057600  1
  Sr  Sr34  1  0.18356800  0.55393900  0.37166900  1
  Sr  Sr35  1  0.41034700  0.22680000  0.15831000  1
  Sr  Sr36  1  0.42678050  0.22202250  0.84249950  1
  Sr  Sr37  1  0.07321950  0.72202250  0.84249950  1
  Sr  Sr38  1  0.58965300  0.77320000  0.15831000  1
  Sr  Sr39  1  0.34053750  0.67350250  0.00007950  1
  Sr  Sr40  1  0.18587000  0.44154600  0.13057600  1
  Sr  Sr41  1  0.15946250  0.17350250  0.00007950  1
  Sr  Sr42  1  0.81413000  0.44154600  0.63057600  1
  Sr  Sr43  1  0.18356800  0.44606100  0.87166900  1
  In  In44  1  0.00000000  0.00000000  0.60734400  1
  In  In45  1  0.00000000  0.00000000  0.10734400  1
  In  In46  1  0.50000000  0.50000000  0.10734400  1
  In  In47  1  0.50000000  0.50000000  0.60734400  1
  Sb  Sb48  1  0.82304150  0.82190950  0.81722450  1
  Sb  Sb49  1  0.46625300  0.89544200  0.50312700  1
  Sb  Sb50  1  0.17695850  0.17809050  0.81722450  1
  Sb  Sb51  1  0.12900250  0.11693250  0.49684850  1
  Sb  Sb52  1  0.85276750  0.86077350  0.18945950  1
  Sb  Sb53  1  0.50000000  0.00000000  0.24899300  1
  Sb  Sb54  1  0.14723250  0.86077350  0.68945950  1
  Sb  Sb55  1  0.50000000  0.00000000  0.74899300  1
  Sb  Sb56  1  0.62900250  0.38306750  0.49684850  1
  Sb  Sb57  1  0.82304150  0.17809050  0.31722450  1
  Sb  Sb58  1  0.17695850  0.82190950  0.31722450  1
  Sb  Sb59  1  0.87099750  0.88306750  0.49684850  1
  Sb  Sb60  1  0.14723250  0.13922650  0.18945950  1
  Sb  Sb61  1  0.03374700  0.39544200  0.50312700  1
  Sb  Sb62  1  0.96625300  0.60455800  0.50312700  1
  Sb  Sb63  1  0.85276750  0.13922650  0.68945950  1
  Sb  Sb64  1  0.53374700  0.10455800  0.50312700  1
  Sb  Sb65  1  0.37099750  0.61693250  0.49684850  1
  Sb  Sb66  1  0.32304150  0.32190950  0.31722450  1
  Sb  Sb67  1  0.96625300  0.39544200  0.00312700  1
  Sb  Sb68  1  0.67695850  0.67809050  0.31722450  1
  Sb  Sb69  1  0.62900250  0.61693250  0.99684850  1
  Sb  Sb70  1  0.35276750  0.36077350  0.68945950  1
  Sb  Sb71  1  0.00000000  0.50000000  0.74899300  1
  Sb  Sb72  1  0.64723250  0.36077350  0.18945950  1
  Sb  Sb73  1  0.00000000  0.50000000  0.24899300  1
  Sb  Sb74  1  0.12900250  0.88306750  0.99684850  1
  Sb  Sb75  1  0.32304150  0.67809050  0.81722450  1
  Sb  Sb76  1  0.67695850  0.32190950  0.81722450  1
  Sb  Sb77  1  0.37099750  0.38306750  0.99684850  1
  Sb  Sb78  1  0.64723250  0.63922650  0.68945950  1
  Sb  Sb79  1  0.53374700  0.89544200  0.00312700  1
  Sb  Sb80  1  0.46625300  0.10455800  0.00312700  1
  Sb  Sb81  1  0.35276750  0.63922650  0.18945950  1
  Sb  Sb82  1  0.03374700  0.60455800  0.00312700  1
  Sb  Sb83  1  0.87099750  0.11693250  0.99684850  1
