# generated using pymatgen
data_Ga(MoSe2)4
_symmetry_space_group_name_H-M   'P 1'
_cell_length_a   7.32921192
_cell_length_b   7.32921192
_cell_length_c   17.62297238
_cell_angle_alpha   90.00000000
_cell_angle_beta   90.00000000
_cell_angle_gamma   120.00000000
_symmetry_Int_Tables_number   1
_chemical_formula_structural   Ga(MoSe2)4
_chemical_formula_sum   'Ga3 Mo12 Se24'
_cell_volume   819.83102667
_cell_formula_units_Z   3
loop_
 _symmetry_equiv_pos_site_id
 _symmetry_equiv_pos_as_xyz
  1  'x, y, z'
loop_
 _atom_site_type_symbol
 _atom_site_label
 _atom_site_symmetry_multiplicity
 _atom_site_fract_x
 _atom_site_fract_y
 _atom_site_fract_z
 _atom_site_occupancy
  Ga  Ga0  1  0.33333333  0.66666667  0.66617767  1
  Ga  Ga1  1  0.00000000  0.00000000  0.99951100  1
  Ga  Ga2  1  0.66666667  0.33333333  0.33284433  1
  Mo  Mo3  1  0.06323067  0.53161533  0.13236033  1
  Mo  Mo4  1  0.46838467  0.93676933  0.13236033  1
  Mo  Mo5  1  0.33333333  0.66666667  0.26092067  1
  Mo  Mo6  1  0.46838467  0.53161533  0.13236033  1
  Mo  Mo7  1  0.72989733  0.86494867  0.46569367  1
  Mo  Mo8  1  0.13505133  0.27010267  0.46569367  1
  Mo  Mo9  1  0.00000000  0.00000000  0.59425400  1
  Mo  Mo10  1  0.13505133  0.86494867  0.46569367  1
  Mo  Mo11  1  0.39656400  0.19828200  0.79902700  1
  Mo  Mo12  1  0.80171800  0.60343600  0.79902700  1
  Mo  Mo13  1  0.66666667  0.33333333  0.92758733  1
  Mo  Mo14  1  0.80171800  0.19828200  0.79902700  1
  Se  Se15  1  0.48324433  0.51675567  0.37643167  1
  Se  Se16  1  0.15096600  0.30193200  0.20878700  1
  Se  Se17  1  0.48324433  0.96648867  0.37643167  1
  Se  Se18  1  0.03351133  0.51675567  0.37643167  1
  Se  Se19  1  0.33333333  0.66666667  0.03108067  1
  Se  Se20  1  0.33333333  0.66666667  0.52715067  1
  Se  Se21  1  0.69806800  0.84903400  0.20878700  1
  Se  Se22  1  0.15096600  0.84903400  0.20878700  1
  Se  Se23  1  0.14991100  0.85008900  0.70976500  1
  Se  Se24  1  0.81763267  0.63526533  0.54212033  1
  Se  Se25  1  0.14991100  0.29982200  0.70976500  1
  Se  Se26  1  0.70017800  0.85008900  0.70976500  1
  Se  Se27  1  0.00000000  0.00000000  0.36441400  1
  Se  Se28  1  0.00000000  0.00000000  0.86048400  1
  Se  Se29  1  0.36473467  0.18236733  0.54212033  1
  Se  Se30  1  0.81763267  0.18236733  0.54212033  1
  Se  Se31  1  0.81657767  0.18342233  0.04309833  1
  Se  Se32  1  0.48429933  0.96859867  0.87545367  1
  Se  Se33  1  0.81657767  0.63315533  0.04309833  1
  Se  Se34  1  0.36684467  0.18342233  0.04309833  1
  Se  Se35  1  0.66666667  0.33333333  0.69774733  1
  Se  Se36  1  0.66666667  0.33333333  0.19381733  1
  Se  Se37  1  0.03140133  0.51570067  0.87545367  1
  Se  Se38  1  0.48429933  0.51570067  0.87545367  1
