# generated using pymatgen
data_KTh2(PO4)3
_symmetry_space_group_name_H-M   'P 1'
_cell_length_a   17.82849200
_cell_length_b   6.90939200
_cell_length_c   8.23383192
_cell_angle_alpha   90.00000000
_cell_angle_beta   102.01197379
_cell_angle_gamma   90.00000000
_symmetry_Int_Tables_number   1
_chemical_formula_structural   KTh2(PO4)3
_chemical_formula_sum   'K4 Th8 P12 O48'
_cell_volume   992.06820940
_cell_formula_units_Z   4
loop_
 _symmetry_equiv_pos_site_id
 _symmetry_equiv_pos_as_xyz
  1  'x, y, z'
loop_
 _atom_site_type_symbol
 _atom_site_label
 _atom_site_symmetry_multiplicity
 _atom_site_fract_x
 _atom_site_fract_y
 _atom_site_fract_z
 _atom_site_occupancy
  K  K0  1  0.00000000  0.40241400  0.25000000  1
  K  K1  1  0.00000000  0.59758600  0.75000000  1
  K  K2  1  0.50000000  0.90241400  0.25000000  1
  K  K3  1  0.50000000  0.09758600  0.75000000  1
  Th  Th4  1  0.65384750  0.59449150  0.03457600  1
  Th  Th5  1  0.84615250  0.09449150  0.46542400  1
  Th  Th6  1  0.84615250  0.90550850  0.96542400  1
  Th  Th7  1  0.65384750  0.40550850  0.53457600  1
  Th  Th8  1  0.15384750  0.09449150  0.03457600  1
  Th  Th9  1  0.34615250  0.59449150  0.46542400  1
  Th  Th10  1  0.34615250  0.40550850  0.96542400  1
  Th  Th11  1  0.15384750  0.90550850  0.53457600  1
  P  P12  1  0.80935000  0.59044500  0.31494600  1
  P  P13  1  0.69065000  0.09044500  0.18505400  1
  P  P14  1  0.69065000  0.90955500  0.68505400  1
  P  P15  1  0.80935000  0.40955500  0.81494600  1
  P  P16  1  0.00000000  0.90253100  0.25000000  1
  P  P17  1  0.00000000  0.09746900  0.75000000  1
  P  P18  1  0.30935000  0.09044500  0.31494600  1
  P  P19  1  0.19065000  0.59044500  0.18505400  1
  P  P20  1  0.19065000  0.40955500  0.68505400  1
  P  P21  1  0.30935000  0.90955500  0.81494600  1
  P  P22  1  0.50000000  0.40253100  0.25000000  1
  P  P23  1  0.50000000  0.59746900  0.75000000  1
  O  O24  1  0.57164450  0.53205650  0.24577100  1
  O  O25  1  0.92835550  0.03205650  0.25422900  1
  O  O26  1  0.92835550  0.96794350  0.75422900  1
  O  O27  1  0.57164450  0.46794350  0.74577100  1
  O  O28  1  0.97384950  0.78019350  0.09100100  1
  O  O29  1  0.52615050  0.28019350  0.40899900  1
  O  O30  1  0.52615050  0.71980650  0.90899900  1
  O  O31  1  0.97384950  0.21980650  0.59100100  1
  O  O32  1  0.72454550  0.55030850  0.32986500  1
  O  O33  1  0.77545450  0.05030850  0.17013500  1
  O  O34  1  0.77545450  0.94969150  0.67013500  1
  O  O35  1  0.72454550  0.44969150  0.82986500  1
  O  O36  1  0.85807800  0.40572000  0.34472700  1
  O  O37  1  0.64192200  0.90572000  0.15527300  1
  O  O38  1  0.64192200  0.09428000  0.65527300  1
  O  O39  1  0.85807800  0.59428000  0.84472700  1
  O  O40  1  0.79652350  0.65149050  0.12690900  1
  O  O41  1  0.70347650  0.15149050  0.37309100  1
  O  O42  1  0.70347650  0.84850950  0.87309100  1
  O  O43  1  0.79652350  0.34850950  0.62690900  1
  O  O44  1  0.84589000  0.75749300  0.42626600  1
  O  O45  1  0.65411000  0.25749300  0.07373400  1
  O  O46  1  0.65411000  0.74250700  0.57373400  1
  O  O47  1  0.84589000  0.24250700  0.92626600  1
  O  O48  1  0.07164450  0.03205650  0.24577100  1
  O  O49  1  0.42835550  0.53205650  0.25422900  1
  O  O50  1  0.42835550  0.46794350  0.75422900  1
  O  O51  1  0.07164450  0.96794350  0.74577100  1
  O  O52  1  0.47384950  0.28019350  0.09100100  1
  O  O53  1  0.02615050  0.78019350  0.40899900  1
  O  O54  1  0.02615050  0.21980650  0.90899900  1
  O  O55  1  0.47384950  0.71980650  0.59100100  1
  O  O56  1  0.22454550  0.05030850  0.32986500  1
  O  O57  1  0.27545450  0.55030850  0.17013500  1
  O  O58  1  0.27545450  0.44969150  0.67013500  1
  O  O59  1  0.22454550  0.94969150  0.82986500  1
  O  O60  1  0.35807800  0.90572000  0.34472700  1
  O  O61  1  0.14192200  0.40572000  0.15527300  1
  O  O62  1  0.14192200  0.59428000  0.65527300  1
  O  O63  1  0.35807800  0.09428000  0.84472700  1
  O  O64  1  0.29652350  0.15149050  0.12690900  1
  O  O65  1  0.20347650  0.65149050  0.37309100  1
  O  O66  1  0.20347650  0.34850950  0.87309100  1
  O  O67  1  0.29652350  0.84850950  0.62690900  1
  O  O68  1  0.34589000  0.25749300  0.42626600  1
  O  O69  1  0.15411000  0.75749300  0.07373400  1
  O  O70  1  0.15411000  0.24250700  0.57373400  1
  O  O71  1  0.34589000  0.74250700  0.92626600  1
