# generated using pymatgen
data_Th2P2O9
_symmetry_space_group_name_H-M   'P 1'
_cell_length_a   7.26643000
_cell_length_b   9.28516400
_cell_length_c   12.99896300
_cell_angle_alpha   90.00000000
_cell_angle_beta   90.00000000
_cell_angle_gamma   90.00000000
_symmetry_Int_Tables_number   1
_chemical_formula_structural   Th2P2O9
_chemical_formula_sum   'Th8 P8 O36'
_cell_volume   877.03995879
_cell_formula_units_Z   4
loop_
 _symmetry_equiv_pos_site_id
 _symmetry_equiv_pos_as_xyz
  1  'x, y, z'
loop_
 _atom_site_type_symbol
 _atom_site_label
 _atom_site_symmetry_multiplicity
 _atom_site_fract_x
 _atom_site_fract_y
 _atom_site_fract_z
 _atom_site_occupancy
  Th  Th0  1  0.50000000  0.20721000  0.57292300  1
  Th  Th1  1  0.50000000  0.79279000  0.42707700  1
  Th  Th2  1  0.50000000  0.29279000  0.07292300  1
  Th  Th3  1  0.50000000  0.70721000  0.92707700  1
  Th  Th4  1  0.00000000  0.70721000  0.57292300  1
  Th  Th5  1  0.00000000  0.29279000  0.42707700  1
  Th  Th6  1  0.00000000  0.79279000  0.07292300  1
  Th  Th7  1  0.00000000  0.20721000  0.92707700  1
  P  P8  1  0.50000000  0.11115200  0.85960700  1
  P  P9  1  0.50000000  0.38884800  0.35960700  1
  P  P10  1  0.50000000  0.88884800  0.14039300  1
  P  P11  1  0.50000000  0.61115200  0.64039300  1
  P  P12  1  0.00000000  0.61115200  0.85960700  1
  P  P13  1  0.00000000  0.88884800  0.35960700  1
  P  P14  1  0.00000000  0.38884800  0.14039300  1
  P  P15  1  0.00000000  0.11115200  0.64039300  1
  O  O16  1  0.50000000  0.44789000  0.62303000  1
  O  O17  1  0.66727800  0.68378100  0.58399500  1
  O  O18  1  0.50000000  0.35363900  0.24457100  1
  O  O19  1  0.66727800  0.18378100  0.91600500  1
  O  O20  1  0.33272200  0.68378100  0.58399500  1
  O  O21  1  0.50000000  0.05211000  0.12303000  1
  O  O22  1  0.66727800  0.81621900  0.08399500  1
  O  O23  1  0.50000000  0.85363900  0.25542900  1
  O  O24  1  0.50000000  0.55211000  0.37697000  1
  O  O25  1  0.66727800  0.31621900  0.41600500  1
  O  O26  1  0.50000000  0.14636100  0.74457100  1
  O  O27  1  0.33272200  0.81621900  0.08399500  1
  O  O28  1  0.50000000  0.94789000  0.87697000  1
  O  O29  1  0.50000000  0.00000000  0.50000000  1
  O  O30  1  0.50000000  0.64636100  0.75542900  1
  O  O31  1  0.33272200  0.18378100  0.91600500  1
  O  O32  1  0.33272200  0.31621900  0.41600500  1
  O  O33  1  0.00000000  0.00000000  0.00000000  1
  O  O34  1  0.00000000  0.94789000  0.62303000  1
  O  O35  1  0.16727800  0.18378100  0.58399500  1
  O  O36  1  0.00000000  0.85363900  0.24457100  1
  O  O37  1  0.16727800  0.68378100  0.91600500  1
  O  O38  1  0.83272200  0.18378100  0.58399500  1
  O  O39  1  0.00000000  0.55211000  0.12303000  1
  O  O40  1  0.16727800  0.31621900  0.08399500  1
  O  O41  1  0.00000000  0.35363900  0.25542900  1
  O  O42  1  0.00000000  0.05211000  0.37697000  1
  O  O43  1  0.16727800  0.81621900  0.41600500  1
  O  O44  1  0.00000000  0.64636100  0.74457100  1
  O  O45  1  0.83272200  0.31621900  0.08399500  1
  O  O46  1  0.00000000  0.44789000  0.87697000  1
  O  O47  1  0.00000000  0.50000000  0.50000000  1
  O  O48  1  0.00000000  0.14636100  0.75542900  1
  O  O49  1  0.83272200  0.68378100  0.91600500  1
  O  O50  1  0.83272200  0.81621900  0.41600500  1
  O  O51  1  0.50000000  0.50000000  0.00000000  1
