# generated using pymatgen
data_K2Ba(NO2)4
_symmetry_space_group_name_H-M   'P 1'
_cell_length_a   13.37333600
_cell_length_b   12.50303800
_cell_length_c   13.42388961
_cell_angle_alpha   90.00000000
_cell_angle_beta   119.85280734
_cell_angle_gamma   90.00000000
_symmetry_Int_Tables_number   1
_chemical_formula_structural   K2Ba(NO2)4
_chemical_formula_sum   'K16 Ba8 N32 O64'
_cell_volume   1946.73372429
_cell_formula_units_Z   8
loop_
 _symmetry_equiv_pos_site_id
 _symmetry_equiv_pos_as_xyz
  1  'x, y, z'
loop_
 _atom_site_type_symbol
 _atom_site_label
 _atom_site_symmetry_multiplicity
 _atom_site_fract_x
 _atom_site_fract_y
 _atom_site_fract_z
 _atom_site_occupancy
  K  K0  1  0.82601700  0.75113800  0.16487600  1
  K  K1  1  0.17398300  0.75113800  0.83512400  1
  K  K2  1  0.66113000  0.25023500  0.33512400  1
  K  K3  1  0.67398300  0.74886200  0.83512400  1
  K  K4  1  0.83887000  0.75023500  0.66487600  1
  K  K5  1  0.66113000  0.74976500  0.33512400  1
  K  K6  1  0.83887000  0.24976500  0.66487600  1
  K  K7  1  0.32601700  0.74886200  0.16487600  1
  K  K8  1  0.32601700  0.25113800  0.16487600  1
  K  K9  1  0.67398300  0.25113800  0.83512400  1
  K  K10  1  0.16113000  0.75023500  0.33512400  1
  K  K11  1  0.17398300  0.24886200  0.83512400  1
  K  K12  1  0.33887000  0.25023500  0.66487600  1
  K  K13  1  0.16113000  0.24976500  0.33512400  1
  K  K14  1  0.33887000  0.74976500  0.66487600  1
  K  K15  1  0.82601700  0.24886200  0.16487600  1
  Ba  Ba16  1  0.00000000  0.50000000  0.00000000  1
  Ba  Ba17  1  0.50000000  0.00000000  0.50000000  1
  Ba  Ba18  1  0.00000000  0.00000000  0.00000000  1
  Ba  Ba19  1  0.00000000  0.00000000  0.50000000  1
  Ba  Ba20  1  0.50000000  0.00000000  0.00000000  1
  Ba  Ba21  1  0.00000000  0.50000000  0.50000000  1
  Ba  Ba22  1  0.50000000  0.50000000  0.00000000  1
  Ba  Ba23  1  0.50000000  0.50000000  0.50000000  1
  N  N24  1  0.00000000  0.73106100  0.50000000  1
  N  N25  1  0.00861500  0.50000000  0.76630900  1
  N  N26  1  0.00000000  0.73121600  0.00000000  1
  N  N27  1  0.23454400  0.00000000  0.00394500  1
  N  N28  1  0.75618900  0.00000000  0.26735100  1
  N  N29  1  0.73044200  0.50000000  0.49644500  1
  N  N30  1  0.50000000  0.76893900  0.50000000  1
  N  N31  1  0.26545600  0.50000000  0.99605500  1
  N  N32  1  0.75820000  0.50000000  0.26521000  1
  N  N33  1  0.50960100  0.50000000  0.76621700  1
  N  N34  1  0.74180000  0.00000000  0.73479000  1
  N  N35  1  0.76955800  0.00000000  0.50355500  1
  N  N36  1  0.49138500  0.00000000  0.23369100  1
  N  N37  1  0.00000000  0.26878400  0.00000000  1
  N  N38  1  0.99039900  0.00000000  0.23378300  1
  N  N39  1  0.74381100  0.50000000  0.73264900  1
  N  N40  1  0.50000000  0.23106100  0.50000000  1
  N  N41  1  0.50861500  0.00000000  0.76630900  1
  N  N42  1  0.50000000  0.23121600  0.00000000  1
  N  N43  1  0.73454400  0.50000000  0.00394500  1
  N  N44  1  0.25618900  0.50000000  0.26735100  1
  N  N45  1  0.23044200  0.00000000  0.49644500  1
  N  N46  1  0.00000000  0.26893900  0.50000000  1
  N  N47  1  0.76545600  0.00000000  0.99605500  1
  N  N48  1  0.25820000  0.00000000  0.26521000  1
  N  N49  1  0.00960100  0.00000000  0.76621700  1
  N  N50  1  0.24180000  0.50000000  0.73479000  1
  N  N51  1  0.26955800  0.50000000  0.50355500  1
  N  N52  1  0.99138500  0.50000000  0.23369100  1
  N  N53  1  0.50000000  0.76878400  0.00000000  1
  N  N54  1  0.49039900  0.50000000  0.23378300  1
  N  N55  1  0.24381100  0.00000000  0.73264900  1
  O  O56  1  0.99186500  0.91426500  0.28572400  1
  O  O57  1  0.49186500  0.58573500  0.28572400  1
  O  O58  1  0.50813500  0.58573500  0.71427600  1
  O  O59  1  0.90765100  0.78518000  0.44569700  1
  O  O60  1  0.71869400  0.91423700  0.50422800  1
  O  O61  1  0.28607750  0.08566450  0.00456300  1
  O  O62  1  0.59234900  0.71482000  0.55430300  1
  O  O63  1  0.78130600  0.41423700  0.49577200  1
  O  O64  1  0.70700100  0.58577100  0.21394300  1
  O  O65  1  0.28607750  0.91433550  0.00456300  1
  O  O66  1  0.09234900  0.78518000  0.55430300  1
  O  O67  1  0.79299900  0.91422900  0.78605700  1
  O  O68  1  0.21392250  0.41433550  0.99543700  1
  O  O69  1  0.70447750  0.08575150  0.21673000  1
  O  O70  1  0.21392250  0.58566450  0.99543700  1
  O  O71  1  0.70447750  0.91424850  0.21673000  1
  O  O72  1  0.40765100  0.71482000  0.44569700  1
  O  O73  1  0.03807250  0.21470750  0.94569800  1
  O  O74  1  0.78130600  0.58576300  0.49577200  1
  O  O75  1  0.48893650  0.91420250  0.28363800  1
  O  O76  1  0.03807250  0.78529250  0.94569800  1
  O  O77  1  0.00813500  0.91426500  0.71427600  1
  O  O78  1  0.71869400  0.08576300  0.50422800  1
  O  O79  1  0.01106350  0.58579750  0.71636200  1
  O  O80  1  0.48893650  0.08579750  0.28363800  1
  O  O81  1  0.01106350  0.41420250  0.71636200  1
  O  O82  1  0.46192750  0.71470750  0.05430200  1
  O  O83  1  0.46192750  0.28529250  0.05430200  1
  O  O84  1  0.20700100  0.91422900  0.21394300  1
  O  O85  1  0.79552250  0.58575150  0.78327000  1
  O  O86  1  0.29299900  0.58577100  0.78605700  1
  O  O87  1  0.79552250  0.41424850  0.78327000  1
  O  O88  1  0.49186500  0.41426500  0.28572400  1
  O  O89  1  0.99186500  0.08573500  0.28572400  1
  O  O90  1  0.00813500  0.08573500  0.71427600  1
  O  O91  1  0.40765100  0.28518000  0.44569700  1
  O  O92  1  0.21869400  0.41423700  0.50422800  1
  O  O93  1  0.78607750  0.58566450  0.00456300  1
  O  O94  1  0.09234900  0.21482000  0.55430300  1
  O  O95  1  0.28130600  0.91423700  0.49577200  1
  O  O96  1  0.20700100  0.08577100  0.21394300  1
  O  O97  1  0.78607750  0.41433550  0.00456300  1
  O  O98  1  0.59234900  0.28518000  0.55430300  1
  O  O99  1  0.29299900  0.41422900  0.78605700  1
  O  O100  1  0.71392250  0.91433550  0.99543700  1
  O  O101  1  0.20447750  0.58575150  0.21673000  1
  O  O102  1  0.71392250  0.08566450  0.99543700  1
  O  O103  1  0.20447750  0.41424850  0.21673000  1
  O  O104  1  0.90765100  0.21482000  0.44569700  1
  O  O105  1  0.53807250  0.71470750  0.94569800  1
  O  O106  1  0.28130600  0.08576300  0.49577200  1
  O  O107  1  0.98893650  0.41420250  0.28363800  1
  O  O108  1  0.53807250  0.28529250  0.94569800  1
  O  O109  1  0.50813500  0.41426500  0.71427600  1
  O  O110  1  0.21869400  0.58576300  0.50422800  1
  O  O111  1  0.51106350  0.08579750  0.71636200  1
  O  O112  1  0.98893650  0.58579750  0.28363800  1
  O  O113  1  0.51106350  0.91420250  0.71636200  1
  O  O114  1  0.96192750  0.21470750  0.05430200  1
  O  O115  1  0.96192750  0.78529250  0.05430200  1
  O  O116  1  0.70700100  0.41422900  0.21394300  1
  O  O117  1  0.29552250  0.08575150  0.78327000  1
  O  O118  1  0.79299900  0.08577100  0.78605700  1
  O  O119  1  0.29552250  0.91424850  0.78327000  1
