# generated using pymatgen
data_NaB(CO2)4
_symmetry_space_group_name_H-M   'P 1'
_cell_length_a   8.36736200
_cell_length_b   10.44361600
_cell_length_c   8.03952800
_cell_angle_alpha   90.00000000
_cell_angle_beta   90.00000000
_cell_angle_gamma   90.00000000
_symmetry_Int_Tables_number   1
_chemical_formula_structural   NaB(CO2)4
_chemical_formula_sum   'Na4 B4 C16 O32'
_cell_volume   702.53829995
_cell_formula_units_Z   4
loop_
 _symmetry_equiv_pos_site_id
 _symmetry_equiv_pos_as_xyz
  1  'x, y, z'
loop_
 _atom_site_type_symbol
 _atom_site_label
 _atom_site_symmetry_multiplicity
 _atom_site_fract_x
 _atom_site_fract_y
 _atom_site_fract_z
 _atom_site_occupancy
  Na  Na0  1  0.50000000  0.42885000  0.75000000  1
  Na  Na1  1  0.50000000  0.57115000  0.25000000  1
  Na  Na2  1  0.00000000  0.92885000  0.75000000  1
  Na  Na3  1  0.00000000  0.07115000  0.25000000  1
  B  B4  1  0.50000000  0.06972000  0.25000000  1
  B  B5  1  0.50000000  0.93028000  0.75000000  1
  B  B6  1  0.00000000  0.56972000  0.25000000  1
  B  B7  1  0.00000000  0.43028000  0.75000000  1
  C  C8  1  0.50000000  0.27669500  0.34551300  1
  C  C9  1  0.50000000  0.27669500  0.15448700  1
  C  C10  1  0.50000000  0.72330500  0.65448700  1
  C  C11  1  0.40811950  0.86247650  0.25000000  1
  C  C12  1  0.50000000  0.72330500  0.84551300  1
  C  C13  1  0.59188050  0.86247650  0.25000000  1
  C  C14  1  0.59188050  0.13752350  0.75000000  1
  C  C15  1  0.40811950  0.13752350  0.75000000  1
  C  C16  1  0.00000000  0.77669500  0.34551300  1
  C  C17  1  0.00000000  0.77669500  0.15448700  1
  C  C18  1  0.00000000  0.22330500  0.65448700  1
  C  C19  1  0.90811950  0.36247650  0.25000000  1
  C  C20  1  0.00000000  0.22330500  0.84551300  1
  C  C21  1  0.09188050  0.36247650  0.25000000  1
  C  C22  1  0.09188050  0.63752350  0.75000000  1
  C  C23  1  0.90811950  0.63752350  0.75000000  1
  O  O24  1  0.50000000  0.37228200  0.06704300  1
  O  O25  1  0.35815250  0.01663750  0.75000000  1
  O  O26  1  0.50000000  0.84440400  0.89691700  1
  O  O27  1  0.50000000  0.37228200  0.43295700  1
  O  O28  1  0.50000000  0.62771800  0.56704300  1
  O  O29  1  0.64184750  0.98336250  0.25000000  1
  O  O30  1  0.50000000  0.15559600  0.10308300  1
  O  O31  1  0.67480150  0.76641650  0.25000000  1
  O  O32  1  0.50000000  0.62771800  0.93295700  1
  O  O33  1  0.32519850  0.23358350  0.75000000  1
  O  O34  1  0.35815250  0.98336250  0.25000000  1
  O  O35  1  0.50000000  0.84440400  0.60308300  1
  O  O36  1  0.32519850  0.76641650  0.25000000  1
  O  O37  1  0.64184750  0.01663750  0.75000000  1
  O  O38  1  0.67480150  0.23358350  0.75000000  1
  O  O39  1  0.50000000  0.15559600  0.39691700  1
  O  O40  1  0.00000000  0.87228200  0.06704300  1
  O  O41  1  0.85815250  0.51663750  0.75000000  1
  O  O42  1  0.00000000  0.34440400  0.89691700  1
  O  O43  1  0.00000000  0.87228200  0.43295700  1
  O  O44  1  0.00000000  0.12771800  0.56704300  1
  O  O45  1  0.14184750  0.48336250  0.25000000  1
  O  O46  1  0.00000000  0.65559600  0.10308300  1
  O  O47  1  0.17480150  0.26641650  0.25000000  1
  O  O48  1  0.00000000  0.12771800  0.93295700  1
  O  O49  1  0.82519850  0.73358350  0.75000000  1
  O  O50  1  0.85815250  0.48336250  0.25000000  1
  O  O51  1  0.00000000  0.34440400  0.60308300  1
  O  O52  1  0.82519850  0.26641650  0.25000000  1
  O  O53  1  0.14184750  0.51663750  0.75000000  1
  O  O54  1  0.17480150  0.73358350  0.75000000  1
  O  O55  1  0.00000000  0.65559600  0.39691700  1
