# generated using pymatgen
data_Nd3Si2S8I
_symmetry_space_group_name_H-M   'P 1'
_cell_length_a   16.02542000
_cell_length_b   7.86917400
_cell_length_c   10.88263261
_cell_angle_alpha   90.00000000
_cell_angle_beta   98.15306405
_cell_angle_gamma   90.00000000
_symmetry_Int_Tables_number   1
_chemical_formula_structural   Nd3Si2S8I
_chemical_formula_sum   'Nd12 Si8 S32 I4'
_cell_volume   1358.50323009
_cell_formula_units_Z   4
loop_
 _symmetry_equiv_pos_site_id
 _symmetry_equiv_pos_as_xyz
  1  'x, y, z'
loop_
 _atom_site_type_symbol
 _atom_site_label
 _atom_site_symmetry_multiplicity
 _atom_site_fract_x
 _atom_site_fract_y
 _atom_site_fract_z
 _atom_site_occupancy
  Nd  Nd0  1  0.00000000  0.59954800  0.25000000  1
  Nd  Nd1  1  0.80062700  0.12326300  0.31855300  1
  Nd  Nd2  1  0.80062700  0.87673700  0.81855300  1
  Nd  Nd3  1  0.69937300  0.62326300  0.18144700  1
  Nd  Nd4  1  0.69937300  0.37673700  0.68144700  1
  Nd  Nd5  1  0.00000000  0.40045200  0.75000000  1
  Nd  Nd6  1  0.50000000  0.09954800  0.25000000  1
  Nd  Nd7  1  0.30062700  0.62326300  0.31855300  1
  Nd  Nd8  1  0.30062700  0.37673700  0.81855300  1
  Nd  Nd9  1  0.19937300  0.12326300  0.18144700  1
  Nd  Nd10  1  0.19937300  0.87673700  0.68144700  1
  Nd  Nd11  1  0.50000000  0.90045200  0.75000000  1
  Si  Si12  1  0.65955000  0.96287200  0.52890900  1
  Si  Si13  1  0.84045000  0.46287200  0.97109100  1
  Si  Si14  1  0.65955000  0.03712800  0.02890900  1
  Si  Si15  1  0.84045000  0.53712800  0.47109100  1
  Si  Si16  1  0.15955000  0.46287200  0.52890900  1
  Si  Si17  1  0.34045000  0.96287200  0.97109100  1
  Si  Si18  1  0.15955000  0.53712800  0.02890900  1
  Si  Si19  1  0.34045000  0.03712800  0.47109100  1
  S  S20  1  0.64926100  0.09867000  0.83717300  1
  S  S21  1  0.78172500  0.06905100  0.58598500  1
  S  S22  1  0.64926100  0.90133000  0.33717300  1
  S  S23  1  0.64477300  0.75432300  0.64748500  1
  S  S24  1  0.85073900  0.59867000  0.66282700  1
  S  S25  1  0.56831150  0.15496950  0.54191800  1
  S  S26  1  0.85522700  0.74567700  0.35251500  1
  S  S27  1  0.78172500  0.93094900  0.08598500  1
  S  S28  1  0.85073900  0.40133000  0.16282700  1
  S  S29  1  0.71827500  0.56905100  0.91401500  1
  S  S30  1  0.93168850  0.34503050  0.45808200  1
  S  S31  1  0.56831150  0.84503050  0.04191800  1
  S  S32  1  0.85522700  0.25432300  0.85251500  1
  S  S33  1  0.64477300  0.24567700  0.14748500  1
  S  S34  1  0.71827500  0.43094900  0.41401500  1
  S  S35  1  0.93168850  0.65496950  0.95808200  1
  S  S36  1  0.14926100  0.59867000  0.83717300  1
  S  S37  1  0.28172500  0.56905100  0.58598500  1
  S  S38  1  0.14926100  0.40133000  0.33717300  1
  S  S39  1  0.14477300  0.25432300  0.64748500  1
  S  S40  1  0.35073900  0.09867000  0.66282700  1
  S  S41  1  0.06831150  0.65496950  0.54191800  1
  S  S42  1  0.35522700  0.24567700  0.35251500  1
  S  S43  1  0.28172500  0.43094900  0.08598500  1
  S  S44  1  0.35073900  0.90133000  0.16282700  1
  S  S45  1  0.21827500  0.06905100  0.91401500  1
  S  S46  1  0.43168850  0.84503050  0.45808200  1
  S  S47  1  0.06831150  0.34503050  0.04191800  1
  S  S48  1  0.35522700  0.75432300  0.85251500  1
  S  S49  1  0.14477300  0.74567700  0.14748500  1
  S  S50  1  0.21827500  0.93094900  0.41401500  1
  S  S51  1  0.43168850  0.15496950  0.95808200  1
  I  I52  1  0.00000000  0.01363400  0.25000000  1
  I  I53  1  0.00000000  0.98636600  0.75000000  1
  I  I54  1  0.50000000  0.51363400  0.25000000  1
  I  I55  1  0.50000000  0.48636600  0.75000000  1
