# generated using pymatgen
data_Ba3TiNb4O15
_symmetry_space_group_name_H-M   'P 1'
_cell_length_a   12.69056100
_cell_length_b   12.69056100
_cell_length_c   4.13440300
_cell_angle_alpha   90.00000000
_cell_angle_beta   90.00000000
_cell_angle_gamma   90.00000000
_symmetry_Int_Tables_number   1
_chemical_formula_structural   Ba3TiNb4O15
_chemical_formula_sum   'Ba6 Ti2 Nb8 O30'
_cell_volume   665.84700262
_cell_formula_units_Z   2
loop_
 _symmetry_equiv_pos_site_id
 _symmetry_equiv_pos_as_xyz
  1  'x, y, z'
loop_
 _atom_site_type_symbol
 _atom_site_label
 _atom_site_symmetry_multiplicity
 _atom_site_fract_x
 _atom_site_fract_y
 _atom_site_fract_z
 _atom_site_occupancy
  Ba  Ba0  1  0.66323400  0.83676600  0.97939900  1
  Ba  Ba1  1  0.33676600  0.16323400  0.97939900  1
  Ba  Ba2  1  0.00000000  0.00000000  0.98683200  1
  Ba  Ba3  1  0.83676600  0.33676600  0.97939900  1
  Ba  Ba4  1  0.16323400  0.66323400  0.97939900  1
  Ba  Ba5  1  0.50000000  0.50000000  0.98683200  1
  Ti  Ti6  1  0.00000000  0.50000000  0.45144000  1
  Ti  Ti7  1  0.50000000  0.00000000  0.45144000  1
  Nb  Nb8  1  0.42659500  0.71666000  0.46809200  1
  Nb  Nb9  1  0.71666000  0.57340500  0.46809200  1
  Nb  Nb10  1  0.92659500  0.78334000  0.46809200  1
  Nb  Nb11  1  0.57340500  0.28334000  0.46809200  1
  Nb  Nb12  1  0.21666000  0.92659500  0.46809200  1
  Nb  Nb13  1  0.07340500  0.21666000  0.46809200  1
  Nb  Nb14  1  0.78334000  0.07340500  0.46809200  1
  Nb  Nb15  1  0.28334000  0.42659500  0.46809200  1
  O  O16  1  0.79141300  0.07514500  0.01413600  1
  O  O17  1  0.35961700  0.56828500  0.51376200  1
  O  O18  1  0.64038300  0.43171500  0.51376200  1
  O  O19  1  0.20858700  0.92485500  0.01413600  1
  O  O20  1  0.29141300  0.42485500  0.01413600  1
  O  O21  1  0.00000000  0.50000000  0.02925500  1
  O  O22  1  0.50000000  0.00000000  0.02925500  1
  O  O23  1  0.15466400  0.50625700  0.51418200  1
  O  O24  1  0.28142400  0.78142400  0.51199300  1
  O  O25  1  0.43171500  0.35961700  0.51376200  1
  O  O26  1  0.07514500  0.20858700  0.01413600  1
  O  O27  1  0.78142400  0.71857600  0.51199300  1
  O  O28  1  0.70858700  0.57514500  0.01413600  1
  O  O29  1  0.00625700  0.65466400  0.51418200  1
  O  O30  1  0.57514500  0.29141300  0.01413600  1
  O  O31  1  0.56828500  0.64038300  0.51376200  1
  O  O32  1  0.93171500  0.14038300  0.51376200  1
  O  O33  1  0.50625700  0.84533600  0.51418200  1
  O  O34  1  0.42485500  0.70858700  0.01413600  1
  O  O35  1  0.06828500  0.85961700  0.51376200  1
  O  O36  1  0.99374300  0.34533600  0.51418200  1
  O  O37  1  0.65466400  0.99374300  0.51418200  1
  O  O38  1  0.14038300  0.06828500  0.51376200  1
  O  O39  1  0.49374300  0.15466400  0.51418200  1
  O  O40  1  0.92485500  0.79141300  0.01413600  1
  O  O41  1  0.85961700  0.93171500  0.51376200  1
  O  O42  1  0.34533600  0.00625700  0.51418200  1
  O  O43  1  0.84533600  0.49374300  0.51418200  1
  O  O44  1  0.71857600  0.21857600  0.51199300  1
  O  O45  1  0.21857600  0.28142400  0.51199300  1
