# generated using pymatgen
data_Cs5(KPb6)3
_symmetry_space_group_name_H-M   'P 1'
_cell_length_a   10.12788100
_cell_length_b   15.65650019
_cell_length_c   15.79671692
_cell_angle_alpha   104.77357076
_cell_angle_beta   97.27604316
_cell_angle_gamma   100.03159976
_symmetry_Int_Tables_number   1
_chemical_formula_structural   Cs5(KPb6)3
_chemical_formula_sum   'Cs10 K6 Pb36'
_cell_volume   2346.19629504
_cell_formula_units_Z   2
loop_
 _symmetry_equiv_pos_site_id
 _symmetry_equiv_pos_as_xyz
  1  'x, y, z'
loop_
 _atom_site_type_symbol
 _atom_site_label
 _atom_site_symmetry_multiplicity
 _atom_site_fract_x
 _atom_site_fract_y
 _atom_site_fract_z
 _atom_site_occupancy
  Cs  Cs0  1  0.74660700  0.65160400  0.82886900  1
  Cs  Cs1  1  0.40078600  0.33578500  0.46905700  1
  Cs  Cs2  1  0.06392400  0.33650900  0.26648100  1
  Cs  Cs3  1  0.66791000  0.06318900  0.81769400  1
  Cs  Cs4  1  0.20467800  0.12183100  0.83434400  1
  Cs  Cs5  1  0.81088700  0.84705600  0.38358500  1
  Cs  Cs6  1  0.28230800  0.02875800  0.47276500  1
  Cs  Cs7  1  0.59468600  0.15599000  0.17756800  1
  Cs  Cs8  1  0.47399600  0.84651300  0.17990700  1
  Cs  Cs9  1  0.12964400  0.53336100  0.82018900  1
  K  K10  1  0.03381100  0.64228200  0.20619300  1
  K  K11  1  0.50525300  0.37211700  0.76466100  1
  K  K12  1  0.95474700  0.33676100  0.99378200  1
  K  K13  1  0.92001000  0.85140400  0.65639300  1
  K  K14  1  0.83351200  0.53851100  0.45029600  1
  K  K15  1  0.35796800  0.81541700  0.88256000  1
  Pb  Pb16  1  0.00330200  0.17949700  0.44016200  1
  Pb  Pb17  1  0.72227700  0.93092100  0.00585600  1
  Pb  Pb18  1  0.15388500  0.68259600  0.63846700  1
  Pb  Pb19  1  0.46990700  0.59721000  0.01137000  1
  Pb  Pb20  1  0.76008400  0.29031400  0.43841700  1
  Pb  Pb21  1  0.82065700  0.78856600  0.09733000  1
  Pb  Pb22  1  0.40254000  0.58665300  0.63814700  1
  Pb  Pb23  1  0.33686800  0.29604400  0.09786400  1
  Pb  Pb24  1  0.56695000  0.29450200  0.97561900  1
  Pb  Pb25  1  0.63682300  0.19573200  0.60942000  1
  Pb  Pb26  1  0.05428400  0.39369900  0.55261500  1
  Pb  Pb27  1  0.14798500  0.77446300  0.48162200  1
  Pb  Pb28  1  0.72665900  0.41063800  0.16815800  1
  Pb  Pb29  1  0.63747300  0.60690400  0.19879900  1
  Pb  Pb30  1  0.53795000  0.88824700  0.55325200  1
  Pb  Pb31  1  0.15226500  0.25067000  0.64299100  1
  Pb  Pb32  1  0.08848400  0.78228200  0.01138700  1
  Pb  Pb33  1  0.30671100  0.89039400  0.67419400  1
  Pb  Pb34  1  0.55254700  0.79423300  0.70684000  1
  Pb  Pb35  1  0.71908100  0.50211900  0.01077700  1
  Pb  Pb36  1  0.23544100  0.57769700  0.45090400  1
  Pb  Pb37  1  0.23827800  0.98838100  0.04291900  1
  Pb  Pb38  1  0.98264800  0.09522100  0.04844800  1
  Pb  Pb39  1  0.49185000  0.45148900  0.27426800  1
  Pb  Pb40  1  0.69467500  0.08342200  0.42715400  1
  Pb  Pb41  1  0.87004700  0.00290700  0.20927200  1
  Pb  Pb42  1  0.30049300  0.51139000  0.13887000  1
  Pb  Pb43  1  0.96634500  0.90560800  0.90214800  1
  Pb  Pb44  1  0.89140300  0.08788300  0.60267900  1
  Pb  Pb45  1  0.78702200  0.40092900  0.64018100  1
  Pb  Pb46  1  0.17884400  0.09937700  0.22454600  1
  Pb  Pb47  1  0.91087700  0.27794400  0.74866100  1
  Pb  Pb48  1  0.38351700  0.73303800  0.37617200  1
  Pb  Pb49  1  0.57377900  0.67372100  0.51241900  1
  Pb  Pb50  1  0.11388600  0.89208700  0.21286500  1
  Pb  Pb51  1  0.31983500  0.38973500  0.94436400  1
