# generated using pymatgen
data_AlPI8
_symmetry_space_group_name_H-M   'P 1'
_cell_length_a   11.19623000
_cell_length_b   11.40269500
_cell_length_c   16.23096300
_cell_angle_alpha   90.00000000
_cell_angle_beta   90.00000000
_cell_angle_gamma   90.00000000
_symmetry_Int_Tables_number   1
_chemical_formula_structural   AlPI8
_chemical_formula_sum   'Al4 P4 I32'
_cell_volume   2072.16153199
_cell_formula_units_Z   4
loop_
 _symmetry_equiv_pos_site_id
 _symmetry_equiv_pos_as_xyz
  1  'x, y, z'
loop_
 _atom_site_type_symbol
 _atom_site_label
 _atom_site_symmetry_multiplicity
 _atom_site_fract_x
 _atom_site_fract_y
 _atom_site_fract_z
 _atom_site_occupancy
  Al  Al0  1  0.99220600  0.92020100  0.33773300  1
  Al  Al1  1  0.49220600  0.57979900  0.83773300  1
  Al  Al2  1  0.00779400  0.07979900  0.83773300  1
  Al  Al3  1  0.50779400  0.42020100  0.33773300  1
  P  P4  1  0.01499200  0.45798700  0.55067900  1
  P  P5  1  0.51499200  0.04201300  0.05067900  1
  P  P6  1  0.98500800  0.54201300  0.05067900  1
  P  P7  1  0.48500800  0.95798700  0.55067900  1
  I  I8  1  0.48704200  0.60622000  0.25483500  1
  I  I9  1  0.62962700  0.96881700  0.17039600  1
  I  I10  1  0.53876600  0.54675600  0.99300800  1
  I  I11  1  0.95850500  0.75429600  0.02507000  1
  I  I12  1  0.54149500  0.25429600  0.02507000  1
  I  I13  1  0.03876600  0.95324400  0.49300800  1
  I  I14  1  0.87037300  0.46881700  0.17039600  1
  I  I15  1  0.30197800  0.01434900  0.07457800  1
  I  I16  1  0.64688700  0.73266700  0.78612000  1
  I  I17  1  0.51295800  0.39378000  0.75483500  1
  I  I18  1  0.85311300  0.23266700  0.78612000  1
  I  I19  1  0.98704200  0.89378000  0.75483500  1
  I  I20  1  0.35311300  0.26733300  0.28612000  1
  I  I21  1  0.69802200  0.98565100  0.57457800  1
  I  I22  1  0.19802200  0.51434900  0.07457800  1
  I  I23  1  0.37037300  0.03118300  0.67039600  1
  I  I24  1  0.42752800  0.07946300  0.42989000  1
  I  I25  1  0.71797500  0.33006100  0.32422000  1
  I  I26  1  0.45850500  0.74570400  0.52507000  1
  I  I27  1  0.57247200  0.92053700  0.92989000  1
  I  I28  1  0.78202500  0.83006100  0.32422000  1
  I  I29  1  0.92752800  0.42053700  0.92989000  1
  I  I30  1  0.01295800  0.10622000  0.25483500  1
  I  I31  1  0.14688700  0.76733300  0.28612000  1
  I  I32  1  0.12962700  0.53118300  0.67039600  1
  I  I33  1  0.46123400  0.45324400  0.49300800  1
  I  I34  1  0.21797500  0.16993900  0.82422000  1
  I  I35  1  0.80197800  0.48565100  0.57457800  1
  I  I36  1  0.07247200  0.57946300  0.42989000  1
  I  I37  1  0.28202500  0.66993900  0.82422000  1
  I  I38  1  0.04149500  0.24570400  0.52507000  1
  I  I39  1  0.96123400  0.04675600  0.99300800  1
